data_image0
_chemical_formula_structural       Mn6H80C150N8O24F36
_chemical_formula_sum              "Mn6 H80 C150 N8 O24 F36"
_cell_length_a       13.71699
_cell_length_b       19.76085
_cell_length_c       22.19663
_cell_angle_alpha    78.39274
_cell_angle_beta     72.26259999999999
_cell_angle_gamma    69.95736

_symmetry_space_group_name_H-M    'P 1'
_symmetry_Int_Tables_number       1

loop_
  _symmetry_equiv_pos_as_xyz
  'x,y,z'

loop_
  _atom_site_type_symbol
  _atom_site_label
  _atom_site_symmetry_multiplicity
  _atom_site_fract_x
  _atom_site_fract_y
  _atom_site_fract_z
  _atom_site_occupancy
  Mn  Mn1       1.0  0.2779500000000001  0.4556499999999999  0.4710999999999999  1.0000
  Mn  Mn2       1.0  0.7100400000000002  0.04689  0.025469999999999996  1.0000
  Mn  Mn3       1.0  0.7169300000000003  0.54889  0.52613  1.0000
  Mn  Mn4       1.0  0.2960600000000001  0.9554099999999998  0.9725799999999999  1.0000
  Mn  Mn5       1.0  0.5026900000000002  0.49838999999999994  0.50073  1.0000
  Mn  Mn6       1.0  0.9997400000000002  0.9973199999999999  0.00039  1.0000
  H   H1        1.0  0.13220000000000026  0.6680999999999998  0.39179999999999987  1.0000
  H   H2        1.0  0.06038000000000004  0.79863  0.35797999999999996  1.0000
  H   H3        1.0  0.26975  0.84516  0.44386999999999993  1.0000
  H   H4        1.0  0.34714000000000017  0.7145699999999999  0.47186  1.0000
  H   H5        1.0  0.08836000000000004  0.57372  0.4177  1.0000
  H   H6        1.0  0.90501  0.44754  0.39088  1.0000
  H   H7        1.0  0.9681600000000001  0.3088999999999999  0.42534  1.0000
  H   H8        1.0  0.9627500000000001  0.02221999999999999  0.19984  1.0000
  H   H9        1.0  0.95315  0.00692  0.31392  1.0000
  H   H10       1.0  0.26263  0.84387  0.28099  1.0000
  H   H11       1.0  0.27431000000000016  0.8642699999999999  0.16535  1.0000
  H   H12       1.0  0.5338500000000004  0.3921199999999999  0.27461  1.0000
  H   H13       1.0  0.71238  0.3221699999999999  0.21321  1.0000
  H   H14       1.0  0.83329  0.28243  0.37915  1.0000
  H   H15       1.0  0.65681  0.35469  0.43827  1.0000
  H   H16       1.0  0.9336200000000003  0.5670699999999997  0.38356999999999997  1.0000
  H   H17       1.0  0.41292  0.31294  0.52633  1.0000
  H   H18       1.0  0.25918000000000024  0.15663999999999992  0.5196999999999999  1.0000
  H   H19       1.0  0.40283  0.18649999999999997  0.54869  1.0000
  H   H20       1.0  0.09487000000000002  0.20512999999999998  0.47166999999999987  1.0000
  H   H21       1.0  0.6947200000000003  0.8275599999999997  0.10466999999999999  1.0000
  H   H22       1.0  0.7171300000000002  0.6968799999999999  0.14023  1.0000
  H   H23       1.0  0.05873999999999993  0.6501200000000001  0.05898  1.0000
  H   H24       1.0  0.034919999999999986  0.78073  0.030299999999999994  1.0000
  H   H25       1.0  0.5735700000000002  0.93657  0.07849  1.0000
  H   H26       1.0  0.23691000000000012  0.05784999999999999  0.11281  1.0000
  H   H27       1.0  0.18969000000000003  0.19307  0.07962  1.0000
  H   H28       1.0  0.67898  0.47635  0.29958  1.0000
  H   H29       1.0  0.77122  0.4895399999999999  0.18567999999999998  1.0000
  H   H30       1.0  0.8848600000000001  0.65356  0.21906999999999996  1.0000
  H   H31       1.0  0.79844  0.63481  0.33457999999999993  1.0000
  H   H32       1.0  0.7016900000000003  0.10876  0.22333999999999998  1.0000
  H   H33       1.0  0.74699  0.17902  0.28675  1.0000
  H   H34       1.0  0.99592  0.21953999999999999  0.12351999999999998  1.0000
  H   H35       1.0  0.9534900000000002  0.14594  0.06296  1.0000
  H   H36       1.0  0.37893000000000016  0.9396399999999998  0.11781999999999997  1.0000
  H   H37       1.0  0.7245000000000003  0.21396  0.9684299999999998  1.0000
  H   H38       1.0  0.40029  0.35703999999999997  0.98373  1.0000
  H   H39       1.0  0.5987400000000006  0.33913  0.95151  1.0000
  H   H40       1.0  0.24832000000000012  0.3016799999999999  0.03237999999999999  1.0000
  H   H41       1.0  0.8711499999999999  0.3298599999999999  0.60666  1.0000
  H   H42       1.0  0.9431299999999999  0.1991  0.64169  1.0000
  H   H43       1.0  0.7326  0.15191  0.55697  1.0000
  H   H44       1.0  0.65469  0.2825399999999999  0.52891  1.0000
  H   H45       1.0  0.9116000000000001  0.43759999999999993  0.5778599999999999  1.0000
  H   H46       1.0  0.09520999999999999  0.5591  0.6114  1.0000
  H   H47       1.0  0.040750000000000064  0.69443  0.57853  1.0000
  H   H48       1.0  0.04570000000000007  0.9776599999999999  0.7981999999999999  1.0000
  H   H49       1.0  0.05287000000000008  0.99192  0.6842  1.0000
  H   H50       1.0  0.7420300000000001  0.15337999999999996  0.71868  1.0000
  H   H51       1.0  0.73331  0.13389999999999994  0.8341999999999999  1.0000
  H   H52       1.0  0.46673000000000003  0.61023  0.7243799999999999  1.0000
  H   H53       1.0  0.28820999999999997  0.67876  0.78754  1.0000
  H   H54       1.0  0.16195  0.7170799999999999  0.62386  1.0000
  H   H55       1.0  0.33841000000000004  0.6451  0.56352  1.0000
  H   H56       1.0  0.06534999999999999  0.44067  0.61647  1.0000
  H   H57       1.0  0.5934900000000001  0.7145999999999998  0.4690699999999999  1.0000
  H   H58       1.0  0.7603200000000001  0.8582899999999997  0.48451  1.0000
  H   H59       1.0  0.6114100000000003  0.8400700000000001  0.45243  1.0000
  H   H60       1.0  0.9199600000000001  0.8030699999999997  0.53242  1.0000
  H   H61       1.0  0.30981  0.16790000000000002  0.89384  1.0000
  H   H62       1.0  0.28602000000000005  0.2983  0.85966  1.0000
  H   H63       1.0  0.94481  0.34404  0.94169  1.0000
  H   H64       1.0  0.9697800000000001  0.2133  0.9702199999999999  1.0000
  H   H65       1.0  0.4208900000000002  0.07323  0.91807  1.0000
  H   H66       1.0  0.7557800000000001  0.94778  0.8897999999999998  1.0000
  H   H67       1.0  0.7963600000000001  0.8090499999999999  0.92476  1.0000
  H   H68       1.0  0.31643000000000004  0.52326  0.69947  1.0000
  H   H69       1.0  0.22824999999999993  0.50736  0.81354  1.0000
  H   H70       1.0  0.12049000000000004  0.3404499999999999  0.77991  1.0000
  H   H71       1.0  0.20195999999999997  0.36195  0.6643  1.0000
  H   H72       1.0  0.2999200000000003  0.8921899999999994  0.77613  1.0000
  H   H73       1.0  0.25273  0.82201  0.71404  1.0000
  H   H74       1.0  0.006780000000000067  0.78115  0.8788999999999999  1.0000
  H   H75       1.0  0.05205000000000022  0.8529899999999999  0.9390399999999999  1.0000
  H   H76       1.0  0.6156800000000001  0.06708000000000001  0.8826699999999997  1.0000
  H   H77       1.0  0.24847  0.81204  0.028499999999999994  1.0000
  H   H78       1.0  0.5636500000000002  0.65622  0.020659999999999998  1.0000
  H   H79       1.0  0.36202000000000006  0.6858399999999999  0.05051  1.0000
  H   H80       1.0  0.72707  0.70514  0.97181  1.0000
  C   C1        1.0  0.29277000000000003  0.6038299999999999  0.45446  1.0000
  C   C2        1.0  0.24386  0.68245  0.43496999999999997  1.0000
  C   C3        1.0  0.16218000000000013  0.70703  0.40305999999999986  1.0000
  C   C4        1.0  0.12146000000000008  0.7805899999999998  0.38430999999999993  1.0000
  C   C5        1.0  0.15886999999999998  0.832  0.39843  1.0000
  C   C6        1.0  0.23914999999999995  0.80746  0.43141999999999997  1.0000
  C   C7        1.0  0.28224999999999995  0.73357  0.44831  1.0000
  C   C8        1.0  0.0743100000000001  0.5223399999999999  0.41965999999999987  1.0000
  C   C9        1.0  0.97216  0.4510199999999999  0.40514999999999995  1.0000
  C   C10       1.0  0.03340000000000008  0.3166899999999999  0.4386099999999999  1.0000
  C   C11       1.0  0.12823000000000007  0.39744999999999997  0.44696999999999987  1.0000
  C   C12       1.0  0.20163000000000003  0.33817999999999987  0.47224  1.0000
  C   C13       1.0  0.02873000000000004  0.9837399999999998  0.21778  1.0000
  C   C14       1.0  0.023209999999999967  0.97404  0.28263  1.0000
  C   C15       1.0  0.10699000000000006  0.9234999999999999  0.30643  1.0000
  C   C16       1.0  0.19729000000000016  0.8837499999999998  0.26343  1.0000
  C   C17       1.0  0.20417000000000002  0.89515  0.19840999999999998  1.0000
  C   C18       1.0  0.11980000000000013  0.9453099999999999  0.17493  1.0000
  C   C19       1.0  0.1266500000000001  0.9583399999999999  0.10494  1.0000
  C   C20       1.0  0.10797  0.9124499999999999  0.37714  1.0000
  C   C21       1.0  0.9929399999999999  0.9365799999999999  0.42255999999999994  1.0000
  C   C22       1.0  0.17093000000000003  0.9626499999999999  0.38333  1.0000
  C   C23       1.0  0.47202999999999995  0.41483  0.39719999999999994  1.0000
  C   C24       1.0  0.5827500000000001  0.3768899999999999  0.36087  1.0000
  C   C25       1.0  0.60048  0.36835  0.2967  1.0000
  C   C26       1.0  0.7008300000000004  0.32921  0.26249  1.0000
  C   C27       1.0  0.7863400000000003  0.29619  0.29145999999999994  1.0000
  C   C28       1.0  0.76933  0.30647  0.35504  1.0000
  C   C29       1.0  0.6688400000000002  0.34657999999999994  0.3891799999999999  1.0000
  C   C30       1.0  0.9537900000000001  0.30638  0.20956999999999998  1.0000
  C   C31       1.0  0.9886199999999999  0.51796  0.40074999999999994  1.0000
  C   C32       1.0  0.04245000000000006  0.38853  0.4293299999999999  1.0000
  C   C33       1.0  0.35128999999999994  0.29869999999999997  0.51486  1.0000
  C   C34       1.0  0.2647900000000003  0.21152999999999994  0.5106499999999999  1.0000
  C   C35       1.0  0.34452000000000005  0.22834  0.52672  1.0000
  C   C36       1.0  0.10402000000000002  0.25902  0.46427  1.0000
  C   C37       1.0  0.19078  0.26765  0.48256  1.0000
  C   C38       1.0  0.8513400000000001  0.8912099999999998  0.04537  1.0000
  C   C39       1.0  0.8634500000000002  0.81232  0.06508  1.0000
  C   C40       1.0  0.7740200000000004  0.7880799999999999  0.09565  1.0000
  C   C41       1.0  0.7869100000000001  0.71475  0.11499  1.0000
  C   C42       1.0  0.8893900000000001  0.66359  0.10242999999999998  1.0000
  C   C43       1.0  0.9785400000000001  0.68781  0.07044  1.0000
  C   C44       1.0  0.9655800000000001  0.7615699999999997  0.0532  1.0000
  C   C45       1.0  0.5086000000000002  0.9871699999999999  0.0778  1.0000
  C   C46       1.0  0.32127  0.05515  0.09658  1.0000
  C   C47       1.0  0.27466  0.18882  0.06398  1.0000
  C   C48       1.0  0.46254  0.11156999999999999  0.05059  1.0000
  C   C49       1.0  0.4969400000000001  0.17501999999999995  0.02436  1.0000
  C   C50       1.0  0.72515  0.5144999999999997  0.28168  1.0000
  C   C51       1.0  0.7766200000000002  0.52283  0.21715  1.0000
  C   C52       1.0  0.8345800000000001  0.573  0.19387  1.0000
  C   C53       1.0  0.8412900000000005  0.61388  0.23660999999999996  1.0000
  C   C54       1.0  0.79276  0.6037999999999999  0.30118  1.0000
  C   C55       1.0  0.7342000000000003  0.55406  0.32426999999999995  1.0000
  C   C56       1.0  0.68433  0.54288  0.3940799999999999  1.0000
  C   C57       1.0  0.8969700000000004  0.58322  0.12388  1.0000
  C   C58       1.0  0.85283  0.55928  0.0775  1.0000
  C   C59       1.0  0.014560000000000024  0.53409  0.11934  1.0000
  C   C60       1.0  0.7891600000000002  0.08854000000000001  0.09982999999999999  1.0000
  C   C61       1.0  0.8234700000000001  0.12449999999999999  0.13897  1.0000
  C   C62       1.0  0.7667000000000003  0.13273  0.20260999999999998  1.0000
  C   C63       1.0  0.7922700000000001  0.17222  0.23766999999999996  1.0000
  C   C64       1.0  0.8730400000000005  0.20591  0.20953999999999998  1.0000
  C   C65       1.0  0.932  0.1953  0.14653  1.0000
  C   C66       1.0  0.90786  0.15451999999999996  0.11175999999999997  1.0000
  C   C67       1.0  0.9682500000000002  0.1958  0.29103  1.0000
  C   C68       1.0  0.40032  0.98936  0.09973999999999997  1.0000
  C   C69       1.0  0.35106  0.11878  0.07093  1.0000
  C   C70       1.0  0.6378400000000003  0.22392000000000006  0.9816799999999999  1.0000
  C   C71       1.0  0.45740000000000003  0.30373000000000006  0.9903599999999999  1.0000
  C   C72       1.0  0.56694  0.2938499999999999  0.97247  1.0000
  C   C73       1.0  0.30706999999999995  0.24892  0.03796  1.0000
  C   C74       1.0  0.4189700000000001  0.24360999999999997  0.01748  1.0000
  C   C75       1.0  0.7121400000000003  0.3931700000000001  0.54554  1.0000
  C   C76       1.0  0.7588800000000001  0.31435999999999986  0.56515  1.0000
  C   C77       1.0  0.8410200000000005  0.2903  0.59656  1.0000
  C   C78       1.0  0.8816900000000003  0.21694999999999998  0.61565  1.0000
  C   C79       1.0  0.8437000000000004  0.16568000000000002  0.6018699999999999  1.0000
  C   C80       1.0  0.7631900000000004  0.18974999999999997  0.5691399999999999  1.0000
  C   C81       1.0  0.7198900000000004  0.26349999999999996  0.55221  1.0000
  C   C82       1.0  0.9273100000000004  0.48819  0.5772  1.0000
  C   C83       1.0  0.029329999999999964  0.55629  0.59543  1.0000
  C   C84       1.0  0.9751  0.69009  0.56327  1.0000
  C   C85       1.0  0.8766100000000001  0.6126900000000001  0.5503899999999999  1.0000
  C   C86       1.0  0.80481  0.67614  0.52454  1.0000
  C   C87       1.0  0.97916  0.015609999999999992  0.78045  1.0000
  C   C88       1.0  0.9831400000000005  0.02457  0.71587  1.0000
  C   C89       1.0  0.8980400000000001  0.07435000000000001  0.6928399999999999  1.0000
  C   C90       1.0  0.80813  0.11415999999999998  0.73596  1.0000
  C   C91       1.0  0.8030200000000001  0.10359  0.8005899999999999  1.0000
  C   C92       1.0  0.8885100000000004  0.054179999999999985  0.82339  1.0000
  C   C93       1.0  0.8812600000000002  0.04164000000000004  0.8931699999999999  1.0000
  C   C94       1.0  0.89544  0.08539  0.6226  1.0000
  C   C95       1.0  0.009280000000000071  0.06277  0.5765199999999999  1.0000
  C   C96       1.0  0.8322699999999998  0.03576999999999999  0.61673  1.0000
  C   C97       1.0  0.5228400000000002  0.5901999999999997  0.60024  1.0000
  C   C98       1.0  0.4138700000000002  0.62511  0.63958  1.0000
  C   C99       1.0  0.3987700000000003  0.6333399999999999  0.7033699999999999  1.0000
  C   C100      1.0  0.29879  0.67192  0.73836  1.0000
  C   C101      1.0  0.21249  0.70473  0.71009  1.0000
  C   C102      1.0  0.22702999999999995  0.69381  0.64704  1.0000
  C   C103      1.0  0.3266000000000002  0.6539199999999996  0.61236  1.0000
  C   C104      1.0  0.045870000000000105  0.6949  0.7911899999999998  1.0000
  C   C105      1.0  0.012309999999999974  0.4904  0.59865  1.0000
  C   C106      1.0  0.9613799999999999  0.61994  0.5702  1.0000
  C   C107      1.0  0.6571500000000005  0.7248099999999997  0.48224999999999996  1.0000
  C   C108      1.0  0.7497399999999999  0.80488  0.49096  1.0000
  C   C109      1.0  0.6676100000000006  0.7948399999999998  0.47316999999999987  1.0000
  C   C110      1.0  0.90821  0.75021  0.53782  1.0000
  C   C111      1.0  0.8214400000000001  0.7448199999999998  0.5177  1.0000
  C   C112      1.0  0.15058000000000007  0.10342000000000003  0.9546099999999997  1.0000
  C   C113      1.0  0.14114000000000013  0.18195999999999998  0.9349799999999998  1.0000
  C   C114      1.0  0.23008000000000015  0.20673  0.9040999999999999  1.0000
  C   C115      1.0  0.21646000000000007  0.2803  0.88519  1.0000
  C   C116      1.0  0.11397000000000011  0.33146999999999993  0.8979799999999999  1.0000
  C   C117      1.0  0.025300000000000038  0.30666  0.9301499999999999  1.0000
  C   C118      1.0  0.038840000000000055  0.23278999999999997  0.94729  1.0000
  C   C119      1.0  0.4840900000000001  0.022020000000000015  0.9199099999999999  1.0000
  C   C120      1.0  0.6712  0.9510499999999998  0.90459  1.0000
  C   C121      1.0  0.71036  0.8166899999999999  0.9384199999999999  1.0000
  C   C122      1.0  0.5272499999999999  0.89716  0.94753  1.0000
  C   C123      1.0  0.48772  0.83783  0.97321  1.0000
  C   C124      1.0  0.27219  0.48394  0.71729  1.0000
  C   C125      1.0  0.2231400000000001  0.47393  0.7820699999999998  1.0000
  C   C126      1.0  0.1677100000000001  0.42227999999999993  0.8056199999999998  1.0000
  C   C127      1.0  0.16171000000000013  0.38146999999999986  0.7624999999999998  1.0000
  C   C128      1.0  0.20755000000000004  0.39333999999999997  0.69749  1.0000
  C   C129      1.0  0.2632900000000001  0.44477999999999995  0.67424  1.0000
  C   C130      1.0  0.3123600000000003  0.45869000000000004  0.6043199999999999  1.0000
  C   C131      1.0  0.10579000000000009  0.41194  0.8759799999999998  1.0000
  C   C132      1.0  0.14880000000000024  0.43783  0.9222899999999998  1.0000
  C   C133      1.0  0.9881800000000001  0.46127000000000007  0.88056  1.0000
  C   C134      1.0  0.21639000000000014  0.9146599999999999  0.8980699999999998  1.0000
  C   C135      1.0  0.18025000000000002  0.8762799999999998  0.8617799999999999  1.0000
  C   C136      1.0  0.23517  0.8681099999999999  0.79777  1.0000
  C   C137      1.0  0.20840000000000014  0.82872  0.76325  1.0000
  C   C138      1.0  0.12739000000000028  0.7952799999999998  0.7917599999999998  1.0000
  C   C139      1.0  0.07080000000000018  0.8052199999999998  0.85529  1.0000
  C   C140      1.0  0.09679000000000001  0.84541  0.8899  1.0000
  C   C141      1.0  0.031630000000000075  0.8045599999999999  0.7094599999999999  1.0000
  C   C142      1.0  0.5926700000000004  0.017860000000000015  0.9003399999999998  1.0000
  C   C143      1.0  0.6391900000000001  0.88844  0.92926  1.0000
  C   C144      1.0  0.3354400000000002  0.7980999999999999  0.016609999999999996  1.0000
  C   C145      1.0  0.51255  0.71107  0.01165  1.0000
  C   C146      1.0  0.40037999999999996  0.72777  0.028219999999999995  1.0000
  C   C147      1.0  0.6717  0.75894  0.9644699999999998  1.0000
  C   C148      1.0  0.55842  0.7673500000000001  0.9832599999999999  1.0000
  C   C149      1.0  0.8938100000000002  0.2513  0.25059  1.0000
  C   C150      1.0  0.1057200000000001  0.7499799999999998  0.75078  1.0000
  N   N1        1.0  0.14428000000000007  0.4636  0.4422299999999999  1.0000
  N   N2        1.0  0.28145  0.35418  0.48754999999999993  1.0000
  N   N3        1.0  0.53953  0.046499999999999986  0.05411  1.0000
  N   N4        1.0  0.6042100000000001  0.16603  0.00676  1.0000
  N   N5        1.0  0.8605100000000003  0.5475799999999998  0.5540399999999999  1.0000
  N   N6        1.0  0.7236199999999999  0.66706  0.50718  1.0000
  N   N7        1.0  0.45030000000000014  0.9632  0.9429799999999999  1.0000
  N   N8        1.0  0.3769300000000001  0.8537999999999999  0.98914  1.0000
  O   O1        1.0  0.3767100000000001  0.58643  0.47309  1.0000
  O   O2        1.0  0.24347000000000013  0.5597199999999998  0.4513  1.0000
  O   O3        1.0  0.45305000000000006  0.42388  0.45706  1.0000
  O   O4        1.0  0.39465999999999996  0.43451  0.37183999999999995  1.0000
  O   O5        1.0  0.04006000000000008  0.9760499999999999  0.08838  1.0000
  O   O6        1.0  0.22154999999999997  0.95061  0.0682  1.0000
  O   O7        1.0  0.9372100000000001  0.90908  0.026979999999999997  1.0000
  O   O8        1.0  0.7562900000000001  0.93394  0.04817  1.0000
  O   O9        1.0  0.84658  0.07724999999999999  0.042219999999999994  1.0000
  O   O10       1.0  0.7011300000000003  0.07377000000000002  0.12111999999999998  1.0000
  O   O11       1.0  0.6048600000000002  0.5181899999999999  0.41155  1.0000
  O   O12       1.0  0.7282699999999999  0.55906  0.43022  1.0000
  O   O13       1.0  0.62704  0.41072  0.5269499999999999  1.0000
  O   O14       1.0  0.7617200000000003  0.43616999999999995  0.54841  1.0000
  O   O15       1.0  0.5338400000000002  0.57926  0.54246  1.0000
  O   O16       1.0  0.6044200000000001  0.57573  0.62149  1.0000
  O   O17       1.0  0.9685699999999999  0.016009999999999996  0.90991  1.0000
  O   O18       1.0  0.7861099999999999  0.05751999999999999  0.92993  1.0000
  O   O19       1.0  0.06526000000000014  0.08621  0.9730599999999998  1.0000
  O   O20       1.0  0.24656000000000006  0.05942  0.95172  1.0000
  O   O21       1.0  0.16664  0.9232699999999999  0.95783  1.0000
  O   O22       1.0  0.29890000000000005  0.9348799999999999  0.87274  1.0000
  O   O23       1.0  0.3964600000000001  0.47793999999999986  0.58835  1.0000
  O   O24       1.0  0.26258  0.45062  0.56705  1.0000
  F   F1        1.0  0.2765400000000001  0.93903  0.35156  1.0000
  F   F2        1.0  0.16680000000000023  0.9661899999999999  0.4450599999999999  1.0000
  F   F3        1.0  0.13265000000000002  0.03134000000000001  0.3574899999999999  1.0000
  F   F4        1.0  0.9470800000000004  0.009739999999999995  0.41568  1.0000
  F   F5        1.0  0.9950700000000001  0.9159299999999999  0.48465999999999987  1.0000
  F   F6        1.0  0.92447  0.90589  0.41198999999999997  1.0000
  F   F7        1.0  0.95713  0.3533299999999999  0.24541  1.0000
  F   F8        1.0  0.9043499999999999  0.34678  0.16368  1.0000
  F   F9        1.0  0.057570000000000086  0.2728099999999999  0.17884999999999998  1.0000
  F   F10       1.0  0.06259000000000002  0.5591  0.15177  1.0000
  F   F11       1.0  0.07623000000000003  0.53163  0.05785  1.0000
  F   F12       1.0  0.01927000000000001  0.4649  0.14517  1.0000
  F   F13       1.0  0.87533  0.48586  0.08154999999999998  1.0000
  F   F14       1.0  0.8942900000000005  0.58232  0.01574  1.0000
  F   F15       1.0  0.7433700000000002  0.58883  0.09040999999999999  1.0000
  F   F16       1.0  0.052350000000000035  0.14849999999999994  0.25463  1.0000
  F   F17       1.0  0.9138300000000003  0.15494  0.33655  1.0000
  F   F18       1.0  0.009759999999999979  0.22885  0.32128  1.0000
  F   F19       1.0  0.72735  0.06054  0.64885  1.0000
  F   F20       1.0  0.8336500000000002  0.033379999999999986  0.55517  1.0000
  F   F21       1.0  0.8711900000000005  0.96651  0.6421799999999999  1.0000
  F   F22       1.0  0.057489999999999965  0.98982  0.58164  1.0000
  F   F23       1.0  0.00506000000000002  0.08421000000000001  0.51496  1.0000
  F   F24       1.0  0.07613  0.09411999999999998  0.58775  1.0000
  F   F25       1.0  0.04288000000000024  0.6491599999999998  0.7542199999999999  1.0000
  F   F26       1.0  0.0955900000000001  0.6532599999999998  0.8365299999999999  1.0000
  F   F27       1.0  0.9420500000000003  0.7275199999999998  0.82154  1.0000
  F   F28       1.0  0.93793  0.4373600000000001  0.84857  1.0000
  F   F29       1.0  0.9281000000000005  0.46471999999999997  0.9422399999999997  1.0000
  F   F30       1.0  0.9852000000000004  0.5298  0.85451  1.0000
  F   F31       1.0  0.12410000000000004  0.5112599999999999  0.91838  1.0000
  F   F32       1.0  0.10978  0.4141500000000001  0.9842899999999999  1.0000
  F   F33       1.0  0.25818000000000024  0.41058  0.9092  1.0000
  F   F34       1.0  0.9473700000000004  0.8516699999999997  0.74547  1.0000
  F   F35       1.0  0.08615999999999999  0.8450399999999999  0.66355  1.0000
  F   F36       1.0  0.9903300000000004  0.7712499999999999  0.67893  1.0000
