data_image0
_chemical_formula_structural       Mn10H112C152N64Cl4
_chemical_formula_sum              "Mn10 H112 C152 N64 Cl4"
_cell_length_a       18.625
_cell_length_b       17.55984
_cell_length_c       27.47843
_cell_angle_alpha    89.99846
_cell_angle_beta     89.99953999999998
_cell_angle_gamma    112.13187

_space_group_name_H-M_alt    "P 1"
_space_group_IT_number       1

loop_
  _space_group_symop_operation_xyz
  'x, y, z'

loop_
  _atom_site_type_symbol
  _atom_site_label
  _atom_site_symmetry_multiplicity
  _atom_site_fract_x
  _atom_site_fract_y
  _atom_site_fract_z
  _atom_site_occupancy
  Mn  Mn1       1.0  0.313  0.07346  0.11133  1.0000
  Mn  Mn2       1.0  0.10942  0.06521999999999997  0.11262  1.0000
  Mn  Mn3       1.0  0.6870299999999999  0.4265099999999999  0.6113599999999998  1.0000
  Mn  Mn4       1.0  0.89062  0.43475999999999987  0.61262  1.0000
  Mn  Mn5       1.0  0.68692  0.9264699999999998  0.88868  1.0000
  Mn  Mn6       1.0  0.89055  0.93473  0.88735  1.0000
  Mn  Mn7       1.0  0.3130399999999999  0.5735599999999997  0.38865  1.0000
  Mn  Mn8       1.0  0.10941999999999993  0.5652899999999997  0.3873499999999999  1.0000
  Mn  Mn9       1.0  0.99994  0.9999600000000001  0.9999899999999999  1.0000
  Mn  Mn10      1.0  6.000000000001753e-05  0.50005  0.49999  1.0000
  H   H1        1.0  0.36862  0.19329  0.7631499999999998  1.0000
  H   H2        1.0  0.37098  0.09358  0.7657999999999999  1.0000
  H   H3        1.0  0.31328  0.17992  0.63073  1.0000
  H   H4        1.0  0.33362  0.24570999999999996  0.6816799999999998  1.0000
  H   H5        1.0  0.18528  0.05643  0.62683  1.0000
  H   H6        1.0  0.12045  0.03274  0.67658  1.0000
  H   H7        1.0  0.24389999999999998  0.96786  0.76207  1.0000
  H   H8        1.0  0.15519  0.98195  0.75553  1.0000
  H   H9        1.0  0.317  0.03858  0.6357  1.0000
  H   H10       1.0  0.33789  0.0009399999999999999  0.69148  1.0000
  H   H11       1.0  0.23895  0.21108  0.75484  1.0000
  H   H12       1.0  0.15249  0.12261  0.7512699999999999  1.0000
  H   H13       1.0  0.11864  0.048  0.8166399999999998  1.0000
  H   H14       1.0  0.09884  0.02882  0.90444  1.0000
  H   H15       1.0  0.34517999999999993  0.11349999999999998  0.92626  1.0000
  H   H16       1.0  0.36554999999999993  0.13119999999999996  0.8380899999999999  1.0000
  H   H17       1.0  0.44784  0.05182  0.66336  1.0000
  H   H18       1.0  0.5900499999999999  0.11207  0.65521  1.0000
  H   H19       1.0  0.5888600000000002  0.34998  0.6926  1.0000
  H   H20       1.0  0.44796  0.29021  0.70085  1.0000
  H   H21       1.0  0.12053  0.21340999999999993  0.7263999999999998  1.0000
  H   H22       1.0  0.04859999999999999  0.28802  0.68662  1.0000
  H   H23       1.0  0.15703  0.27718  0.55011  1.0000
  H   H24       1.0  0.22642  0.19878  0.5891799999999999  1.0000
  H   H25       1.0  0.13546  0.86105  0.7394799999999998  1.0000
  H   H26       1.0  0.05756999999999999  0.72515  0.7058  1.0000
  H   H27       1.0  0.14593999999999993  0.8076  0.56302  1.0000
  H   H28       1.0  0.22082999999999994  0.94619  0.5956  1.0000
  H   H29       1.0  0.63138  0.30669  0.26315  1.0000
  H   H30       1.0  0.62901  0.40637  0.2658  1.0000
  H   H31       1.0  0.68671  0.32003  0.13074  1.0000
  H   H32       1.0  0.66639  0.2542599999999999  0.18169999999999997  1.0000
  H   H33       1.0  0.81475  0.44358  0.12683  1.0000
  H   H34       1.0  0.87956  0.4672599999999999  0.17660999999999993  1.0000
  H   H35       1.0  0.75605  0.5321  0.26208  1.0000
  H   H36       1.0  0.8447999999999999  0.5180499999999998  0.25553  1.0000
  H   H37       1.0  0.68299  0.46139999999999987  0.13571  1.0000
  H   H38       1.0  0.66209  0.4990299999999999  0.19149  1.0000
  H   H39       1.0  0.76107  0.2889  0.25484  1.0000
  H   H40       1.0  0.84752  0.3773899999999999  0.25126  1.0000
  H   H41       1.0  0.88138  0.452  0.31662  1.0000
  H   H42       1.0  0.90116  0.4711999999999999  0.4044199999999999  1.0000
  H   H43       1.0  0.65485  0.38646  0.42624999999999996  1.0000
  H   H44       1.0  0.63444  0.36874  0.33809999999999996  1.0000
  H   H45       1.0  0.55216  0.44813  0.16335  1.0000
  H   H46       1.0  0.40993999999999997  0.38787  0.1552  1.0000
  H   H47       1.0  0.41117  0.14998  0.19260999999999995  1.0000
  H   H48       1.0  0.55208  0.20977  0.20085999999999996  1.0000
  H   H49       1.0  0.8794899999999999  0.2865799999999999  0.22638999999999995  1.0000
  H   H50       1.0  0.95146  0.212  0.18663  1.0000
  H   H51       1.0  0.84303  0.22282  0.0501  1.0000
  H   H52       1.0  0.77363  0.3012299999999999  0.08917999999999997  1.0000
  H   H53       1.0  0.86452  0.63893  0.23946999999999996  1.0000
  H   H54       1.0  0.9424099999999999  0.77486  0.20580999999999997  1.0000
  H   H55       1.0  0.8540499999999999  0.69241  0.06302  1.0000
  H   H56       1.0  0.77922  0.5538  0.09558999999999997  1.0000
  H   H57       1.0  0.63141  0.80675  0.23686  1.0000
  H   H58       1.0  0.62905  0.90645  0.23420999999999995  1.0000
  H   H59       1.0  0.68677  0.82015  0.3692799999999999  1.0000
  H   H60       1.0  0.66643  0.7543299999999997  0.3183399999999999  1.0000
  H   H61       1.0  0.8147899999999999  0.94363  0.37317  1.0000
  H   H62       1.0  0.87959  0.9673099999999998  0.3234  1.0000
  H   H63       1.0  0.75613  0.03218  0.23791999999999996  1.0000
  H   H64       1.0  0.84484  0.01809  0.24447  1.0000
  H   H65       1.0  0.68304  0.96147  0.3643  1.0000
  H   H66       1.0  0.6621399999999998  0.9990999999999999  0.30851  1.0000
  H   H67       1.0  0.7610799999999999  0.7889599999999998  0.24517  1.0000
  H   H68       1.0  0.84754  0.87742  0.24872999999999995  1.0000
  H   H69       1.0  0.88138  0.95204  0.18334999999999996  1.0000
  H   H70       1.0  0.9011399999999999  0.97117  0.09553999999999997  1.0000
  H   H71       1.0  0.6548099999999999  0.88647  0.07375  1.0000
  H   H72       1.0  0.63445  0.86879  0.16192  1.0000
  H   H73       1.0  0.5522  0.94822  0.33664  1.0000
  H   H74       1.0  0.40998  0.88797  0.34478  1.0000
  H   H75       1.0  0.4111899999999999  0.6500599999999997  0.3074  1.0000
  H   H76       1.0  0.55209  0.70983  0.29917  1.0000
  H   H77       1.0  0.87947  0.78661  0.2736  1.0000
  H   H78       1.0  0.9514099999999999  0.712  0.31336999999999987  1.0000
  H   H79       1.0  0.8430599999999999  0.72292  0.44989  1.0000
  H   H80       1.0  0.77367  0.80133  0.41083  1.0000
  H   H81       1.0  0.8645499999999999  0.139  0.26052  1.0000
  H   H82       1.0  0.94244  0.27491  0.2941899999999999  1.0000
  H   H83       1.0  0.85411  0.19245  0.4369799999999999  1.0000
  H   H84       1.0  0.7792299999999999  0.05386  0.40439999999999987  1.0000
  H   H85       1.0  0.3685899999999999  0.6932699999999998  0.73686  1.0000
  H   H86       1.0  0.37095  0.59358  0.7342099999999998  1.0000
  H   H87       1.0  0.31323  0.67989  0.86927  1.0000
  H   H88       1.0  0.33357  0.74569  0.81832  1.0000
  H   H89       1.0  0.1852  0.55636  0.8731599999999998  1.0000
  H   H90       1.0  0.1204  0.53269  0.82338  1.0000
  H   H91       1.0  0.24391999999999997  0.46786  0.7379099999999998  1.0000
  H   H92       1.0  0.15517  0.4819  0.74446  1.0000
  H   H93       1.0  0.31695  0.53855  0.86429  1.0000
  H   H94       1.0  0.33787  0.50093  0.8085099999999998  1.0000
  H   H95       1.0  0.2389  0.71106  0.7451599999999998  1.0000
  H   H96       1.0  0.15244999999999997  0.62258  0.7487399999999997  1.0000
  H   H97       1.0  0.11859999999999998  0.54796  0.68336  1.0000
  H   H98       1.0  0.09885999999999998  0.52881  0.59556  1.0000
  H   H99       1.0  0.34517  0.61356  0.57376  1.0000
  H   H100      1.0  0.36555  0.63125  0.6619199999999997  1.0000
  H   H101      1.0  0.44778999999999985  0.5518199999999998  0.8366399999999999  1.0000
  H   H102      1.0  0.5900299999999999  0.6120799999999997  0.84479  1.0000
  H   H103      1.0  0.58878  0.8499799999999997  0.8074  1.0000
  H   H104      1.0  0.44787  0.79018  0.7991699999999999  1.0000
  H   H105      1.0  0.12050999999999999  0.71342  0.7736  1.0000
  H   H106      1.0  0.04853  0.78799  0.81336  1.0000
  H   H107      1.0  0.15688  0.77709  0.9499  1.0000
  H   H108      1.0  0.22629  0.69869  0.9108299999999998  1.0000
  H   H109      1.0  0.13546  0.36101  0.76052  1.0000
  H   H110      1.0  0.05757  0.22507  0.7941899999999997  1.0000
  H   H111      1.0  0.14589  0.30755  0.93698  1.0000
  H   H112      1.0  0.22073  0.44616  0.9043999999999998  1.0000
  C   C1        1.0  0.2545  0.09514  0.7645999999999997  1.0000
  C   C2        1.0  0.3402299999999999  0.12996999999999995  0.7496599999999999  1.0000
  C   C3        1.0  0.34913  0.12925  0.69366  1.0000
  C   C4        1.0  0.30698  0.18106  0.6704499999999998  1.0000
  C   C5        1.0  0.22027000000000002  0.14779  0.68472  1.0000
  C   C6        1.0  0.18225  0.05782  0.66674  1.0000
  C   C7        1.0  0.22283  0.00347  0.6891299999999998  1.0000
  C   C8        1.0  0.21652  0.006609999999999999  0.74481  1.0000
  C   C9        1.0  0.30978  0.0399  0.67538  1.0000
  C   C10       1.0  0.21392999999999998  0.14784  0.74078  1.0000
  C   C11       1.0  0.24389999999999998  0.09096  0.8198199999999999  1.0000
  C   C12       1.0  0.16911  0.06272  0.84013  1.0000
  C   C13       1.0  0.15727  0.05213  0.89012  1.0000
  C   C14       1.0  0.22046999999999997  0.07052  0.92197  1.0000
  C   C15       1.0  0.29556  0.09917  0.9021399999999998  1.0000
  C   C16       1.0  0.30666  0.10915  0.85201  1.0000
  C   C17       1.0  0.21175  0.06318999999999997  0.97485  1.0000
  C   C18       1.0  0.43598999999999993  0.16585  0.6829699999999997  1.0000
  C   C19       1.0  0.47799  0.1172  0.66986  1.0000
  C   C20       1.0  0.55849  0.15081  0.66504  1.0000
  C   C21       1.0  0.59956  0.23513999999999993  0.67268  1.0000
  C   C22       1.0  0.55823  0.28473  0.68527  1.0000
  C   C23       1.0  0.4779999999999999  0.2502999999999999  0.6903  1.0000
  C   C24       1.0  0.68374  0.27033  0.66768  1.0000
  C   C25       1.0  0.17916999999999997  0.19906  0.6611  1.0000
  C   C26       1.0  0.12884999999999996  0.226  0.6876799999999997  1.0000
  C   C27       1.0  0.08848999999999996  0.2690899999999999  0.66557  1.0000
  C   C28       1.0  0.09782  0.28818  0.6157499999999998  1.0000
  C   C29       1.0  0.1489  0.26291  0.5887399999999998  1.0000
  C   C30       1.0  0.1882  0.21868999999999994  0.61122  1.0000
  C   C31       1.0  0.05253000000000002  0.332  0.5943  1.0000
  C   C32       1.0  0.1828199999999999  0.9158299999999998  0.6701199999999999  1.0000
  C   C33       1.0  0.13774000000000006  0.85128  0.7005899999999999  1.0000
  C   C34       1.0  0.09433999999999998  0.77373  0.6820399999999999  1.0000
  C   C35       1.0  0.09619  0.75758  0.63224  1.0000
  C   C36       1.0  0.14367999999999995  0.8204  0.6016  1.0000
  C   C37       1.0  0.18577999999999995  0.8981599999999997  0.62035  1.0000
  C   C38       1.0  0.048859999999999924  0.6770299999999998  0.61287  1.0000
  C   C39       1.0  0.7454899999999999  0.40483  0.2646  1.0000
  C   C40       1.0  0.65977  0.37  0.24965  1.0000
  C   C41       1.0  0.65086  0.37072  0.19366  1.0000
  C   C42       1.0  0.6930200000000001  0.31892  0.17045999999999997  1.0000
  C   C43       1.0  0.77973  0.35218  0.18471999999999994  1.0000
  C   C44       1.0  0.81776  0.44217  0.16675  1.0000
  C   C45       1.0  0.77717  0.49652  0.18913  1.0000
  C   C46       1.0  0.78346  0.49338000000000004  0.24481  1.0000
  C   C47       1.0  0.6902199999999998  0.4600799999999999  0.17538999999999996  1.0000
  C   C48       1.0  0.7860799999999999  0.35215  0.24077999999999994  1.0000
  C   C49       1.0  0.7561  0.4090199999999999  0.31980999999999987  1.0000
  C   C50       1.0  0.8308899999999999  0.4372699999999999  0.34011  1.0000
  C   C51       1.0  0.8427299999999999  0.44786  0.3901  1.0000
  C   C52       1.0  0.77954  0.4294599999999999  0.4219699999999999  1.0000
  C   C53       1.0  0.70446  0.4008  0.40213  1.0000
  C   C54       1.0  0.69334  0.39082  0.352  1.0000
  C   C55       1.0  0.7882399999999999  0.4367999999999999  0.4748599999999999  1.0000
  C   C56       1.0  0.56401  0.33413  0.18297999999999995  1.0000
  C   C57       1.0  0.522  0.3827599999999999  0.16986  1.0000
  C   C58       1.0  0.44151000000000007  0.3491399999999999  0.16503  1.0000
  C   C59       1.0  0.40045  0.26481  0.17265  1.0000
  C   C60       1.0  0.44179  0.21522  0.18526  1.0000
  C   C61       1.0  0.52202  0.24966  0.19032  1.0000
  C   C62       1.0  0.31628  0.22963  0.1677  1.0000
  C   C63       1.0  0.82084  0.30091  0.1611  1.0000
  C   C64       1.0  0.8711799999999998  0.27399  0.18768  1.0000
  C   C65       1.0  0.9115699999999999  0.23091  0.16556999999999994  1.0000
  C   C66       1.0  0.9022099999999998  0.21181  0.11574999999999999  1.0000
  C   C67       1.0  0.85116  0.2371  0.08873  1.0000
  C   C68       1.0  0.81184  0.28131  0.11122  1.0000
  C   C69       1.0  0.94749  0.168  0.0943  1.0000
  C   C70       1.0  0.8171699999999998  0.58417  0.17011  1.0000
  C   C71       1.0  0.86224  0.64873  0.20058999999999994  1.0000
  C   C72       1.0  0.90563  0.7262899999999998  0.18203  1.0000
  C   C73       1.0  0.9037799999999999  0.7424299999999998  0.13225  1.0000
  C   C74       1.0  0.8563  0.67961  0.10159  1.0000
  C   C75       1.0  0.81422  0.60184  0.12035999999999997  1.0000
  C   C76       1.0  0.9511100000000001  0.82297  0.11286  1.0000
  C   C77       1.0  0.74552  0.90489  0.2354  1.0000
  C   C78       1.0  0.6598  0.87007  0.25035  1.0000
  C   C79       1.0  0.65091  0.87079  0.30635  1.0000
  C   C80       1.0  0.69307  0.81899  0.32956  1.0000
  C   C81       1.0  0.7797699999999999  0.8522599999999998  0.3152799999999999  1.0000
  C   C82       1.0  0.8177899999999999  0.94223  0.33324999999999994  1.0000
  C   C83       1.0  0.77721  0.99658  0.31087  1.0000
  C   C84       1.0  0.7835100000000002  0.99343  0.25519  1.0000
  C   C85       1.0  0.69026  0.96015  0.3246199999999999  1.0000
  C   C86       1.0  0.7860999999999999  0.8522  0.25922  1.0000
  C   C87       1.0  0.75612  0.90906  0.18017999999999998  1.0000
  C   C88       1.0  0.8308999999999999  0.9372999999999998  0.15986  1.0000
  C   C89       1.0  0.8427100000000001  0.94787  0.10985999999999997  1.0000
  C   C90       1.0  0.7795  0.92946  0.07801999999999998  1.0000
  C   C91       1.0  0.70442  0.90081  0.09786999999999997  1.0000
  C   C92       1.0  0.69333  0.89085  0.14799999999999996  1.0000
  C   C93       1.0  0.7882  0.93677  0.02514  1.0000
  C   C94       1.0  0.56405  0.8341899999999998  0.31704  1.0000
  C   C95       1.0  0.52205  0.88284  0.33015  1.0000
  C   C96       1.0  0.44153999999999993  0.84924  0.33495  1.0000
  C   C97       1.0  0.40047  0.76491  0.3273  1.0000
  C   C98       1.0  0.44181  0.71531  0.3147199999999999  1.0000
  C   C99       1.0  0.5220399999999998  0.7497299999999998  0.30972  1.0000
  C   C100      1.0  0.31629999999999997  0.72972  0.33228999999999986  1.0000
  C   C101      1.0  0.8208799999999999  0.801  0.3389  1.0000
  C   C102      1.0  0.8711699999999999  0.77403  0.31231999999999993  1.0000
  C   C103      1.0  0.9115399999999999  0.7309399999999998  0.3344199999999999  1.0000
  C   C104      1.0  0.9022299999999999  0.71187  0.3842499999999999  1.0000
  C   C105      1.0  0.85117  0.73718  0.4112599999999999  1.0000
  C   C106      1.0  0.8118699999999998  0.7813999999999998  0.3887799999999999  1.0000
  C   C107      1.0  0.9475200000000001  0.66805  0.40569  1.0000
  C   C108      1.0  0.81721  0.08423  0.32988  1.0000
  C   C109      1.0  0.86228  0.14878  0.29941  1.0000
  C   C110      1.0  0.90568  0.22633999999999996  0.31796  1.0000
  C   C111      1.0  0.9038399999999999  0.24248  0.3677499999999999  1.0000
  C   C112      1.0  0.85636  0.17965999999999993  0.3983999999999999  1.0000
  C   C113      1.0  0.81427  0.10189  0.37964  1.0000
  C   C114      1.0  0.95118  0.32303  0.38712999999999986  1.0000
  C   C115      1.0  0.25448  0.59513  0.7354  1.0000
  C   C116      1.0  0.34019999999999995  0.62996  0.7503499999999997  1.0000
  C   C117      1.0  0.34909  0.62923  0.8063399999999997  1.0000
  C   C118      1.0  0.30693  0.68103  0.82955  1.0000
  C   C119      1.0  0.22021999999999997  0.64776  0.8152799999999998  1.0000
  C   C120      1.0  0.18219  0.55778  0.83324  1.0000
  C   C121      1.0  0.22279  0.50343  0.81086  1.0000
  C   C122      1.0  0.21649999999999997  0.50658  0.7551799999999997  1.0000
  C   C123      1.0  0.30974  0.53987  0.8246199999999998  1.0000
  C   C124      1.0  0.21388999999999997  0.64781  0.75922  1.0000
  C   C125      1.0  0.24387999999999996  0.5909599999999999  0.6802  1.0000
  C   C126      1.0  0.1691  0.5627  0.65988  1.0000
  C   C127      1.0  0.15729  0.55214  0.60988  1.0000
  C   C128      1.0  0.22049  0.57055  0.57803  1.0000
  C   C129      1.0  0.29556  0.5992  0.5978799999999997  1.0000
  C   C130      1.0  0.3066599999999999  0.6091699999999998  0.64801  1.0000
  C   C131      1.0  0.21181  0.56324  0.52513  1.0000
  C   C132      1.0  0.43594  0.66583  0.81703  1.0000
  C   C133      1.0  0.47795  0.61719  0.83014  1.0000
  C   C134      1.0  0.55845  0.65081  0.8349599999999998  1.0000
  C   C135      1.0  0.59951  0.7351399999999998  0.82732  1.0000
  C   C136      1.0  0.55817  0.78473  0.81473  1.0000
  C   C137      1.0  0.4779300000000001  0.7503  0.8097  1.0000
  C   C138      1.0  0.68368  0.77032  0.83229  1.0000
  C   C139      1.0  0.17910999999999994  0.69903  0.8388999999999999  1.0000
  C   C140      1.0  0.1288  0.72598  0.81232  1.0000
  C   C141      1.0  0.08840999999999996  0.76906  0.83442  1.0000
  C   C142      1.0  0.09773999999999995  0.78813  0.88425  1.0000
  C   C143      1.0  0.1487799999999999  0.7628299999999998  0.9112699999999999  1.0000
  C   C144      1.0  0.1881  0.71862  0.8887799999999998  1.0000
  C   C145      1.0  0.05245  0.83194  0.9057  1.0000
  C   C146      1.0  0.18278  0.41578  0.82988  1.0000
  C   C147      1.0  0.13773  0.35121  0.7994  1.0000
  C   C148      1.0  0.09433999999999998  0.27364999999999995  0.81796  1.0000
  C   C149      1.0  0.09617  0.25752  0.86775  1.0000
  C   C150      1.0  0.14365  0.32034  0.8983999999999998  1.0000
  C   C151      1.0  0.18573  0.39811  0.8796399999999998  1.0000
  C   C152      1.0  0.04884  0.17697  0.8871299999999998  1.0000
  N   N1        1.0  0.14763  0.05422  0.0020099999999999996  1.0000
  N   N2        1.0  0.17079  0.05686  0.048279999999999997  1.0000
  N   N3        1.0  0.24549999999999997  0.06564  0.04916  1.0000
  N   N4        1.0  0.2724  0.0697  0.00405  1.0000
  N   N5        1.0  0.72444  0.3476  0.6515299999999998  1.0000
  N   N6        1.0  0.80004  0.3545  0.65247  1.0000
  N   N7        1.0  0.80358  0.28427  0.66846  1.0000
  N   N8        1.0  0.732  0.23115  0.6779799999999998  1.0000
  N   N9        1.0  0.9928099999999999  0.34023  0.61875  1.0000
  N   N10       1.0  0.9668800000000001  0.38362  0.5889399999999998  1.0000
  N   N11       1.0  0.009240000000000005  0.40207  0.5477  1.0000
  N   N12       1.0  0.06335  0.36961  0.55018  1.0000
  N   N13       1.0  0.05144999999999999  0.6541  0.566  1.0000
  N   N14       1.0  0.0008799999999999948  0.5772  0.56362  1.0000
  N   N15       1.0  0.96821  0.5542  0.60796  1.0000
  N   N16       1.0  0.9973  0.6158  0.63948  1.0000
  N   N17       1.0  0.8523499999999999  0.4457699999999999  0.50203  1.0000
  N   N18       1.0  0.8291899999999999  0.44311  0.5483  1.0000
  N   N19       1.0  0.75447  0.43432  0.54917  1.0000
  N   N20       1.0  0.7275799999999999  0.43027  0.50406  1.0000
  N   N21       1.0  0.27558  0.15235999999999994  0.15154  1.0000
  N   N22       1.0  0.19998  0.14545  0.15248999999999993  1.0000
  N   N23       1.0  0.19642999999999994  0.21566999999999995  0.16847999999999994  1.0000
  N   N24       1.0  0.268  0.26879  0.17802  1.0000
  N   N25       1.0  0.007229999999999991  0.15979  0.11873999999999997  1.0000
  N   N26       1.0  0.03313999999999999  0.11637999999999997  0.08892  1.0000
  N   N27       1.0  0.9907699999999999  0.09793  0.0477  1.0000
  N   N28       1.0  0.9366499999999999  0.13038  0.050189999999999985  1.0000
  N   N29       1.0  0.94847  0.8459099999999998  0.066  1.0000
  N   N30       1.0  0.99906  0.9227999999999997  0.06361  1.0000
  N   N31       1.0  0.031799999999999995  0.94578  0.10794  1.0000
  N   N32       1.0  0.002719999999999984  0.88417  0.13945  1.0000
  N   N33       1.0  0.85231  0.94573  0.9979699999999999  1.0000
  N   N34       1.0  0.82915  0.94308  0.9517  1.0000
  N   N35       1.0  0.7544299999999999  0.9342999999999998  0.95083  1.0000
  N   N36       1.0  0.72754  0.93025  0.99594  1.0000
  N   N37       1.0  0.2756  0.65245  0.34844999999999987  1.0000
  N   N38       1.0  0.1999999999999999  0.6455399999999998  0.3474999999999999  1.0000
  N   N39       1.0  0.19645  0.71575  0.33149999999999996  1.0000
  N   N40       1.0  0.26803  0.76888  0.32197999999999993  1.0000
  N   N41       1.0  0.007229999999999991  0.65983  0.38124  1.0000
  N   N42       1.0  0.03317000000000003  0.61644  0.41105  1.0000
  N   N43       1.0  0.99083  0.5979899999999998  0.45228  1.0000
  N   N44       1.0  0.93671  0.63045  0.44981  1.0000
  N   N45       1.0  0.9485999999999999  0.34597  0.43399  1.0000
  N   N46       1.0  0.99917  0.42286  0.4363799999999999  1.0000
  N   N47       1.0  0.03185000000000001  0.44585  0.39203  1.0000
  N   N48       1.0  0.0027500000000000168  0.38425  0.36051999999999995  1.0000
  N   N49       1.0  0.1477  0.55429  0.4979599999999999  1.0000
  N   N50       1.0  0.17087  0.55698  0.4516899999999999  1.0000
  N   N51       1.0  0.24559000000000003  0.56577  0.45082  1.0000
  N   N52       1.0  0.27247  0.56979  0.49592999999999987  1.0000
  N   N53       1.0  0.72437  0.84759  0.84845  1.0000
  N   N54       1.0  0.79997  0.8544999999999998  0.8475  1.0000
  N   N55       1.0  0.80353  0.7843  0.8314999999999998  1.0000
  N   N56       1.0  0.73196  0.73117  0.82197  1.0000
  N   N57       1.0  0.9927300000000001  0.84015  0.8812499999999998  1.0000
  N   N58       1.0  0.9668  0.88355  0.91106  1.0000
  N   N59       1.0  0.009160000000000007  0.90201  0.9522899999999997  1.0000
  N   N60       1.0  0.06327999999999999  0.86956  0.94981  1.0000
  N   N61       1.0  0.05147  0.15403  0.93399  1.0000
  N   N62       1.0  0.0008800000000000068  0.07715  0.9363899999999998  1.0000
  N   N63       1.0  0.96814  0.05417  0.89205  1.0000
  N   N64       1.0  0.99722  0.11578  0.86054  1.0000
  Cl  Cl1       1.0  0.38229  0.00243  0.13129  1.0000
  Cl  Cl2       1.0  0.61774  0.49750999999999995  0.63131  1.0000
  Cl  Cl3       1.0  0.6176  0.99744  0.8687  1.0000
  Cl  Cl4       1.0  0.38235  0.50259  0.36871  1.0000
