data_image0
_chemical_formula_structural       Mn20H104C64O72
_chemical_formula_sum              "Mn20 H104 C64 O72"
_cell_length_a       12.84856
_cell_length_b       18.070500000000003
_cell_length_c       18.09792
_cell_angle_alpha    82.70647000000001
_cell_angle_beta     69.10772
_cell_angle_gamma    69.24952000000002

_space_group_name_H-M_alt    "P 1"
_space_group_IT_number       1

loop_
  _space_group_symop_operation_xyz
  'x, y, z'

loop_
  _atom_site_type_symbol
  _atom_site_label
  _atom_site_symmetry_multiplicity
  _atom_site_fract_x
  _atom_site_fract_y
  _atom_site_fract_z
  _atom_site_occupancy
  Mn  Mn1       1.0  0.12921000000000002  0.82497  0.91035  1.0000
  Mn  Mn2       1.0  0.45401  0.91062  0.6752  1.0000
  Mn  Mn3       1.0  0.9793400000000003  0.78318  0.81775  1.0000
  Mn  Mn4       1.0  0.7379400000000003  0.18277  0.2836  1.0000
  Mn  Mn5       1.0  0.8708000000000002  0.17503  0.08965  1.0000
  Mn  Mn6       1.0  0.13638000000000003  0.32416  0.41043  1.0000
  Mn  Mn7       1.0  3.4563344830087e-17  0.5  0.5  1.0000
  Mn  Mn8       1.0  0.20321000000000006  0.3172099999999999  0.21692  1.0000
  Mn  Mn9       1.0  0.4211700000000003  0.2831199999999999  0.31731  1.0000
  Mn  Mn10      1.0  0.9601  0.4104699999999999  0.1753  1.0000
  Mn  Mn11      1.0  0.0  0.5  0.0  1.0000
  Mn  Mn12      1.0  0.57884  0.7168799999999999  0.68269  1.0000
  Mn  Mn13      1.0  0.54599  0.08937999999999997  0.3248  1.0000
  Mn  Mn14      1.0  0.7967899999999994  0.68279  0.78308  1.0000
  Mn  Mn15      1.0  0.0  0.0  0.0  1.0000
  Mn  Mn16      1.0  0.5000000000000002  0.0  0.5  1.0000
  Mn  Mn17      1.0  0.8636300000000002  0.67584  0.58957  1.0000
  Mn  Mn18      1.0  0.039900000000000005  0.58953  0.8247  1.0000
  Mn  Mn19      1.0  0.26207  0.81723  0.7164  1.0000
  Mn  Mn20      1.0  0.020669999999999984  0.21681  0.18225  1.0000
  H   H1        1.0  0.41588000000000047  0.9029699999999998  0.89266  1.0000
  H   H2        1.0  0.039119999999999995  0.10408  0.41292  1.0000
  H   H3        1.0  0.8567  0.94137  0.4480900000000001  1.0000
  H   H4        1.0  0.29192  0.3014  0.8234800000000002  1.0000
  H   H5        1.0  0.6129600000000001  0.6548299999999999  0.1632  1.0000
  H   H6        1.0  0.7871300000000001  0.47486999999999996  0.48819  1.0000
  H   H7        1.0  0.14331000000000005  0.43739  0.70503  1.0000
  H   H8        1.0  0.26965000000000006  0.12857  0.58904  1.0000
  H   H9        1.0  0.69159  0.39278999999999986  0.09649  1.0000
  H   H10       1.0  0.8979099999999998  0.24611999999999998  0.6383300000000002  1.0000
  H   H11       1.0  0.45291  0.7947499999999997  0.59327  1.0000
  H   H12       1.0  0.58296  0.80107  0.3236900000000001  1.0000
  H   H13       1.0  0.35852  0.4678099999999999  0.01334  1.0000
  H   H14       1.0  0.28630999999999984  0.06304  0.7946600000000003  1.0000
  H   H15       1.0  0.6942200000000002  0.3174  0.04093  1.0000
  H   H16       1.0  0.4170500000000001  0.19891999999999996  0.67631  1.0000
  H   H17       1.0  0.15980999999999992  0.07551999999999999  0.7703600000000002  1.0000
  H   H18       1.0  0.005369999999999985  0.42396  0.7299  1.0000
  H   H19       1.0  0.15184999999999998  0.20467  0.56284  1.0000
  H   H20       1.0  0.2117000000000002  0.5968399999999998  0.60734  1.0000
  H   H21       1.0  0.7614400000000001  0.4887599999999999  0.02518  1.0000
  H   H22       1.0  0.5471  0.20524999999999996  0.40673  1.0000
  H   H23       1.0  0.22371000000000008  0.66296  0.34571  1.0000
  H   H24       1.0  0.9068800000000002  0.17624  0.80178  1.0000
  H   H25       1.0  0.30578000000000016  0.6826  0.9590699999999999  1.0000
  H   H26       1.0  0.7467000000000004  0.594  0.70565  1.0000
  H   H27       1.0  0.7136999999999999  0.93695  0.20534  1.0000
  H   H28       1.0  0.013639999999999942  0.62905  0.08881000000000003  1.0000
  H   H29       1.0  0.8402000000000006  0.9244799999999997  0.22964  1.0000
  H   H30       1.0  0.10209999999999997  0.75387  0.3616800000000001  1.0000
  H   H31       1.0  0.052839999999999984  0.18163  0.45879  1.0000
  H   H32       1.0  0.30842000000000014  0.6072  0.90351  1.0000
  H   H33       1.0  0.21628000000000028  0.74679  0.13762  1.0000
  H   H34       1.0  0.18117000000000003  0.10702  0.40234  1.0000
  H   H35       1.0  0.2647300000000001  0.54081  0.68251  1.0000
  H   H36       1.0  0.5570900000000001  0.39483  0.08706  1.0000
  H   H37       1.0  0.73423  0.77076  0.42466000000000004  1.0000
  H   H38       1.0  0.78831  0.40314999999999995  0.39266  1.0000
  H   H39       1.0  0.43076000000000003  0.84499  0.33741  1.0000
  H   H40       1.0  0.06954999999999993  0.27022  0.9243100000000002  1.0000
  H   H41       1.0  0.46335  0.13796  0.753  1.0000
  H   H42       1.0  0.38704  0.34516999999999987  0.8368  1.0000
  H   H43       1.0  0.7352800000000003  0.45919  0.31749  1.0000
  H   H44       1.0  0.53665  0.86204  0.24700000000000003  1.0000
  H   H45       1.0  0.8394700000000002  0.03244999999999999  0.48621  1.0000
  H   H46       1.0  0.75096  0.02508  0.01134  1.0000
  H   H47       1.0  0.8987500000000002  0.58871  0.37097  1.0000
  H   H48       1.0  0.5692400000000001  0.155  0.66259  1.0000
  H   H49       1.0  0.9471700000000001  0.81836  0.54121  1.0000
  H   H50       1.0  0.7023500000000005  0.55224  0.44115  1.0000
  H   H51       1.0  0.93045  0.72977  0.07569  1.0000
  H   H52       1.0  0.8188400000000001  0.89298  0.59766  1.0000
  H   H53       1.0  0.6414899999999998  0.53219  0.9866600000000001  1.0000
  H   H54       1.0  0.76804  0.16271  0.8455700000000003  1.0000
  H   H55       1.0  0.14226  0.08900999999999998  0.87092  1.0000
  H   H56       1.0  0.9946300000000003  0.57603  0.2701  1.0000
  H   H57       1.0  0.8577500000000001  0.91099  0.12908  1.0000
  H   H58       1.0  0.23855999999999994  0.51124  0.9748200000000001  1.0000
  H   H59       1.0  0.35448  0.36217  0.74654  1.0000
  H   H60       1.0  0.85669  0.56261  0.29497000000000007  1.0000
  H   H61       1.0  0.9863699999999999  0.37095  0.9111900000000003  1.0000
  H   H62       1.0  0.62857  0.51335  0.5318400000000002  1.0000
  H   H63       1.0  0.69547  0.9480099999999999  0.05869  1.0000
  H   H64       1.0  0.23196  0.83728  0.15443  1.0000
  H   H65       1.0  0.44291999999999987  0.60517  0.9129400000000002  1.0000
  H   H66       1.0  0.11488999999999995  0.6765  0.30238  1.0000
  H   H67       1.0  0.84027  0.70578  0.90664  1.0000
  H   H68       1.0  0.10126  0.41128  0.62904  1.0000
  H   H69       1.0  0.3714300000000001  0.48663999999999996  0.46816  1.0000
  H   H70       1.0  0.04643000000000004  0.9067999999999998  0.79414  1.0000
  H   H71       1.0  0.09312000000000001  0.82375  0.19822  1.0000
  H   H72       1.0  0.3563100000000002  0.58662  0.60476  1.0000
  H   H73       1.0  0.6436999999999999  0.41338  0.3952400000000001  1.0000
  H   H74       1.0  0.29766000000000004  0.44775  0.55885  1.0000
  H   H75       1.0  0.7762999999999999  0.33704  0.65429  1.0000
  H   H76       1.0  0.16053000000000006  0.96755  0.51379  1.0000
  H   H77       1.0  0.6455200000000002  0.63783  0.25346  1.0000
  H   H78       1.0  0.08176000000000028  0.70527  0.06179  1.0000
  H   H79       1.0  0.7536600000000001  0.4413399999999999  0.9482200000000001  1.0000
  H   H80       1.0  0.27567  0.011209999999999996  0.47497000000000006  1.0000
  H   H81       1.0  0.7243299999999999  0.98879  0.52503  1.0000
  H   H82       1.0  0.67447  0.9864899999999999  0.96781  1.0000
  H   H83       1.0  0.7303499999999999  0.87143  0.4109600000000001  1.0000
  H   H84       1.0  0.30453000000000013  0.05199  0.94131  1.0000
  H   H85       1.0  0.21288  0.52512  0.51181  1.0000
  H   H86       1.0  0.32553  0.01351  0.0322  1.0000
  H   H87       1.0  0.7837200000000002  0.2532  0.86238  1.0000
  H   H88       1.0  0.9535700000000003  0.09319  0.20586  1.0000
  H   H89       1.0  0.84816  0.7953299999999998  0.43716  1.0000
  H   H90       1.0  0.24634  0.55865  0.05178  1.0000
  H   H91       1.0  0.9608800000000001  0.8959099999999998  0.58708  1.0000
  H   H92       1.0  0.5841200000000001  0.09702999999999998  0.10734000000000003  1.0000
  H   H93       1.0  0.51182  0.04106  0.18256  1.0000
  H   H94       1.0  0.25331  0.40599  0.29436  1.0000
  H   H95       1.0  0.9182499999999999  0.29472  0.93822  1.0000
  H   H96       1.0  0.2490500000000001  0.9749199999999999  0.98866  1.0000
  H   H97       1.0  0.14331  0.05862  0.55191  1.0000
  H   H98       1.0  0.8851100000000006  0.32349  0.69762  1.0000
  H   H99       1.0  0.15973  0.29421  0.09336  1.0000
  H   H100      1.0  0.45215999999999995  0.08675  0.10511  1.0000
  H   H101      1.0  0.26577999999999996  0.22924  0.5753400000000001  1.0000
  H   H102      1.0  0.5478399999999999  0.91324  0.89489  1.0000
  H   H103      1.0  0.70809  0.6985999999999998  0.17652000000000007  1.0000
  H   H104      1.0  0.48817999999999984  0.95894  0.8174400000000002  1.0000
  C   C1        1.0  0.7086200000000004  0.52803  0.4989100000000001  1.0000
  C   C2        1.0  0.42798000000000014  0.16794  0.19162  1.0000
  C   C3        1.0  0.2641000000000001  0.02802  0.99915  1.0000
  C   C4        1.0  0.8618400000000002  0.15133  0.9261  1.0000
  C   C5        1.0  0.51315  0.92582  0.3487600000000001  1.0000
  C   C6        1.0  0.8274200000000005  0.18917  0.85478  1.0000
  C   C7        1.0  0.20752000000000012  0.00072  0.52814  1.0000
  C   C8        1.0  0.21709000000000006  0.9677  0.82968  1.0000
  C   C9        1.0  0.48685000000000006  0.07418  0.65124  1.0000
  C   C10       1.0  0.7829100000000002  0.03229999999999999  0.17032  1.0000
  C   C11       1.0  0.9542200000000001  0.32956  0.03242  1.0000
  C   C12       1.0  0.64141  0.35601  0.09272000000000002  1.0000
  C   C13       1.0  0.5720300000000003  0.83206  0.80838  1.0000
  C   C14       1.0  0.79248  0.99928  0.4718600000000001  1.0000
  C   C15       1.0  0.80026  0.94526  0.18295  1.0000
  C   C16       1.0  0.060169999999999974  0.65304  0.42731000000000013  1.0000
  C   C17       1.0  0.2913900000000002  0.4719599999999999  0.50109  1.0000
  C   C18       1.0  0.8712700000000001  0.31022  0.64496  1.0000
  C   C19       1.0  0.78661  0.33209  0.30896  1.0000
  C   C20       1.0  0.3585999999999998  0.64399  0.9072800000000002  1.0000
  C   C21       1.0  0.19975000000000004  0.05474  0.81705  1.0000
  C   C22       1.0  0.14917  0.09015  0.04268  1.0000
  C   C23       1.0  0.9830599999999999  0.31705  0.94562  1.0000
  C   C24       1.0  0.7534400000000004  0.81757  0.44532  1.0000
  C   C25       1.0  0.01250999999999997  0.53229  0.67104  1.0000
  C   C26       1.0  0.7397  0.04276  0.40975  1.0000
  C   C27       1.0  0.9398300000000005  0.34695999999999994  0.5727  1.0000
  C   C28       1.0  0.26031000000000015  0.9572299999999999  0.59025  1.0000
  C   C29       1.0  0.38020999999999977  0.6914  0.8319800000000003  1.0000
  C   C30       1.0  0.3182699999999997  0.3545  0.81058  1.0000
  C   C31       1.0  0.2821699999999999  0.41  0.45725000000000005  1.0000
  C   C32       1.0  0.31611  0.16999  0.46773  1.0000
  C   C33       1.0  0.21266000000000002  0.42599  0.84859  1.0000
  C   C34       1.0  0.09004000000000012  0.14329  0.40685  1.0000
  C   C35       1.0  0.09474999999999995  0.19143  0.33208  1.0000
  C   C36       1.0  0.9293300000000002  0.55467  0.31694  1.0000
  C   C37       1.0  0.7361000000000003  0.49924999999999997  0.97208  1.0000
  C   C38       1.0  0.7178399999999999  0.58999  0.5427500000000001  1.0000
  C   C39       1.0  0.8508400000000002  0.9098399999999999  0.9573199999999998  1.0000
  C   C40       1.0  0.2465700000000001  0.18242  0.55468  1.0000
  C   C41       1.0  0.2639  0.50075  0.02792  1.0000
  C   C42       1.0  0.73384  0.40741  0.3562  1.0000
  C   C43       1.0  0.7359100000000001  0.97197  0.0008500000000000001  1.0000
  C   C44       1.0  0.6198  0.3086  0.16802  1.0000
  C   C45       1.0  0.016950000000000097  0.6829499999999997  0.05438  1.0000
  C   C46       1.0  0.78734  0.574  0.15141  1.0000
  C   C47       1.0  0.19205000000000005  0.4572099999999999  0.09002000000000003  1.0000
  C   C48       1.0  0.5026799999999998  0.90714  0.8560400000000002  1.0000
  C   C49       1.0  0.26616999999999996  0.59259  0.6438000000000001  1.0000
  C   C50       1.0  0.8079500000000003  0.54279  0.90998  1.0000
  C   C51       1.0  0.07067999999999988  0.44532  0.6830600000000002  1.0000
  C   C52       1.0  0.9052500000000001  0.8085599999999997  0.66792  1.0000
  C   C53       1.0  0.9099700000000002  0.85671  0.59315  1.0000
  C   C54       1.0  0.48339999999999994  0.14571  0.68899  1.0000
  C   C55       1.0  0.12873000000000007  0.68977  0.35504  1.0000
  C   C56       1.0  0.04577999999999992  0.67044  0.9675800000000001  1.0000
  C   C57       1.0  0.4973300000000002  0.09286  0.14396  1.0000
  C   C58       1.0  0.21339999999999992  0.66791  0.69104  1.0000
  C   C59       1.0  0.68174  0.6455  0.18942  1.0000
  C   C60       1.0  0.6838900000000007  0.83  0.53228  1.0000
  C   C61       1.0  0.17258  0.81083  0.14522  1.0000
  C   C62       1.0  0.9875000000000002  0.46771  0.32896  1.0000
  C   C63       1.0  0.5166  0.85429  0.31101  1.0000
  C   C64       1.0  0.13816000000000006  0.8486599999999999  0.0739  1.0000
  O   O1        1.0  0.05472  0.09313999999999999  0.02943  1.0000
  O   O2        1.0  0.89103  0.69915  0.85157  1.0000
  O   O3        1.0  0.8761999999999999  0.32582  0.24476  1.0000
  O   O4        1.0  0.3547600000000001  0.22216999999999998  0.16627  1.0000
  O   O5        1.0  0.7415799999999999  0.64925  0.69934  1.0000
  O   O6        1.0  0.29101  0.22584999999999997  0.41971000000000014  1.0000
  O   O7        1.0  0.06345000000000005  0.72609  0.91929  1.0000
  O   O8        1.0  0.3761700000000002  0.36358  0.41153  1.0000
  O   O9        1.0  0.55853  0.19868  0.3516  1.0000
  O   O10       1.0  0.07510000000000001  0.16632  0.27802  1.0000
  O   O11       1.0  0.9877900000000003  0.69894  0.48545  1.0000
  O   O12       1.0  0.5260000000000002  0.9848699999999999  0.30382  1.0000
  O   O13       1.0  0.25737000000000015  0.7223699999999997  0.66441  1.0000
  O   O14       1.0  0.05077999999999993  0.60458  0.9439700000000002  1.0000
  O   O15       1.0  0.9156700000000003  0.5293  0.9070900000000002  1.0000
  O   O16       1.0  0.18527  0.48503999999999997  0.80383  1.0000
  O   O17       1.0  0.00881999999999999  0.44412  0.39384  1.0000
  O   O18       1.0  0.6452399999999999  0.77783  0.83373  1.0000
  O   O19       1.0  0.15135999999999997  0.13682  0.08797  1.0000
  O   O20       1.0  0.01222000000000007  0.3010599999999999  0.51455  1.0000
  O   O21       1.0  0.9249099999999999  0.83368  0.72198  1.0000
  O   O22       1.0  0.9200000000000003  0.07759  0.92214  1.0000
  O   O23       1.0  0.08433000000000003  0.4707  0.09291  1.0000
  O   O24       1.0  0.21176000000000003  0.91167  0.63692  1.0000
  O   O25       1.0  0.8147300000000002  0.51496  0.19617  1.0000
  O   O26       1.0  0.5510600000000003  0.82581  0.745  1.0000
  O   O27       1.0  0.40029000000000015  0.10414  0.44379  1.0000
  O   O28       1.0  0.5997200000000001  0.89586  0.55621  1.0000
  O   O29       1.0  0.12172000000000002  0.25506  0.32587  1.0000
  O   O30       1.0  0.84865  0.86317  0.91203  1.0000
  O   O31       1.0  0.29657000000000017  0.7553499999999997  0.8259100000000003  1.0000
  O   O32       1.0  0.09026999999999996  0.85172  0.80092  1.0000
  O   O33       1.0  0.50204  0.0779  0.5776100000000001  1.0000
  O   O34       1.0  0.08001000000000008  0.9224099999999997  0.07786  1.0000
  O   O35       1.0  0.8225600000000004  0.59317  0.52919  1.0000
  O   O36       1.0  0.016309999999999998  0.41938  0.2738  1.0000
  O   O37       1.0  0.8307800000000004  0.19613999999999998  0.9849599999999998  1.0000
  O   O38       1.0  0.7882500000000002  0.08832  0.36308  1.0000
  O   O39       1.0  0.10898000000000004  0.30085  0.14843  1.0000
  O   O40       1.0  0.6238300000000003  0.63641  0.58847  1.0000
  O   O41       1.0  0.9492300000000001  0.39542  0.05603000000000002  1.0000
  O   O42       1.0  0.7426300000000003  0.27763  0.33559  1.0000
  O   O43       1.0  0.17745000000000005  0.40683  0.4708100000000001  1.0000
  O   O44       1.0  0.9911900000000002  0.55588  0.60616  1.0000
  O   O45       1.0  0.7089900000000003  0.7741499999999998  0.58029  1.0000
  O   O46       1.0  0.7611200000000002  0.5882  0.86314  1.0000
  O   O47       1.0  0.12381000000000003  0.67418  0.7552400000000001  1.0000
  O   O48       1.0  0.4740000000000002  0.01512  0.69618  1.0000
  O   O49       1.0  0.52186  0.33475  0.22280000000000005  1.0000
  O   O50       1.0  0.47814000000000006  0.66524  0.7772  1.0000
  O   O51       1.0  0.44894  0.17419  0.255  1.0000
  O   O52       1.0  0.8416000000000001  0.57789  0.07768  1.0000
  O   O53       1.0  0.3516400000000001  0.9707799999999999  0.5931  1.0000
  O   O54       1.0  0.93655  0.2739  0.08071  1.0000
  O   O55       1.0  0.9097299999999999  0.14828  0.19908  1.0000
  O   O56       1.0  0.4979700000000002  0.9220999999999998  0.4223900000000001  1.0000
  O   O57       1.0  0.1692300000000001  0.8038599999999998  0.015049999999999997  1.0000
  O   O58       1.0  0.7095600000000001  0.08047999999999997  0.22593  1.0000
  O   O59       1.0  0.84338  0.05612  0.10436000000000002  1.0000
  O   O60       1.0  0.94528  0.90685  0.9705700000000002  1.0000
  O   O61       1.0  0.15839999999999999  0.42211  0.92232  1.0000
  O   O62       1.0  0.44148  0.8013099999999999  0.6484  1.0000
  O   O63       1.0  0.87829  0.74494  0.67413  1.0000
  O   O64       1.0  0.15662000000000004  0.94387  0.89564  1.0000
  O   O65       1.0  0.9837000000000006  0.5806099999999997  0.7262  1.0000
  O   O66       1.0  0.92083  0.42081999999999997  0.57497  1.0000
  O   O67       1.0  0.23887999999999998  0.4118  0.13686  1.0000
  O   O68       1.0  0.2904500000000001  0.91952  0.77407  1.0000
  O   O69       1.0  0.07917000000000012  0.5791799999999998  0.42503  1.0000
  O   O70       1.0  0.25842000000000004  0.3507499999999999  0.30066  1.0000
  O   O71       1.0  0.64836  0.029219999999999993  0.4069000000000001  1.0000
  O   O72       1.0  0.70343  0.24465  0.17409  1.0000
