data_image0
_chemical_formula_structural       Cd4H116C118N12O16
_chemical_formula_sum              "Cd4 H116 C118 N12 O16"
_cell_length_a       12.49401
_cell_length_b       12.49321
_cell_length_c       23.183600000000002
_cell_angle_alpha    80.71445999999999
_cell_angle_beta     80.7466
_cell_angle_gamma    61.23913

_symmetry_space_group_name_H-M    'P 1'
_symmetry_Int_Tables_number       1

loop_
  _symmetry_equiv_pos_as_xyz
  'x,y,z'

loop_
  _atom_site_type_symbol
  _atom_site_label
  _atom_site_symmetry_multiplicity
  _atom_site_fract_x
  _atom_site_fract_y
  _atom_site_fract_z
  _atom_site_occupancy
  Cd  Cd1       1.0  0.7717800000000001  0.63999  0.14708000000000002  1.0000
  Cd  Cd2       1.0  0.36026  0.22803  0.35289  1.0000
  Cd  Cd3       1.0  0.2282199999999999  0.36  0.85291  1.0000
  Cd  Cd4       1.0  0.6397400000000003  0.7719699999999998  0.6471  1.0000
  H   H1        1.0  0.53422  0.49128  0.29117  1.0000
  H   H2        1.0  0.6557600000000001  0.4759  0.32786  1.0000
  H   H3        1.0  0.32927000000000006  0.63126  0.31963  1.0000
  H   H4        1.0  0.17994000000000004  0.79729  0.38216  1.0000
  H   H5        1.0  0.25449000000000005  0.8991099999999999  0.4382300000000001  1.0000
  H   H6        1.0  0.6236200000000001  0.6741099999999999  0.36774  1.0000
  H   H7        1.0  0.5896800000000001  0.81377  0.4334100000000001  1.0000
  H   H8        1.0  0.45857000000000026  0.8536799999999999  0.48605  1.0000
  H   H9        1.0  0.47821  0.82809  0.14088000000000003  1.0000
  H   H10       1.0  0.32414000000000004  0.93853  0.0666  1.0000
  H   H11       1.0  0.6261500000000001  0.8235299999999999  0.9313500000000001  1.0000
  H   H12       1.0  0.7681999999999999  0.72556  0.01164  1.0000
  H   H13       1.0  0.41059000000000007  0.9915599999999999  0.9093500000000001  1.0000
  H   H14       1.0  0.28604  0.01594999999999995  0.9629100000000002  1.0000
  H   H15       1.0  0.30064000000000013  0.89208  0.8842  1.0000
  H   H16       1.0  0.44628  0.7778  0.9029800000000002  1.0000
  H   H17       1.0  0.2080500000000002  0.85715  0.9858100000000001  1.0000
  H   H18       1.0  0.3532900000000001  0.74186  0.0048000000000000004  1.0000
  H   H19       1.0  0.08641  0.80875  0.9303  1.0000
  H   H20       1.0  0.06838999999999999  0.6452800000000001  0.88803  1.0000
  H   H21       1.0  0.43413  0.40141000000000004  0.9036800000000003  1.0000
  H   H22       1.0  0.46669000000000005  0.5503299999999999  0.94816  1.0000
  H   H23       1.0  0.6089200000000001  0.85224  0.23698000000000005  1.0000
  H   H24       1.0  0.59509  0.04119  0.26744  1.0000
  H   H25       1.0  0.9457700000000002  0.9516099999999998  0.1675  1.0000
  H   H26       1.0  0.9421700000000003  0.7704299999999998  0.13903  1.0000
  H   H27       1.0  0.7307500000000001  0.20149999999999998  0.19556  1.0000
  H   H28       1.0  0.6866100000000002  0.17014  0.26917  1.0000
  H   H29       1.0  0.9532800000000002  0.08673999999999998  0.21342000000000003  1.0000
  H   H30       1.0  0.5086399999999999  0.46593999999999997  0.20881  1.0000
  H   H31       1.0  0.52403  0.34442  0.17209  1.0000
  H   H32       1.0  0.36861  0.67087  0.18032  1.0000
  H   H33       1.0  0.20258000000000004  0.82033  0.11772000000000002  1.0000
  H   H34       1.0  0.10065000000000006  0.7458199999999999  0.06167  1.0000
  H   H35       1.0  0.32573  0.37656999999999996  0.13226  1.0000
  H   H36       1.0  0.18599000000000004  0.41056  0.06657  1.0000
  H   H37       1.0  0.14579999999999999  0.54181  0.01394  1.0000
  H   H38       1.0  0.17200999999999994  0.52186  0.35902  1.0000
  H   H39       1.0  0.06158000000000006  0.6758499999999998  0.43327000000000004  1.0000
  H   H40       1.0  0.17654000000000003  0.37367  0.56857  1.0000
  H   H41       1.0  0.27451  0.23167  0.4883100000000001  1.0000
  H   H42       1.0  0.008510000000000014  0.5892099999999999  0.5904800000000001  1.0000
  H   H43       1.0  0.9841100000000005  0.71384  0.53691  1.0000
  H   H44       1.0  0.10789999999999997  0.6991600000000001  0.61571  1.0000
  H   H45       1.0  0.22223000000000004  0.55359  0.5969400000000001  1.0000
  H   H46       1.0  0.14267  0.7920699999999999  0.51415  1.0000
  H   H47       1.0  0.25795  0.6469  0.49513  1.0000
  H   H48       1.0  0.19109000000000007  0.9136  0.56971  1.0000
  H   H49       1.0  0.35462000000000005  0.93159  0.61195  1.0000
  H   H50       1.0  0.59855  0.56589  0.59623  1.0000
  H   H51       1.0  0.44956000000000007  0.53339  0.55178  1.0000
  H   H52       1.0  0.14769999999999997  0.39116  0.26299000000000006  1.0000
  H   H53       1.0  0.9587000000000001  0.40504  0.23257000000000003  1.0000
  H   H54       1.0  0.048339999999999994  0.054300000000000015  0.33266  1.0000
  H   H55       1.0  0.2295700000000001  0.057859999999999995  0.3610900000000001  1.0000
  H   H56       1.0  0.7984800000000001  0.26918  0.3045  1.0000
  H   H57       1.0  0.82972  0.31347  0.2309  1.0000
  H   H58       1.0  0.9133500000000001  0.04664999999999999  0.28667  1.0000
  H   H59       1.0  0.46578000000000014  0.50871  0.70883  1.0000
  H   H60       1.0  0.3442400000000002  0.5241  0.67213  1.0000
  H   H61       1.0  0.6707400000000001  0.36873  0.6803700000000001  1.0000
  H   H62       1.0  0.8200600000000002  0.20271000000000003  0.61784  1.0000
  H   H63       1.0  0.7455200000000002  0.10088999999999997  0.56176  1.0000
  H   H64       1.0  0.37639000000000017  0.32588  0.63226  1.0000
  H   H65       1.0  0.41033000000000003  0.18622000000000002  0.56659  1.0000
  H   H66       1.0  0.5414400000000003  0.14631000000000002  0.51395  1.0000
  H   H67       1.0  0.5218  0.1719  0.85912  1.0000
  H   H68       1.0  0.67587  0.06146000000000001  0.9333900000000002  1.0000
  H   H69       1.0  0.37385  0.17646000000000003  0.06865  1.0000
  H   H70       1.0  0.23180000000000014  0.27443999999999996  0.98836  1.0000
  H   H71       1.0  0.58941  0.008440000000000003  0.09065  1.0000
  H   H72       1.0  0.7139700000000001  0.98404  0.03709  1.0000
  H   H73       1.0  0.6993700000000003  0.10791999999999999  0.11579  1.0000
  H   H74       1.0  0.55373  0.22219  0.09702  1.0000
  H   H75       1.0  0.7919600000000001  0.14284  0.014190000000000003  1.0000
  H   H76       1.0  0.64672  0.25813  0.9952  1.0000
  H   H77       1.0  0.9135900000000001  0.19124  0.0697  1.0000
  H   H78       1.0  0.9316200000000002  0.3547099999999999  0.11197000000000003  1.0000
  H   H79       1.0  0.5658800000000003  0.59858  0.09632  1.0000
  H   H80       1.0  0.53332  0.44966  0.05184  1.0000
  H   H81       1.0  0.39109  0.14775  0.76302  1.0000
  H   H82       1.0  0.40492000000000006  0.95881  0.7325500000000001  1.0000
  H   H83       1.0  0.05424000000000001  0.04839  0.83249  1.0000
  H   H84       1.0  0.05784  0.22956000000000001  0.86097  1.0000
  H   H85       1.0  0.26926000000000017  0.7984899999999998  0.8044400000000003  1.0000
  H   H86       1.0  0.3133899999999999  0.82986  0.7308300000000001  1.0000
  H   H87       1.0  0.04672999999999996  0.91325  0.78658  1.0000
  H   H88       1.0  0.49136999999999986  0.53405  0.7911900000000002  1.0000
  H   H89       1.0  0.4759800000000001  0.65557  0.82791  1.0000
  H   H90       1.0  0.6314  0.32912  0.81967  1.0000
  H   H91       1.0  0.7974299999999999  0.17966999999999994  0.8822800000000001  1.0000
  H   H92       1.0  0.8993600000000002  0.25417  0.9383300000000001  1.0000
  H   H93       1.0  0.67428  0.62343  0.8677400000000001  1.0000
  H   H94       1.0  0.81402  0.58944  0.9334300000000002  1.0000
  H   H95       1.0  0.8542000000000001  0.4581799999999999  0.9860600000000002  1.0000
  H   H96       1.0  0.8280000000000001  0.4781399999999999  0.64098  1.0000
  H   H97       1.0  0.93843  0.32413999999999993  0.56673  1.0000
  H   H98       1.0  0.8234700000000003  0.62632  0.43143  1.0000
  H   H99       1.0  0.7255  0.7683199999999998  0.5116800000000001  1.0000
  H   H100      1.0  0.9915  0.41078  0.40951  1.0000
  H   H101      1.0  0.015900000000000008  0.28615  0.46309  1.0000
  H   H102      1.0  0.8921100000000001  0.30083  0.38428000000000007  1.0000
  H   H103      1.0  0.77778  0.4464  0.40306  1.0000
  H   H104      1.0  0.85734  0.20791999999999994  0.48585000000000006  1.0000
  H   H105      1.0  0.74205  0.35308999999999996  0.50486  1.0000
  H   H106      1.0  0.8089200000000001  0.08638999999999998  0.4302900000000001  1.0000
  H   H107      1.0  0.6453900000000001  0.06840000000000002  0.38804  1.0000
  H   H108      1.0  0.40144999999999986  0.4341  0.40377000000000013  1.0000
  H   H109      1.0  0.5504500000000001  0.46660999999999997  0.44822000000000006  1.0000
  H   H110      1.0  0.8522999999999998  0.6088400000000002  0.73701  1.0000
  H   H111      1.0  0.04130999999999997  0.59496  0.76743  1.0000
  H   H112      1.0  0.9516600000000002  0.9457  0.66733  1.0000
  H   H113      1.0  0.7704400000000002  0.9421299999999999  0.6389  1.0000
  H   H114      1.0  0.20153  0.73081  0.6955000000000001  1.0000
  H   H115      1.0  0.17029  0.68652  0.7691  1.0000
  H   H116      1.0  0.08666000000000003  0.9533400000000001  0.71333  1.0000
  C   C1        1.0  0.6282399999999999  0.59236  0.24693000000000004  1.0000
  C   C2        1.0  0.5781000000000002  0.54142  0.30322  1.0000
  C   C3        1.0  0.48592000000000013  0.6413899999999999  0.34032  1.0000
  C   C4        1.0  0.3603199999999999  0.67734  0.34393  1.0000
  C   C5        1.0  0.2773999999999999  0.7701899999999998  0.37905000000000005  1.0000
  C   C6        1.0  0.31859  0.82734  0.41058  1.0000
  C   C7        1.0  0.44412  0.7931  0.40693  1.0000
  C   C8        1.0  0.5261300000000002  0.7005599999999998  0.3715300000000001  1.0000
  C   C9        1.0  0.4893  0.85751  0.43910000000000005  1.0000
  C   C10       1.0  0.43866000000000005  0.99182  0.41401  1.0000
  C   C11       1.0  0.50634  0.83247  0.09395  1.0000
  C   C12       1.0  0.4217299999999999  0.8914099999999999  0.0523  1.0000
  C   C13       1.0  0.4624100000000001  0.8889899999999998  0.9923500000000002  1.0000
  C   C14       1.0  0.58942  0.82754  0.97732  1.0000
  C   C15       1.0  0.6688000000000003  0.7725799999999999  0.02122  1.0000
  C   C16       1.0  0.3751400000000001  0.94518  0.94553  1.0000
  C   C17       1.0  0.35732000000000025  0.84782  0.9210600000000001  1.0000
  C   C18       1.0  0.2966299999999999  0.7865400000000002  0.96785  1.0000
  C   C19       1.0  0.27838000000000007  0.6929899999999999  0.94334  1.0000
  C   C20       1.0  0.16584999999999994  0.71932  0.92513  1.0000
  C   C21       1.0  0.15491999999999995  0.62975  0.9013600000000002  1.0000
  C   C22       1.0  0.35869000000000006  0.49199000000000004  0.91105  1.0000
  C   C23       1.0  0.3763500000000001  0.5758199999999998  0.9358  1.0000
  C   C24       1.0  0.68088  0.8787400000000001  0.22182000000000004  1.0000
  C   C25       1.0  0.6741  0.9838399999999999  0.23909  1.0000
  C   C26       1.0  0.7683700000000001  0.015399999999999983  0.21915000000000007  1.0000
  C   C27       1.0  0.86782  0.93494  0.18355  1.0000
  C   C28       1.0  0.86734  0.83242  0.16763  1.0000
  C   C29       1.0  0.7604900000000002  0.13261  0.23385  1.0000
  C   C30       1.0  0.40773000000000004  0.37176999999999993  0.25304  1.0000
  C   C31       1.0  0.45855000000000007  0.42202999999999996  0.19675  1.0000
  C   C32       1.0  0.3585100000000002  0.51424  0.15963000000000002  1.0000
  C   C33       1.0  0.32252999999999993  0.63988  0.15599000000000002  1.0000
  C   C34       1.0  0.22965999999999995  0.7228400000000001  0.12085000000000001  1.0000
  C   C35       1.0  0.17245999999999997  0.6817  0.08932  1.0000
  C   C36       1.0  0.20668  0.55612  0.09303  1.0000
  C   C37       1.0  0.29928000000000005  0.47407999999999995  0.12844000000000003  1.0000
  C   C38       1.0  0.14217  0.51097  0.06089  1.0000
  C   C39       1.0  0.007929999999999991  0.56149  0.08603  1.0000
  C   C40       1.0  0.16763000000000006  0.49365  0.4059400000000001  1.0000
  C   C41       1.0  0.10869000000000012  0.5782099999999999  0.44757  1.0000
  C   C42       1.0  0.11107999999999998  0.53749  0.50753  1.0000
  C   C43       1.0  0.17252999999999996  0.41044  0.52258  1.0000
  C   C44       1.0  0.22750000000000004  0.3311  0.47870000000000007  1.0000
  C   C45       1.0  0.05487000000000005  0.6247199999999999  0.55433  1.0000
  C   C46       1.0  0.15217000000000008  0.6425799999999999  0.57885  1.0000
  C   C47       1.0  0.21332  0.70345  0.5321  1.0000
  C   C48       1.0  0.30687999999999993  0.7216600000000001  0.55663  1.0000
  C   C49       1.0  0.28054  0.83418  0.57485  1.0000
  C   C50       1.0  0.3701600000000001  0.8450699999999999  0.59861  1.0000
  C   C51       1.0  0.50796  0.6413199999999999  0.58889  1.0000
  C   C52       1.0  0.42406000000000005  0.62372  0.56415  1.0000
  C   C53       1.0  0.12120999999999997  0.31919  0.2782  1.0000
  C   C54       1.0  0.016059999999999953  0.326  0.26096  1.0000
  C   C55       1.0  0.9845100000000001  0.23173  0.28095  1.0000
  C   C56       1.0  0.06500000000000002  0.13227  0.31658  1.0000
  C   C57       1.0  0.16756  0.13271  0.33247  1.0000
  C   C58       1.0  0.86734  0.23954999999999999  0.26623  1.0000
  C   C59       1.0  0.3717700000000002  0.40763000000000005  0.75307  1.0000
  C   C60       1.0  0.42191000000000023  0.45856999999999987  0.69678  1.0000
  C   C61       1.0  0.5140900000000002  0.35860000000000003  0.65967  1.0000
  C   C62       1.0  0.6396800000000005  0.3226499999999999  0.6560700000000002  1.0000
  C   C63       1.0  0.7226100000000001  0.2298  0.6209400000000002  1.0000
  C   C64       1.0  0.6814200000000002  0.17265999999999995  0.5894200000000002  1.0000
  C   C65       1.0  0.5558899999999999  0.20689  0.5930700000000001  1.0000
  C   C66       1.0  0.47388  0.29944000000000004  0.62847  1.0000
  C   C67       1.0  0.5107100000000001  0.14248  0.56089  1.0000
  C   C68       1.0  0.56135  0.00816999999999998  0.5859900000000001  1.0000
  C   C69       1.0  0.49366999999999994  0.16752  0.90605  1.0000
  C   C70       1.0  0.5782700000000002  0.10858  0.9477  1.0000
  C   C71       1.0  0.5376  0.111  0.0076500000000000005  1.0000
  C   C72       1.0  0.41059000000000007  0.17245  0.02267  1.0000
  C   C73       1.0  0.33120999999999995  0.22742  0.9787800000000001  1.0000
  C   C74       1.0  0.62487  0.05481  0.05447  1.0000
  C   C75       1.0  0.6426900000000002  0.15218  0.07894  1.0000
  C   C76       1.0  0.7033700000000002  0.21345  0.03215  1.0000
  C   C77       1.0  0.72163  0.307  0.05666  1.0000
  C   C78       1.0  0.8341500000000002  0.28067  0.07487  1.0000
  C   C79       1.0  0.84509  0.37024  0.09863  1.0000
  C   C80       1.0  0.6413100000000003  0.508  0.08895  1.0000
  C   C81       1.0  0.6236600000000001  0.42417999999999995  0.0642  1.0000
  C   C82       1.0  0.3191300000000001  0.12124999999999996  0.7781800000000001  1.0000
  C   C83       1.0  0.32589999999999997  0.016149999999999973  0.7609100000000001  1.0000
  C   C84       1.0  0.2316300000000001  0.9845999999999999  0.78085  1.0000
  C   C85       1.0  0.13219000000000006  0.06505999999999999  0.81645  1.0000
  C   C86       1.0  0.13266000000000003  0.16757999999999995  0.83237  1.0000
  C   C87       1.0  0.23952  0.8673899999999999  0.7661500000000001  1.0000
  C   C88       1.0  0.5922800000000001  0.6282300000000001  0.74696  1.0000
  C   C89       1.0  0.5414600000000003  0.5779599999999998  0.80325  1.0000
  C   C90       1.0  0.6415000000000002  0.48574999999999996  0.84037  1.0000
  C   C91       1.0  0.6774800000000004  0.36011999999999994  0.8440000000000001  1.0000
  C   C92       1.0  0.77035  0.27715000000000006  0.87915  1.0000
  C   C93       1.0  0.8275400000000002  0.3182999999999999  0.91068  1.0000
  C   C94       1.0  0.7933300000000002  0.44387  0.90697  1.0000
  C   C95       1.0  0.70073  0.52591  0.8715500000000002  1.0000
  C   C96       1.0  0.8578399999999999  0.48903  0.93911  1.0000
  C   C97       1.0  0.9920799999999999  0.4385  0.91397  1.0000
  C   C98       1.0  0.83238  0.50634  0.59405  1.0000
  C   C99       1.0  0.89132  0.42177999999999993  0.55242  1.0000
  C   C100      1.0  0.8889200000000003  0.46250999999999987  0.4924700000000001  1.0000
  C   C101      1.0  0.8274800000000001  0.5895599999999999  0.4774100000000001  1.0000
  C   C102      1.0  0.7725100000000003  0.66889  0.5213  1.0000
  C   C103      1.0  0.9451300000000002  0.37527  0.44567  1.0000
  C   C104      1.0  0.8478399999999999  0.35741  0.42114  1.0000
  C   C105      1.0  0.78669  0.2965499999999999  0.4679  1.0000
  C   C106      1.0  0.6931200000000001  0.2783300000000001  0.44337  1.0000
  C   C107      1.0  0.7194700000000002  0.16580999999999999  0.4251500000000001  1.0000
  C   C108      1.0  0.62985  0.15492  0.40139  1.0000
  C   C109      1.0  0.49205000000000015  0.35867000000000004  0.41111  1.0000
  C   C110      1.0  0.57594  0.37627999999999995  0.43585  1.0000
  C   C111      1.0  0.8788000000000005  0.68081  0.7218  1.0000
  C   C112      1.0  0.9839400000000005  0.67399  0.73904  1.0000
  C   C113      1.0  0.015500000000000031  0.7682699999999999  0.71905  1.0000
  C   C114      1.0  0.9350100000000003  0.86773  0.68342  1.0000
  C   C115      1.0  0.83245  0.86729  0.66753  1.0000
  C   C116      1.0  0.13267  0.76044  0.73377  1.0000
  C   C117      1.0  0.8813100000000003  0.1187  0.25004  1.0000
  C   C118      1.0  0.11870000000000012  0.8812899999999999  0.74996  1.0000
  N   N1        1.0  0.62827  0.7739  0.07881  1.0000
  N   N2        1.0  0.24994000000000002  0.51727  0.8942700000000001  1.0000
  N   N3        1.0  0.7747  0.8046599999999999  0.18568  1.0000
  N   N4        1.0  0.22621000000000002  0.37167  0.42111  1.0000
  N   N5        1.0  0.48265000000000025  0.75008  0.60568  1.0000
  N   N6        1.0  0.19534000000000007  0.22533999999999998  0.31436  1.0000
  N   N7        1.0  0.37174000000000007  0.22609999999999994  0.92119  1.0000
  N   N8        1.0  0.75007  0.48272  0.10573  1.0000
  N   N9        1.0  0.22531000000000004  0.19532999999999998  0.81432  1.0000
  N   N10       1.0  0.7738  0.62832  0.57889  1.0000
  N   N11       1.0  0.5173500000000001  0.24991  0.39432000000000006  1.0000
  N   N12       1.0  0.8046600000000006  0.77465  0.68564  1.0000
  O   O1        1.0  0.74478  0.55369  0.24022000000000004  1.0000
  O   O2        1.0  0.5551200000000002  0.66717  0.21045  1.0000
  O   O3        1.0  0.49833  0.016149999999999994  0.36811  1.0000
  O   O4        1.0  0.33820000000000006  0.07108  0.43749  1.0000
  O   O5        1.0  0.44651000000000013  0.2552  0.25978  1.0000
  O   O6        1.0  0.33286000000000004  0.44486  0.28948  1.0000
  O   O7        1.0  0.9836900000000001  0.50165  0.13188  1.0000
  O   O8        1.0  0.9286400000000002  0.66213  0.0626  1.0000
  O   O9        1.0  0.25523  0.4463  0.75978  1.0000
  O   O10       1.0  0.44489  0.33283  0.78954  1.0000
  O   O11       1.0  0.50168  0.9838399999999999  0.63189  1.0000
  O   O12       1.0  0.6618  0.92891  0.56251  1.0000
  O   O13       1.0  0.5535000000000001  0.7447899999999997  0.74022  1.0000
  O   O14       1.0  0.6671500000000002  0.55513  0.7105200000000002  1.0000
  O   O15       1.0  0.016319999999999998  0.49835  0.8681200000000001  1.0000
  O   O16       1.0  0.07136999999999999  0.33786  0.9374  1.0000
