data_image0
_chemical_formula_structural       Zn12H86C174N8O60
_chemical_formula_sum              "Zn12 H86 C174 N8 O60"
_cell_length_a       13.93802
_cell_length_b       13.93726
_cell_length_c       26.928510000000003
_cell_angle_alpha    82.94076
_cell_angle_beta     82.95192999999999
_cell_angle_gamma    87.05024000000002

_symmetry_space_group_name_H-M    'P 1'
_symmetry_Int_Tables_number       1

loop_
  _symmetry_equiv_pos_as_xyz
  'x,y,z'

loop_
  _atom_site_type_symbol
  _atom_site_label
  _atom_site_symmetry_multiplicity
  _atom_site_fract_x
  _atom_site_fract_y
  _atom_site_fract_z
  _atom_site_occupancy
  Zn  Zn1       1.0  0.02583000000000001  0.9966200000000001  0.94616  1.0000
  Zn  Zn2       1.0  0.05039000000000001  0.21713999999999997  0.75867  1.0000
  Zn  Zn3       1.0  0.13014000000000012  0.44986  0.73865  1.0000
  Zn  Zn4       1.0  0.0033900000000000124  0.97415  0.55384  1.0000
  Zn  Zn5       1.0  0.7828900000000003  0.9495699999999997  0.7413200000000002  1.0000
  Zn  Zn6       1.0  0.5501199999999999  0.8698599999999999  0.7613500000000002  1.0000
  Zn  Zn7       1.0  0.9741700000000002  0.003380000000000001  0.05384  1.0000
  Zn  Zn8       1.0  0.9496100000000001  0.78287  0.24133000000000004  1.0000
  Zn  Zn9       1.0  0.8698600000000002  0.55015  0.26135  1.0000
  Zn  Zn10      1.0  0.9966100000000002  0.02585999999999998  0.4461600000000001  1.0000
  Zn  Zn11      1.0  0.21710000000000004  0.050440000000000006  0.25868  1.0000
  Zn  Zn12      1.0  0.44987  0.13015000000000004  0.23865  1.0000
  H   H1        1.0  0.4142  0.8453  0.12248000000000003  1.0000
  H   H2        1.0  0.24419000000000005  0.8913999999999996  0.10530000000000003  1.0000
  H   H3        1.0  0.33021  0.9189399999999998  0.9449  1.0000
  H   H4        1.0  0.50971  0.9197  0.88202  1.0000
  H   H5        1.0  0.8095  0.86828  0.9063500000000002  1.0000
  H   H6        1.0  0.7629200000000003  0.83463  0.99966  1.0000
  H   H7        1.0  0.70391  0.9365299999999998  0.07618  1.0000
  H   H8        1.0  0.7791600000000002  0.8827199999999998  0.1546  1.0000
  H   H9        1.0  0.6209  0.6211  0.17666  1.0000
  H   H10       1.0  0.5328100000000001  0.6818  0.10205000000000003  1.0000
  H   H11       1.0  0.8158900000000002  0.2666  0.97262  1.0000
  H   H12       1.0  0.89354  0.25824  0.8845800000000001  1.0000
  H   H13       1.0  0.98285  0.5521799999999998  0.8723000000000002  1.0000
  H   H14       1.0  0.80406  0.54893  0.10389000000000002  1.0000
  H   H15       1.0  0.8636800000000002  0.71707  0.09329000000000003  1.0000
  H   H16       1.0  0.9640100000000004  0.7  0.93701  1.0000
  H   H17       1.0  0.8820200000000002  0.2529199999999999  0.05353000000000001  1.0000
  H   H18       1.0  0.7867400000000002  0.14148  0.11751  1.0000
  H   H19       1.0  0.56497  0.36424  0.13795  1.0000
  H   H20       1.0  0.6599500000000003  0.47805  0.07283  1.0000
  H   H21       1.0  0.9947200000000002  0.12856999999999996  0.8619500000000002  1.0000
  H   H22       1.0  0.15469  0.58588  0.3775  1.0000
  H   H23       1.0  0.10859999999999999  0.75588  0.39467  1.0000
  H   H24       1.0  0.08106000000000002  0.6697999999999998  0.55507  1.0000
  H   H25       1.0  0.08034999999999998  0.49032999999999993  0.6179600000000001  1.0000
  H   H26       1.0  0.1317200000000001  0.19049999999999997  0.59366  1.0000
  H   H27       1.0  0.16537000000000007  0.23708  0.50035  1.0000
  H   H28       1.0  0.06349000000000005  0.29607  0.42381  1.0000
  H   H29       1.0  0.11734999999999998  0.22081  0.34541  1.0000
  H   H30       1.0  0.37891000000000014  0.3791  0.32337  1.0000
  H   H31       1.0  0.31819  0.4672199999999999  0.3979600000000001  1.0000
  H   H32       1.0  0.7334100000000002  0.18411  0.52738  1.0000
  H   H33       1.0  0.7417500000000001  0.10648999999999999  0.61543  1.0000
  H   H34       1.0  0.44785  0.017169999999999994  0.6277  1.0000
  H   H35       1.0  0.4510200000000001  0.19596  0.3960900000000001  1.0000
  H   H36       1.0  0.2829  0.13633  0.40671  1.0000
  H   H37       1.0  0.30004  0.03599000000000001  0.563  1.0000
  H   H38       1.0  0.7470300000000002  0.11795  0.44647  1.0000
  H   H39       1.0  0.85848  0.2132499999999999  0.3825  1.0000
  H   H40       1.0  0.6358000000000001  0.43508  0.36204000000000003  1.0000
  H   H41       1.0  0.5219600000000002  0.3401  0.42715  1.0000
  H   H42       1.0  0.87152  0.00533000000000001  0.63804  1.0000
  H   H43       1.0  0.5858  0.1547  0.87753  1.0000
  H   H44       1.0  0.7558100000000002  0.10861000000000004  0.8947  1.0000
  H   H45       1.0  0.6697800000000002  0.08106  0.0551  1.0000
  H   H46       1.0  0.49028  0.08030999999999999  0.11798000000000003  1.0000
  H   H47       1.0  0.19049  0.13172  0.09365  1.0000
  H   H48       1.0  0.23708  0.16536999999999996  0.00034  1.0000
  H   H49       1.0  0.29607999999999995  0.06347999999999995  0.9238300000000002  1.0000
  H   H50       1.0  0.22083  0.11728999999999998  0.84541  1.0000
  H   H51       1.0  0.3790900000000002  0.37891  0.82334  1.0000
  H   H52       1.0  0.46719000000000005  0.31820999999999994  0.8979600000000002  1.0000
  H   H53       1.0  0.1841  0.73341  0.027390000000000008  1.0000
  H   H54       1.0  0.10645000000000003  0.7417699999999996  0.11543  1.0000
  H   H55       1.0  0.017150000000000006  0.44782999999999995  0.1277  1.0000
  H   H56       1.0  0.19594  0.45108000000000004  0.89611  1.0000
  H   H57       1.0  0.13631999999999997  0.28294  0.9067100000000001  1.0000
  H   H58       1.0  0.03599000000000002  0.30000999999999994  0.063  1.0000
  H   H59       1.0  0.11798000000000002  0.74708  0.94647  1.0000
  H   H60       1.0  0.21325999999999998  0.8585299999999999  0.8824900000000001  1.0000
  H   H61       1.0  0.43503000000000014  0.6357699999999998  0.86206  1.0000
  H   H62       1.0  0.34004999999999996  0.52196  0.9271700000000003  1.0000
  H   H63       1.0  0.005270000000000002  0.87143  0.13806  1.0000
  H   H64       1.0  0.8453100000000002  0.41413  0.6225  1.0000
  H   H65       1.0  0.8913899999999999  0.24412999999999999  0.6053400000000002  1.0000
  H   H66       1.0  0.9189400000000002  0.33019999999999994  0.44493  1.0000
  H   H67       1.0  0.9196500000000002  0.50968  0.3820500000000001  1.0000
  H   H68       1.0  0.8682800000000003  0.80951  0.40634  1.0000
  H   H69       1.0  0.83463  0.76293  0.49965  1.0000
  H   H70       1.0  0.9365  0.7039299999999997  0.5761900000000001  1.0000
  H   H71       1.0  0.8826500000000003  0.7791999999999999  0.6545900000000002  1.0000
  H   H72       1.0  0.62108  0.6209099999999999  0.67664  1.0000
  H   H73       1.0  0.6818  0.53279  0.60204  1.0000
  H   H74       1.0  0.2665900000000001  0.81589  0.47262  1.0000
  H   H75       1.0  0.2582500000000001  0.8935199999999999  0.38457  1.0000
  H   H76       1.0  0.55214  0.9828299999999999  0.3723  1.0000
  H   H77       1.0  0.5489800000000002  0.80405  0.6039100000000002  1.0000
  H   H78       1.0  0.7170900000000001  0.8636799999999998  0.5933  1.0000
  H   H79       1.0  0.6999600000000001  0.96401  0.43701  1.0000
  H   H80       1.0  0.25297000000000003  0.88206  0.55353  1.0000
  H   H81       1.0  0.14150999999999997  0.7867599999999999  0.61751  1.0000
  H   H82       1.0  0.36419000000000007  0.56493  0.6379600000000002  1.0000
  H   H83       1.0  0.47803999999999996  0.6599  0.57286  1.0000
  H   H84       1.0  0.12848000000000007  0.99468  0.36196  1.0000
  H   H85       1.0  0.9392200000000002  0.060719999999999955  0.7500300000000002  1.0000
  H   H86       1.0  0.06078000000000001  0.9392899999999997  0.24997000000000005  1.0000
  C   C1        1.0  0.4666200000000001  0.8590699999999999  0.04243  1.0000
  C   C2        1.0  0.39579  0.8603799999999998  0.08414  1.0000
  C   C3        1.0  0.30143000000000003  0.88573  0.07437  1.0000
  C   C4        1.0  0.2780200000000001  0.9077  0.024610000000000007  1.0000
  C   C5        1.0  0.34976000000000024  0.9038  0.98305  1.0000
  C   C6        1.0  0.44502  0.88207  0.99187  1.0000
  C   C7        1.0  0.5368400000000002  0.88166  0.95979  1.0000
  C   C8        1.0  0.5632300000000002  0.9003099999999998  0.90819  1.0000
  C   C9        1.0  0.66237  0.89426  0.88947  1.0000
  C   C10       1.0  0.73378  0.87053  0.92209  1.0000
  C   C11       1.0  0.7085000000000002  0.8525299999999999  0.9741  1.0000
  C   C12       1.0  0.6101700000000002  0.8586  0.99222  1.0000
  C   C13       1.0  0.6134999999999999  0.81231  0.08522  1.0000
  C   C14       1.0  0.6838600000000002  0.8689699999999998  0.09875  1.0000
  C   C15       1.0  0.72733  0.838  0.14207  1.0000
  C   C16       1.0  0.7056100000000002  0.74805  0.16941  1.0000
  C   C17       1.0  0.6356300000000005  0.69117  0.15515  1.0000
  C   C18       1.0  0.5875700000000003  0.72423  0.11375  1.0000
  C   C19       1.0  0.17625000000000005  0.93949  0.01589  1.0000
  C   C20       1.0  0.6909900000000003  0.9154699999999998  0.83412  1.0000
  C   C21       1.0  0.76354  0.71003  0.21137000000000006  1.0000
  C   C22       1.0  0.8612200000000001  0.41375000000000006  0.97256  1.0000
  C   C23       1.0  0.8531600000000001  0.32795999999999986  0.9514200000000003  1.0000
  C   C24       1.0  0.8955300000000002  0.32414  0.9021500000000002  1.0000
  C   C25       1.0  0.9437800000000004  0.40359999999999996  0.87436  1.0000
  C   C26       1.0  0.9469700000000001  0.4913499999999999  0.8950700000000003  1.0000
  C   C27       1.0  0.90561  0.49651999999999996  0.94442  1.0000
  C   C28       1.0  0.8981800000000002  0.57134  0.9779300000000002  1.0000
  C   C29       1.0  0.8504800000000002  0.53091  0.025100000000000004  1.0000
  C   C30       1.0  0.8374800000000001  0.58127  0.06748  1.0000
  C   C31       1.0  0.8712200000000002  0.67498  0.06155  1.0000
  C   C32       1.0  0.9159  0.71749  0.01489  1.0000
  C   C33       1.0  0.9294000000000001  0.6655199999999998  0.97269  1.0000
  C   C34       1.0  0.77613  0.3723199999999998  0.05918000000000002  1.0000
  C   C35       1.0  0.8124700000000002  0.27759  0.07144  1.0000
  C   C36       1.0  0.7590400000000003  0.21493  0.10743  1.0000
  C   C37       1.0  0.6694200000000002  0.24599999999999989  0.13106  1.0000
  C   C38       1.0  0.6346100000000002  0.34157999999999994  0.11922  1.0000
  C   C39       1.0  0.6875800000000002  0.405  0.08351  1.0000
  C   C40       1.0  0.99841  0.39073  0.82383  1.0000
  C   C41       1.0  0.9476400000000003  0.81995  0.00977  1.0000
  C   C42       1.0  0.6081000000000002  0.17523999999999992  0.16619000000000006  1.0000
  C   C43       1.0  0.039540000000000006  0.07124  0.84443  1.0000
  C   C44       1.0  0.14094000000000007  0.5334099999999998  0.4575400000000001  1.0000
  C   C45       1.0  0.1396200000000001  0.60427  0.41584  1.0000
  C   C46       1.0  0.11426000000000003  0.6986400000000001  0.4256  1.0000
  C   C47       1.0  0.09230000000000006  0.7220299999999998  0.47536  1.0000
  C   C48       1.0  0.09620000000000001  0.65027  0.51693  1.0000
  C   C49       1.0  0.11794  0.55501  0.50811  1.0000
  C   C50       1.0  0.11835000000000004  0.46318  0.5402  1.0000
  C   C51       1.0  0.09972999999999999  0.43679  0.5918  1.0000
  C   C52       1.0  0.10578999999999998  0.33764999999999995  0.6105200000000002  1.0000
  C   C53       1.0  0.12949  0.26623  0.57791  1.0000
  C   C54       1.0  0.14746000000000006  0.2914999999999998  0.52591  1.0000
  C   C55       1.0  0.14140000000000003  0.3898499999999999  0.50777  1.0000
  C   C56       1.0  0.18770000000000006  0.3865  0.41478  1.0000
  C   C57       1.0  0.13105  0.31614000000000003  0.40125  1.0000
  C   C58       1.0  0.16204  0.27267  0.35794  1.0000
  C   C59       1.0  0.25198  0.29439  0.3306  1.0000
  C   C60       1.0  0.30885  0.36438  0.34487  1.0000
  C   C61       1.0  0.27577000000000007  0.4124499999999999  0.3862500000000001  1.0000
  C   C62       1.0  0.06051999999999999  0.82381  0.48409  1.0000
  C   C63       1.0  0.08455  0.30901  0.66588  1.0000
  C   C64       1.0  0.28998000000000007  0.23651999999999998  0.28862000000000004  1.0000
  C   C65       1.0  0.5862600000000002  0.13878999999999994  0.52744  1.0000
  C   C66       1.0  0.6720400000000002  0.14686  0.5485800000000001  1.0000
  C   C67       1.0  0.67586  0.10449999999999998  0.59786  1.0000
  C   C68       1.0  0.5964100000000002  0.056239999999999984  0.62565  1.0000
  C   C69       1.0  0.5086600000000002  0.05303999999999999  0.60493  1.0000
  C   C70       1.0  0.5035  0.0944  0.55558  1.0000
  C   C71       1.0  0.4286800000000001  0.10183  0.52207  1.0000
  C   C72       1.0  0.46908000000000005  0.14953000000000002  0.47489  1.0000
  C   C73       1.0  0.41869999999999996  0.16252999999999995  0.4325100000000001  1.0000
  C   C74       1.0  0.3250100000000001  0.12879  0.43844  1.0000
  C   C75       1.0  0.28252000000000005  0.08409999999999998  0.48511  1.0000
  C   C76       1.0  0.33451  0.07059999999999998  0.52731  1.0000
  C   C77       1.0  0.62767  0.22389  0.44081  1.0000
  C   C78       1.0  0.7223700000000002  0.18751  0.4285600000000001  1.0000
  C   C79       1.0  0.78505  0.24095  0.39258  1.0000
  C   C80       1.0  0.7540000000000001  0.33059  0.36895  1.0000
  C   C81       1.0  0.6584400000000002  0.36541999999999997  0.38077000000000005  1.0000
  C   C82       1.0  0.5950100000000001  0.3124599999999999  0.41647  1.0000
  C   C83       1.0  0.60928  0.0015800000000000115  0.67617  1.0000
  C   C84       1.0  0.18005999999999997  0.052359999999999976  0.4902400000000001  1.0000
  C   C85       1.0  0.82477  0.39191  0.33381  1.0000
  C   C86       1.0  0.9287999999999998  0.96044  0.6555700000000002  1.0000
  C   C87       1.0  0.5333800000000001  0.1409399999999999  0.9575700000000003  1.0000
  C   C88       1.0  0.6042099999999999  0.13961999999999997  0.91586  1.0000
  C   C89       1.0  0.6985700000000002  0.11428  0.9256300000000001  1.0000
  C   C90       1.0  0.7219800000000001  0.09231000000000002  0.97539  1.0000
  C   C91       1.0  0.65023  0.0962  0.01695  1.0000
  C   C92       1.0  0.5549800000000001  0.11794  0.00814  1.0000
  C   C93       1.0  0.46315  0.11835  0.04022  1.0000
  C   C94       1.0  0.4367600000000001  0.0997  0.09181  1.0000
  C   C95       1.0  0.33763000000000004  0.10574999999999998  0.11053000000000003  1.0000
  C   C96       1.0  0.26622  0.12948  0.07791000000000002  1.0000
  C   C97       1.0  0.29149  0.14747  0.02591  1.0000
  C   C98       1.0  0.3898300000000001  0.14141  0.007780000000000001  1.0000
  C   C99       1.0  0.38649  0.18769  0.9147900000000001  1.0000
  C   C100      1.0  0.31614000000000003  0.13104  0.90126  1.0000
  C   C101      1.0  0.27267  0.16199999999999992  0.8579300000000002  1.0000
  C   C102      1.0  0.2943800000000001  0.25196  0.83059  1.0000
  C   C103      1.0  0.3643699999999999  0.3088399999999999  0.8448500000000002  1.0000
  C   C104      1.0  0.41242999999999996  0.27578  0.88625  1.0000
  C   C105      1.0  0.8237500000000001  0.060520000000000004  0.98412  1.0000
  C   C106      1.0  0.30901  0.08454  0.16588  1.0000
  C   C107      1.0  0.23645000000000002  0.28997999999999996  0.7886300000000003  1.0000
  C   C108      1.0  0.13877  0.58626  0.02745  1.0000
  C   C109      1.0  0.14684000000000003  0.67205  0.04858  1.0000
  C   C110      1.0  0.10447  0.67587  0.09785000000000003  1.0000
  C   C111      1.0  0.05620999999999998  0.59641  0.12564  1.0000
  C   C112      1.0  0.05302000000000002  0.50865  0.10493  1.0000
  C   C113      1.0  0.09439  0.50349  0.055580000000000004  1.0000
  C   C114      1.0  0.10182000000000002  0.42867  0.02207  1.0000
  C   C115      1.0  0.1495100000000001  0.4691  0.97491  1.0000
  C   C116      1.0  0.16251000000000002  0.4187299999999999  0.9325200000000002  1.0000
  C   C117      1.0  0.12878  0.32503  0.93845  1.0000
  C   C118      1.0  0.08409999999999998  0.28252000000000005  0.98511  1.0000
  C   C119      1.0  0.07059  0.33449  0.027310000000000004  1.0000
  C   C120      1.0  0.22387  0.62769  0.94082  1.0000
  C   C121      1.0  0.1875200000000001  0.72241  0.92856  1.0000
  C   C122      1.0  0.24096  0.78508  0.89258  1.0000
  C   C123      1.0  0.33058000000000004  0.75401  0.86895  1.0000
  C   C124      1.0  0.36539  0.65843  0.88078  1.0000
  C   C125      1.0  0.3124200000000002  0.59501  0.91649  1.0000
  C   C126      1.0  0.001579999999999998  0.60928  0.17617000000000002  1.0000
  C   C127      1.0  0.05235000000000003  0.18005999999999997  0.99024  1.0000
  C   C128      1.0  0.3918899999999999  0.8247700000000002  0.83381  1.0000
  C   C129      1.0  0.96046  0.92877  0.15557000000000007  1.0000
  C   C130      1.0  0.8590500000000002  0.46659  0.54246  1.0000
  C   C131      1.0  0.8603800000000001  0.39574  0.58417  1.0000
  C   C132      1.0  0.88573  0.30136999999999997  0.5744000000000001  1.0000
  C   C133      1.0  0.9077000000000002  0.27796999999999994  0.52464  1.0000
  C   C134      1.0  0.9037900000000001  0.34974  0.48308000000000006  1.0000
  C   C135      1.0  0.8820500000000002  0.44499999999999995  0.49189  1.0000
  C   C136      1.0  0.88165  0.5368299999999999  0.4598100000000001  1.0000
  C   C137      1.0  0.9002700000000002  0.56321  0.40821000000000013  1.0000
  C   C138      1.0  0.8942099999999998  0.66236  0.3894800000000001  1.0000
  C   C139      1.0  0.87051  0.7337699999999999  0.42209000000000013  1.0000
  C   C140      1.0  0.8525300000000001  0.7085099999999996  0.47410000000000013  1.0000
  C   C141      1.0  0.8586000000000003  0.61016  0.49223  1.0000
  C   C142      1.0  0.8123000000000001  0.61351  0.58522  1.0000
  C   C143      1.0  0.8689400000000003  0.6838699999999999  0.59875  1.0000
  C   C144      1.0  0.8379600000000003  0.72734  0.64207  1.0000
  C   C145      1.0  0.74801  0.7056199999999998  0.6694  1.0000
  C   C146      1.0  0.6911500000000005  0.63562  0.65514  1.0000
  C   C147      1.0  0.7242200000000002  0.58755  0.6137500000000001  1.0000
  C   C148      1.0  0.9394800000000001  0.1762  0.51591  1.0000
  C   C149      1.0  0.9154400000000003  0.69099  0.33413  1.0000
  C   C150      1.0  0.71002  0.76349  0.71139  1.0000
  C   C151      1.0  0.41374  0.8612199999999998  0.4725700000000001  1.0000
  C   C152      1.0  0.32795  0.85315  0.45143  1.0000
  C   C153      1.0  0.3241300000000001  0.89551  0.4021500000000001  1.0000
  C   C154      1.0  0.4035900000000001  0.94377  0.37436000000000014  1.0000
  C   C155      1.0  0.49132999999999993  0.94696  0.39507000000000003  1.0000
  C   C156      1.0  0.4965  0.90561  0.44443  1.0000
  C   C157      1.0  0.57132  0.89817  0.47794  1.0000
  C   C158      1.0  0.5309200000000002  0.85048  0.52511  1.0000
  C   C159      1.0  0.5812900000000001  0.83748  0.5675  1.0000
  C   C160      1.0  0.6749900000000001  0.87122  0.56156  1.0000
  C   C161      1.0  0.7174800000000002  0.9159  0.51489  1.0000
  C   C162      1.0  0.66549  0.92941  0.47269  1.0000
  C   C163      1.0  0.37233  0.77612  0.55919  1.0000
  C   C164      1.0  0.2776200000000001  0.81249  0.57144  1.0000
  C   C165      1.0  0.21495000000000003  0.7590599999999998  0.60742  1.0000
  C   C166      1.0  0.24598999999999996  0.66942  0.6310500000000001  1.0000
  C   C167      1.0  0.3415599999999999  0.6345799999999999  0.6192400000000001  1.0000
  C   C168      1.0  0.4049900000000002  0.68755  0.5835300000000001  1.0000
  C   C169      1.0  0.3907200000000001  0.99842  0.32383000000000006  1.0000
  C   C170      1.0  0.81994  0.9476499999999998  0.50977  1.0000
  C   C171      1.0  0.17522  0.6081  0.66619  1.0000
  C   C172      1.0  0.07119  0.03955999999999997  0.34443000000000007  1.0000
  C   C173      1.0  0.88185  0.11815999999999999  0.75001  1.0000
  C   C174      1.0  0.11815  0.88185  0.24999  1.0000
  N   N1        1.0  0.56616  0.84365  0.041860000000000015  1.0000
  N   N2        1.0  0.82759  0.4356999999999999  0.02099  1.0000
  N   N3        1.0  0.15636  0.43386  0.45813000000000004  1.0000
  N   N4        1.0  0.56429  0.17241999999999996  0.479  1.0000
  N   N5        1.0  0.43382999999999994  0.15636  0.95815  1.0000
  N   N6        1.0  0.17241  0.5643  0.9790100000000003  1.0000
  N   N7        1.0  0.84363  0.5661499999999999  0.54187  1.0000
  N   N8        1.0  0.43571000000000015  0.82759  0.52101  1.0000
  O   O1        1.0  0.15807999999999997  0.95239  0.9701900000000001  1.0000
  O   O2        1.0  0.11721000000000004  0.95195  0.054710000000000016  1.0000
  O   O3        1.0  0.6241600000000002  0.93759  0.8052900000000002  1.0000
  O   O4        1.0  0.7804300000000002  0.91439  0.81763  1.0000
  O   O5        1.0  0.8016400000000002  0.77063  0.23339  1.0000
  O   O6        1.0  0.7712700000000002  0.6176  0.22015  1.0000
  O   O7        1.0  0.014429999999999991  0.30372  0.81493  1.0000
  O   O8        1.0  0.027839999999999997  0.46674000000000004  0.79555  1.0000
  O   O9        1.0  0.9803500000000003  0.85676  0.9654800000000002  1.0000
  O   O10       1.0  0.9379600000000002  0.86164  0.04958  1.0000
  O   O11       1.0  0.5434900000000003  0.21400999999999998  0.19756000000000007  1.0000
  O   O12       1.0  0.61892  0.08684999999999997  0.16221  1.0000
  O   O13       1.0  0.90482  0.20446999999999999  0.7528100000000001  1.0000
  O   O14       1.0  0.06692999999999998  0.08482999999999995  0.7975300000000002  1.0000
  O   O15       1.0  0.062470000000000005  0.99534  0.87256  1.0000
  O   O16       1.0  0.04764  0.84194  0.52979  1.0000
  O   O17       1.0  0.048040000000000006  0.88288  0.4452700000000001  1.0000
  O   O18       1.0  0.06239999999999999  0.37584000000000006  0.69471  1.0000
  O   O19       1.0  0.08561999999999999  0.21956999999999996  0.6823700000000003  1.0000
  O   O20       1.0  0.22937999999999997  0.19853  0.26654  1.0000
  O   O21       1.0  0.3824  0.22872999999999996  0.27987  1.0000
  O   O22       1.0  0.69629  0.98554  0.68507  1.0000
  O   O23       1.0  0.53328  0.97217  0.70445  1.0000
  O   O24       1.0  0.14325999999999997  0.019659999999999983  0.5345300000000001  1.0000
  O   O25       1.0  0.13837000000000002  0.06203999999999997  0.4504300000000001  1.0000
  O   O26       1.0  0.78599  0.45653  0.30245  1.0000
  O   O27       1.0  0.9131500000000001  0.38107  0.33779  1.0000
  O   O28       1.0  0.7955400000000002  0.09518999999999998  0.7472  1.0000
  O   O29       1.0  0.9152  0.9330600000000001  0.70247  1.0000
  O   O30       1.0  0.0046400000000000104  0.9374  0.62744  1.0000
  O   O31       1.0  0.84192  0.04762  0.02981  1.0000
  O   O32       1.0  0.88278  0.04804999999999994  0.9452900000000002  1.0000
  O   O33       1.0  0.3758400000000001  0.06242  0.19472  1.0000
  O   O34       1.0  0.21957000000000004  0.08562  0.18237  1.0000
  O   O35       1.0  0.1983500000000001  0.22938  0.76661  1.0000
  O   O36       1.0  0.22872  0.38241  0.77986  1.0000
  O   O37       1.0  0.98557  0.69629  0.18507  1.0000
  O   O38       1.0  0.9721500000000003  0.53327  0.20445  1.0000
  O   O39       1.0  0.01965  0.14324999999999993  0.03453  1.0000
  O   O40       1.0  0.06203000000000002  0.13837  0.95043  1.0000
  O   O41       1.0  0.4565000000000001  0.786  0.80244  1.0000
  O   O42       1.0  0.38108  0.9131499999999999  0.83779  1.0000
  O   O43       1.0  0.09517999999999999  0.79553  0.24719000000000002  1.0000
  O   O44       1.0  0.9330600000000003  0.91518  0.20247  1.0000
  O   O45       1.0  0.9375300000000002  0.004669999999999996  0.12744  1.0000
  O   O46       1.0  0.95236  0.15806999999999996  0.47021000000000013  1.0000
  O   O47       1.0  0.95195  0.11712  0.55473  1.0000
  O   O48       1.0  0.9375900000000003  0.62417  0.3053  1.0000
  O   O49       1.0  0.9143800000000003  0.78044  0.31763  1.0000
  O   O50       1.0  0.7706199999999999  0.80147  0.73346  1.0000
  O   O51       1.0  0.61759  0.77128  0.72014  1.0000
  O   O52       1.0  0.3037100000000001  0.014469999999999995  0.31493  1.0000
  O   O53       1.0  0.46672000000000013  0.027839999999999997  0.29555  1.0000
  O   O54       1.0  0.85674  0.9803399999999999  0.46547000000000005  1.0000
  O   O55       1.0  0.8616300000000002  0.93797  0.54958  1.0000
  O   O56       1.0  0.21400999999999998  0.5434799999999999  0.6975500000000002  1.0000
  O   O57       1.0  0.08683999999999999  0.61894  0.6622100000000001  1.0000
  O   O58       1.0  0.2044600000000001  0.9048199999999997  0.2528  1.0000
  O   O59       1.0  0.08479  0.06695  0.29753  1.0000
  O   O60       1.0  0.9953500000000002  0.06261  0.37257  1.0000
