data_image0
_chemical_formula_structural       Cd8H112C160N32O32
_chemical_formula_sum              "Cd8 H112 C160 N32 O32"
_cell_length_a       16.82897
_cell_length_b       17.28427
_cell_length_c       18.60565
_cell_angle_alpha    90.03406000000001
_cell_angle_beta     90.0
_cell_angle_gamma    90.0

_space_group_name_H-M_alt    "P 1"
_space_group_IT_number       1

loop_
  _space_group_symop_operation_xyz
  'x, y, z'

loop_
  _atom_site_type_symbol
  _atom_site_label
  _atom_site_symmetry_multiplicity
  _atom_site_fract_x
  _atom_site_fract_y
  _atom_site_fract_z
  _atom_site_occupancy
  Cd  Cd1       1.0  0.77906  0.9915399999999999  0.51951  1.0000
  Cd  Cd2       1.0  0.27906  0.50846  0.48049  1.0000
  Cd  Cd3       1.0  0.27898  0.9917399999999998  0.9809299999999999  1.0000
  Cd  Cd4       1.0  0.77898  0.50826  0.01907  1.0000
  Cd  Cd5       1.0  0.72103  0.00826  0.01907  1.0000
  Cd  Cd6       1.0  0.22102  0.49174000000000007  0.9809299999999999  1.0000
  Cd  Cd7       1.0  0.22094  0.00846  0.48049  1.0000
  Cd  Cd8       1.0  0.72095  0.49154  0.51951  1.0000
  H   H1        1.0  0.60263  0.93212  0.61395  1.0000
  H   H2        1.0  0.47069  0.02933  0.62277  1.0000
  H   H3        1.0  0.64704  0.13081  0.4895  1.0000
  H   H4        1.0  0.38448  0.10407  0.55163  1.0000
  H   H5        1.0  0.30156  0.2215  0.53311  1.0000
  H   H6        1.0  0.51149  0.36001  0.50919  1.0000
  H   H7        1.0  0.59599  0.24507999999999996  0.53143  1.0000
  H   H8        1.0  0.69034  0.05359  0.36221999999999993  1.0000
  H   H9        1.0  0.6872499999999999  0.96772  0.23574  1.0000
  H   H10       1.0  0.8171  0.84724  0.39698  1.0000
  H   H11       1.0  0.77033  0.7380900000000002  0.33848  1.0000
  H   H12       1.0  0.78953  0.62839  0.2531999999999999  1.0000
  H   H13       1.0  0.77566  0.78507  0.07483  1.0000
  H   H14       1.0  0.76415  0.89628  0.15865  1.0000
  H   H15       1.0  0.10263  0.56788  0.38606  1.0000
  H   H16       1.0  0.9706899999999999  0.47067000000000003  0.37723  1.0000
  H   H17       1.0  0.14703  0.36919  0.51051  1.0000
  H   H18       1.0  0.88448  0.39593  0.44837  1.0000
  H   H19       1.0  0.80156  0.2785  0.46689  1.0000
  H   H20       1.0  0.01149  0.13999  0.49082  1.0000
  H   H21       1.0  0.09598999999999998  0.25492  0.46857999999999994  1.0000
  H   H22       1.0  0.19034  0.44641  0.63779  1.0000
  H   H23       1.0  0.18725  0.53227  0.76426  1.0000
  H   H24       1.0  0.3171  0.65276  0.60302  1.0000
  H   H25       1.0  0.27033  0.76191  0.66153  1.0000
  H   H26       1.0  0.28953  0.87161  0.7468  1.0000
  H   H27       1.0  0.27566  0.71492  0.9251799999999999  1.0000
  H   H28       1.0  0.26415  0.60371  0.84135  1.0000
  H   H29       1.0  0.10263  0.9321  0.8860999999999999  1.0000
  H   H30       1.0  0.97071  0.029340000000000005  0.8772999999999999  1.0000
  H   H31       1.0  0.147  0.13087  0.01063  1.0000
  H   H32       1.0  0.8845099999999998  0.10397000000000003  0.94842  1.0000
  H   H33       1.0  0.80152  0.22144  0.96694  1.0000
  H   H34       1.0  0.01142  0.36001  0.99085  1.0000
  H   H35       1.0  0.09597999999999998  0.24506000000000003  0.96868  1.0000
  H   H36       1.0  0.1903  0.05357  0.13776  1.0000
  H   H37       1.0  0.18721  0.96782  0.26425  1.0000
  H   H38       1.0  0.31711  0.84723  0.10294  1.0000
  H   H39       1.0  0.2702899999999999  0.73825  0.16134  1.0000
  H   H40       1.0  0.28953  0.62859  0.24671  1.0000
  H   H41       1.0  0.27565  0.78526  0.42511  1.0000
  H   H42       1.0  0.2641  0.8965  0.34131  1.0000
  H   H43       1.0  0.60263  0.5678900000000002  0.1139  1.0000
  H   H44       1.0  0.47071  0.47066  0.12269999999999999  1.0000
  H   H45       1.0  0.647  0.36912000000000006  0.98937  1.0000
  H   H46       1.0  0.38451  0.39603  0.05159  1.0000
  H   H47       1.0  0.30152  0.27856  0.03307  1.0000
  H   H48       1.0  0.51142  0.13999  0.00915  1.0000
  H   H49       1.0  0.59598  0.25494  0.03132  1.0000
  H   H50       1.0  0.6903  0.44643  0.8622400000000001  1.0000
  H   H51       1.0  0.68721  0.53218  0.73575  1.0000
  H   H52       1.0  0.81711  0.65276  0.89706  1.0000
  H   H53       1.0  0.77029  0.76174  0.83867  1.0000
  H   H54       1.0  0.78953  0.87141  0.7533  1.0000
  H   H55       1.0  0.77565  0.7147400000000003  0.57489  1.0000
  H   H56       1.0  0.7641099999999998  0.60349  0.65869  1.0000
  H   H57       1.0  0.89737  0.0679  0.1139  1.0000
  H   H58       1.0  0.02929  0.97066  0.12269999999999999  1.0000
  H   H59       1.0  0.853  0.86912  0.98937  1.0000
  H   H60       1.0  0.11549  0.89602  0.05159  1.0000
  H   H61       1.0  0.19848  0.77855  0.03307  1.0000
  H   H62       1.0  0.9885799999999999  0.63998  0.00915  1.0000
  H   H63       1.0  0.90402  0.75494  0.03132  1.0000
  H   H64       1.0  0.80971  0.9464199999999999  0.8622400000000001  1.0000
  H   H65       1.0  0.81279  0.03218  0.73575  1.0000
  H   H66       1.0  0.68289  0.15276  0.89706  1.0000
  H   H67       1.0  0.72971  0.26174  0.83867  1.0000
  H   H68       1.0  0.71047  0.37141  0.75329  1.0000
  H   H69       1.0  0.72435  0.21474  0.57489  1.0000
  H   H70       1.0  0.7359  0.10349  0.65869  1.0000
  H   H71       1.0  0.39737  0.4321  0.8860999999999999  1.0000
  H   H72       1.0  0.5293  0.52933  0.8772999999999999  1.0000
  H   H73       1.0  0.353  0.63087  0.01063  1.0000
  H   H74       1.0  0.61549  0.60397  0.94842  1.0000
  H   H75       1.0  0.69848  0.72144  0.96694  1.0000
  H   H76       1.0  0.48858  0.8600100000000003  0.99085  1.0000
  H   H77       1.0  0.40402  0.74506  0.96868  1.0000
  H   H78       1.0  0.30971  0.55357  0.13776  1.0000
  H   H79       1.0  0.31279  0.46782  0.26425  1.0000
  H   H80       1.0  0.18289  0.34724  0.10294  1.0000
  H   H81       1.0  0.22971  0.23826  0.16134  1.0000
  H   H82       1.0  0.21047  0.12859  0.24671  1.0000
  H   H83       1.0  0.22434999999999994  0.28526  0.42511  1.0000
  H   H84       1.0  0.2359  0.39651  0.34131  1.0000
  H   H85       1.0  0.39737999999999996  0.06788  0.38606  1.0000
  H   H86       1.0  0.5293099999999998  0.9706700000000001  0.37723  1.0000
  H   H87       1.0  0.35297  0.86919  0.51051  1.0000
  H   H88       1.0  0.61553  0.89593  0.44837  1.0000
  H   H89       1.0  0.69845  0.7785  0.46689  1.0000
  H   H90       1.0  0.48851  0.63999  0.49082  1.0000
  H   H91       1.0  0.40401  0.7549200000000003  0.46857999999999994  1.0000
  H   H92       1.0  0.30966  0.94641  0.63779  1.0000
  H   H93       1.0  0.31275  0.03227  0.76426  1.0000
  H   H94       1.0  0.18289999999999998  0.15276  0.60302  1.0000
  H   H95       1.0  0.22967  0.26191  0.66153  1.0000
  H   H96       1.0  0.21047  0.37161  0.7468  1.0000
  H   H97       1.0  0.22434  0.21492  0.9251799999999999  1.0000
  H   H98       1.0  0.23585  0.10372  0.84135  1.0000
  H   H99       1.0  0.89738  0.4321200000000001  0.61395  1.0000
  H   H100      1.0  0.02931  0.52933  0.62277  1.0000
  H   H101      1.0  0.8529699999999998  0.6308100000000002  0.4895  1.0000
  H   H102      1.0  0.11551999999999998  0.60407  0.55163  1.0000
  H   H103      1.0  0.19844  0.7215  0.53311  1.0000
  H   H104      1.0  0.9885099999999999  0.8600100000000003  0.50919  1.0000
  H   H105      1.0  0.90401  0.74507  0.53143  1.0000
  H   H106      1.0  0.80966  0.55359  0.36221999999999993  1.0000
  H   H107      1.0  0.81275  0.46772  0.23574  1.0000
  H   H108      1.0  0.6829  0.34724  0.39698  1.0000
  H   H109      1.0  0.72967  0.23809000000000002  0.33848  1.0000
  H   H110      1.0  0.71047  0.12839  0.2531999999999999  1.0000
  H   H111      1.0  0.72434  0.28508  0.07483  1.0000
  H   H112      1.0  0.73585  0.39628  0.15865  1.0000
  C   C1        1.0  0.59154  0.9876099999999999  0.58885  1.0000
  C   C2        1.0  0.52603  0.03475  0.5935899999999998  1.0000
  C   C3        1.0  0.61726  0.08955  0.52388  1.0000
  C   C4        1.0  0.49516  0.16695  0.54226  1.0000
  C   C5        1.0  0.41234  0.16018  0.5437899999999999  1.0000
  C   C6        1.0  0.36595  0.22594  0.53347  1.0000
  C   C7        1.0  0.40152  0.2979  0.52053  1.0000
  C   C8        1.0  0.48453999999999997  0.30372  0.51868  1.0000
  C   C9        1.0  0.53168  0.23875000000000002  0.53039  1.0000
  C   C10       1.0  0.35063  0.36762  0.50897  1.0000
  C   C11       1.0  0.71546  0.99741  0.35025  1.0000
  C   C12       1.0  0.71317  0.95531  0.28772  1.0000
  C   C13       1.0  0.7814599999999998  0.89135  0.37128  1.0000
  C   C14       1.0  0.76706  0.82422  0.25362  1.0000
  C   C15       1.0  0.77476  0.74897  0.281  1.0000
  C   C16       1.0  0.78487  0.68744  0.23349999999999999  1.0000
  C   C17       1.0  0.78614  0.69981  0.15897  1.0000
  C   C18       1.0  0.7774899999999999  0.77532  0.13255  1.0000
  C   C19       1.0  0.76905  0.83766  0.17948  1.0000
  C   C20       1.0  0.7925  0.6324900000000001  0.1085  1.0000
  C   C21       1.0  0.09154  0.51239  0.41115  1.0000
  C   C22       1.0  0.02603  0.46525  0.40641  1.0000
  C   C23       1.0  0.11726  0.41045  0.47613  1.0000
  C   C24       1.0  0.99517  0.33305  0.45774  1.0000
  C   C25       1.0  0.91234  0.33982  0.45622  1.0000
  C   C26       1.0  0.86596  0.27406  0.46653  1.0000
  C   C27       1.0  0.90152  0.20210000000000003  0.47946999999999995  1.0000
  C   C28       1.0  0.9845399999999999  0.19628  0.48132  1.0000
  C   C29       1.0  0.03168  0.26125  0.46962  1.0000
  C   C30       1.0  0.85063  0.13238  0.49104  1.0000
  C   C31       1.0  0.21546  0.50259  0.64975  1.0000
  C   C32       1.0  0.21317  0.54468  0.71228  1.0000
  C   C33       1.0  0.28146  0.60864  0.62872  1.0000
  C   C34       1.0  0.26706  0.6757800000000002  0.74638  1.0000
  C   C35       1.0  0.27476  0.75102  0.719  1.0000
  C   C36       1.0  0.28487  0.81256  0.7665099999999999  1.0000
  C   C37       1.0  0.28614  0.8001900000000001  0.84103  1.0000
  C   C38       1.0  0.27749  0.72467  0.86745  1.0000
  C   C39       1.0  0.26905  0.66233  0.8205199999999998  1.0000
  C   C40       1.0  0.2925  0.86751  0.8915  1.0000
  C   C41       1.0  0.09151  0.9875700000000001  0.91127  1.0000
  C   C42       1.0  0.02603  0.03472  0.90652  1.0000
  C   C43       1.0  0.11721  0.08954000000000002  0.97631  1.0000
  C   C44       1.0  0.9951499999999999  0.16691  0.95791  1.0000
  C   C45       1.0  0.91233  0.16011  0.9563299999999999  1.0000
  C   C46       1.0  0.86592  0.22589  0.96651  1.0000
  C   C47       1.0  0.90148  0.2979  0.9792699999999999  1.0000
  C   C48       1.0  0.9845  0.30372  0.98128  1.0000
  C   C49       1.0  0.03167  0.23871999999999996  0.96977  1.0000
  C   C50       1.0  0.85068  0.3677  0.99085  1.0000
  C   C51       1.0  0.21539  0.99741  0.14975  1.0000
  C   C52       1.0  0.21315  0.9554  0.21227  1.0000
  C   C53       1.0  0.28146  0.89135  0.12869  1.0000
  C   C54       1.0  0.26708  0.8244  0.24632  1.0000
  C   C55       1.0  0.27477  0.74919  0.2188  1.0000
  C   C56       1.0  0.28491  0.68772  0.26624  1.0000
  C   C57       1.0  0.28616  0.70003  0.34073  1.0000
  C   C58       1.0  0.2775  0.77551  0.36736  1.0000
  C   C59       1.0  0.26906  0.83786  0.32048  1.0000
  C   C60       1.0  0.29243  0.63236  0.39058999999999994  1.0000
  C   C61       1.0  0.59152  0.51243  0.08873  1.0000
  C   C62       1.0  0.52603  0.46528  0.09349  1.0000
  C   C63       1.0  0.61721  0.41046  0.023689999999999992  1.0000
  C   C64       1.0  0.49514  0.33309  0.04209  1.0000
  C   C65       1.0  0.41233  0.33989  0.04367  1.0000
  C   C66       1.0  0.36592  0.27411  0.03349  1.0000
  C   C67       1.0  0.40148  0.20210000000000003  0.02073  1.0000
  C   C68       1.0  0.4845  0.19628  0.018719999999999994  1.0000
  C   C69       1.0  0.53167  0.26128000000000007  0.030239999999999996  1.0000
  C   C70       1.0  0.35068  0.1323  0.00915  1.0000
  C   C71       1.0  0.71539  0.50259  0.8502499999999997  1.0000
  C   C72       1.0  0.71315  0.5446  0.78773  1.0000
  C   C73       1.0  0.7814599999999998  0.60865  0.87131  1.0000
  C   C74       1.0  0.76708  0.6756  0.7536799999999999  1.0000
  C   C75       1.0  0.77477  0.7508  0.7812  1.0000
  C   C76       1.0  0.78491  0.8122800000000002  0.73377  1.0000
  C   C77       1.0  0.7861599999999997  0.79997  0.65927  1.0000
  C   C78       1.0  0.7775  0.7244800000000002  0.63264  1.0000
  C   C79       1.0  0.76906  0.66214  0.67952  1.0000
  C   C80       1.0  0.79243  0.86764  0.6094199999999999  1.0000
  C   C81       1.0  0.90849  0.01243  0.08873  1.0000
  C   C82       1.0  0.97398  0.96528  0.09349  1.0000
  C   C83       1.0  0.88279  0.91045  0.023689999999999992  1.0000
  C   C84       1.0  0.00486  0.83309  0.04209  1.0000
  C   C85       1.0  0.08767  0.83989  0.04367  1.0000
  C   C86       1.0  0.13408  0.77411  0.03349  1.0000
  C   C87       1.0  0.09852  0.7021  0.02073  1.0000
  C   C88       1.0  0.015499999999999998  0.6962800000000002  0.018719999999999994  1.0000
  C   C89       1.0  0.9683399999999999  0.76128  0.030239999999999996  1.0000
  C   C90       1.0  0.14932  0.6323  0.00915  1.0000
  C   C91       1.0  0.78461  0.0025899999999999994  0.8502499999999997  1.0000
  C   C92       1.0  0.78685  0.0446  0.78773  1.0000
  C   C93       1.0  0.71854  0.10865  0.87131  1.0000
  C   C94       1.0  0.73292  0.17560000000000006  0.7536799999999999  1.0000
  C   C95       1.0  0.72523  0.25081  0.7812  1.0000
  C   C96       1.0  0.7151  0.31228  0.73377  1.0000
  C   C97       1.0  0.71385  0.29997  0.65927  1.0000
  C   C98       1.0  0.72251  0.22448  0.63264  1.0000
  C   C99       1.0  0.73094  0.16214  0.67952  1.0000
  C   C100      1.0  0.70757  0.36764  0.6094199999999999  1.0000
  C   C101      1.0  0.40849  0.48757  0.91127  1.0000
  C   C102      1.0  0.47397  0.53472  0.90652  1.0000
  C   C103      1.0  0.38279  0.58954  0.97631  1.0000
  C   C104      1.0  0.50486  0.6669  0.95791  1.0000
  C   C105      1.0  0.58767  0.66011  0.9563299999999999  1.0000
  C   C106      1.0  0.63408  0.72589  0.96651  1.0000
  C   C107      1.0  0.59852  0.7979000000000003  0.9792699999999999  1.0000
  C   C108      1.0  0.5155  0.8037100000000001  0.98128  1.0000
  C   C109      1.0  0.46833  0.73872  0.96977  1.0000
  C   C110      1.0  0.64932  0.8677000000000001  0.99085  1.0000
  C   C111      1.0  0.28461  0.4974100000000001  0.14975  1.0000
  C   C112      1.0  0.28685  0.4554  0.21227  1.0000
  C   C113      1.0  0.21854  0.39135000000000003  0.12869  1.0000
  C   C114      1.0  0.23292  0.3244  0.24632  1.0000
  C   C115      1.0  0.22523  0.24919  0.2188  1.0000
  C   C116      1.0  0.21509  0.18772  0.26624  1.0000
  C   C117      1.0  0.21385  0.20003  0.34073  1.0000
  C   C118      1.0  0.2225  0.27552  0.36736  1.0000
  C   C119      1.0  0.23094  0.33786  0.32048  1.0000
  C   C120      1.0  0.20757  0.13236  0.39058999999999994  1.0000
  C   C121      1.0  0.40847  0.01239  0.41115  1.0000
  C   C122      1.0  0.47397  0.9652500000000002  0.40641  1.0000
  C   C123      1.0  0.38274  0.91044  0.47613  1.0000
  C   C124      1.0  0.50484  0.83304  0.45774  1.0000
  C   C125      1.0  0.58766  0.83982  0.45622  1.0000
  C   C126      1.0  0.63405  0.77406  0.46653  1.0000
  C   C127      1.0  0.59848  0.7020900000000001  0.47946999999999995  1.0000
  C   C128      1.0  0.51547  0.69627  0.48132  1.0000
  C   C129      1.0  0.4683199999999999  0.76125  0.46962  1.0000
  C   C130      1.0  0.64938  0.63238  0.49104  1.0000
  C   C131      1.0  0.28454  0.00259  0.64975  1.0000
  C   C132      1.0  0.2868299999999999  0.04468  0.71228  1.0000
  C   C133      1.0  0.21854  0.10864  0.62872  1.0000
  C   C134      1.0  0.23294  0.17578  0.74638  1.0000
  C   C135      1.0  0.22524  0.25102  0.719  1.0000
  C   C136      1.0  0.21513  0.31256  0.7665099999999999  1.0000
  C   C137      1.0  0.21386  0.30019  0.84103  1.0000
  C   C138      1.0  0.22251  0.22468  0.86745  1.0000
  C   C139      1.0  0.23095  0.16234  0.8205199999999998  1.0000
  C   C140      1.0  0.2075  0.36751  0.8915  1.0000
  C   C141      1.0  0.90847  0.48761  0.58885  1.0000
  C   C142      1.0  0.97397  0.53475  0.5935899999999998  1.0000
  C   C143      1.0  0.88274  0.58955  0.52388  1.0000
  C   C144      1.0  0.00484  0.66695  0.54226  1.0000
  C   C145      1.0  0.08766  0.6601800000000002  0.5437899999999999  1.0000
  C   C146      1.0  0.13405  0.72594  0.53347  1.0000
  C   C147      1.0  0.09848  0.7979000000000003  0.52053  1.0000
  C   C148      1.0  0.01547  0.80372  0.51868  1.0000
  C   C149      1.0  0.9683299999999999  0.7387500000000001  0.53039  1.0000
  C   C150      1.0  0.14938  0.86761  0.50897  1.0000
  C   C151      1.0  0.7845399999999998  0.4974100000000001  0.35025  1.0000
  C   C152      1.0  0.78683  0.45531  0.28772  1.0000
  C   C153      1.0  0.71854  0.39136  0.37128  1.0000
  C   C154      1.0  0.73294  0.32422  0.25362  1.0000
  C   C155      1.0  0.72524  0.24898000000000003  0.281  1.0000
  C   C156      1.0  0.71513  0.18744000000000002  0.23349999999999999  1.0000
  C   C157      1.0  0.71386  0.19981  0.15897  1.0000
  C   C158      1.0  0.72251  0.27532  0.13255  1.0000
  C   C159      1.0  0.7309499999999999  0.33766000000000007  0.17948  1.0000
  C   C160      1.0  0.7075  0.13249  0.1085  1.0000
  N   N1        1.0  0.64783  0.02236  0.54516  1.0000
  N   N2        1.0  0.54329  0.09987  0.55233  1.0000
  N   N3        1.0  0.75802  0.9570199999999999  0.40162999999999993  1.0000
  N   N4        1.0  0.75528  0.8875  0.30171  1.0000
  N   N5        1.0  0.14783  0.47764  0.45483999999999997  1.0000
  N   N6        1.0  0.04329  0.40013  0.44767  1.0000
  N   N7        1.0  0.25802  0.54298  0.59837  1.0000
  N   N8        1.0  0.25527  0.61249  0.6983  1.0000
  N   N9        1.0  0.14777  0.02233  0.9550299999999999  1.0000
  N   N10       1.0  0.04326  0.09984  0.9478599999999999  1.0000
  N   N11       1.0  0.25794  0.95696  0.09838  1.0000
  N   N12       1.0  0.25531  0.88762  0.19828  1.0000
  N   N13       1.0  0.64777  0.47766999999999993  0.04497  1.0000
  N   N14       1.0  0.54326  0.40016  0.05214  1.0000
  N   N15       1.0  0.7579499999999999  0.54304  0.9016199999999999  1.0000
  N   N16       1.0  0.75531  0.61238  0.8017199999999999  1.0000
  N   N17       1.0  0.85223  0.9776699999999999  0.04497  1.0000
  N   N18       1.0  0.9567399999999999  0.90016  0.05214  1.0000
  N   N19       1.0  0.7420599999999999  0.04304  0.9016199999999999  1.0000
  N   N20       1.0  0.74469  0.11238  0.8017199999999999  1.0000
  N   N21       1.0  0.35223  0.52233  0.9550299999999999  1.0000
  N   N22       1.0  0.45674  0.59984  0.9478599999999999  1.0000
  N   N23       1.0  0.24206  0.45696  0.09838  1.0000
  N   N24       1.0  0.24468999999999996  0.38762  0.19828  1.0000
  N   N25       1.0  0.35217  0.9776400000000001  0.45483999999999997  1.0000
  N   N26       1.0  0.45671  0.90012  0.44767  1.0000
  N   N27       1.0  0.24197999999999997  0.04298  0.59837  1.0000
  N   N28       1.0  0.24473  0.1125  0.6983  1.0000
  N   N29       1.0  0.85217  0.5223600000000003  0.54516  1.0000
  N   N30       1.0  0.9567099999999998  0.59987  0.55233  1.0000
  N   N31       1.0  0.74198  0.45702  0.40162999999999993  1.0000
  N   N32       1.0  0.74473  0.3875  0.30171  1.0000
  O   O1        1.0  0.38448  0.42858  0.48361999999999994  1.0000
  O   O2        1.0  0.27716  0.36369000000000007  0.52407  1.0000
  O   O3        1.0  0.79793  0.64521  0.04094  1.0000
  O   O4        1.0  0.78961  0.56409  0.13481  1.0000
  O   O5        1.0  0.88448  0.07142  0.51638  1.0000
  O   O6        1.0  0.7771599999999997  0.13631  0.47593  1.0000
  O   O7        1.0  0.29792  0.85479  0.95906  1.0000
  O   O8        1.0  0.28961  0.93591  0.8651899999999999  1.0000
  O   O9        1.0  0.88495  0.4291600000000001  0.01451  1.0000
  O   O10       1.0  0.77679  0.36346000000000006  0.97758  1.0000
  O   O11       1.0  0.29781  0.6447800000000001  0.45824  1.0000
  O   O12       1.0  0.28959  0.56414  0.3638  1.0000
  O   O13       1.0  0.38495  0.07084  0.98549  1.0000
  O   O14       1.0  0.27679  0.13654  0.02243  1.0000
  O   O15       1.0  0.79781  0.85522  0.54177  1.0000
  O   O16       1.0  0.78959  0.9358599999999999  0.6362  1.0000
  O   O17       1.0  0.11505  0.57083  0.98549  1.0000
  O   O18       1.0  0.22321  0.63654  0.02243  1.0000
  O   O19       1.0  0.70219  0.35522  0.54177  1.0000
  O   O20       1.0  0.71041  0.43586  0.6362  1.0000
  O   O21       1.0  0.61505  0.9291600000000001  0.01451  1.0000
  O   O22       1.0  0.72321  0.86345  0.97758  1.0000
  O   O23       1.0  0.20219  0.14478  0.45824  1.0000
  O   O24       1.0  0.21041  0.06414  0.3638  1.0000
  O   O25       1.0  0.61552  0.57141  0.51638  1.0000
  O   O26       1.0  0.72285  0.63631  0.47593  1.0000
  O   O27       1.0  0.20208  0.35479  0.95906  1.0000
  O   O28       1.0  0.21039  0.43591  0.8651899999999999  1.0000
  O   O29       1.0  0.11551999999999998  0.92858  0.48361999999999994  1.0000
  O   O30       1.0  0.22284999999999994  0.8636800000000002  0.52407  1.0000
  O   O31       1.0  0.70208  0.14521000000000003  0.04094  1.0000
  O   O32       1.0  0.71039  0.06409000000000002  0.13481  1.0000
