data_image0
_chemical_formula_structural       Cu12Mo4H80C104S16N24
_chemical_formula_sum              "Cu12 Mo4 H80 C104 S16 N24"
_cell_length_a       9.97446
_cell_length_b       17.74098
_cell_length_c       26.84473
_cell_angle_alpha    90.00376999999999
_cell_angle_beta     89.99865999999999
_cell_angle_gamma    101.28188

_symmetry_space_group_name_H-M    'P 1'
_symmetry_Int_Tables_number       1

loop_
  _symmetry_equiv_pos_as_xyz
  'x,y,z'

loop_
  _atom_site_type_symbol
  _atom_site_label
  _atom_site_symmetry_multiplicity
  _atom_site_fract_x
  _atom_site_fract_y
  _atom_site_fract_z
  _atom_site_occupancy
  Cu  Cu1       1.0  0.74808  0.17394000000000007  0.58655  1.0000
  Cu  Cu2       1.0  0.12202000000000002  0.1801  0.54598  1.0000
  Cu  Cu3       1.0  0.05000000000000004  0.29957000000000006  0.6590200000000003  1.0000
  Cu  Cu4       1.0  0.25179  0.32609  0.08663000000000003  1.0000
  Cu  Cu5       1.0  0.8779800000000001  0.31978000000000006  0.04612000000000001  1.0000
  Cu  Cu6       1.0  0.94985  0.20047  0.15901  1.0000
  Cu  Cu7       1.0  0.25189999999999996  0.82602  0.4134100000000001  1.0000
  Cu  Cu8       1.0  0.87786  0.81973  0.45388  1.0000
  Cu  Cu9       1.0  0.9497900000000001  0.70044  0.3409900000000001  1.0000
  Cu  Cu10      1.0  0.7480100000000001  0.67397  0.91346  1.0000
  Cu  Cu11      1.0  0.12205000000000002  0.68004  0.95401  1.0000
  Cu  Cu12      1.0  0.05009  0.79957  0.8409100000000002  1.0000
  Mo  Mo1       1.0  0.97986  0.15439  0.6308800000000002  1.0000
  Mo  Mo2       1.0  0.019959999999999988  0.34564  0.13095  1.0000
  Mo  Mo3       1.0  0.020050000000000012  0.84561  0.36909  1.0000
  Mo  Mo4       1.0  0.9798000000000001  0.65441  0.86917  1.0000
  H   H1        1.0  0.12657  0.01489  0.5511800000000001  1.0000
  H   H2        1.0  0.29456  0.9319400000000001  0.53712  1.0000
  H   H3        1.0  0.5609800000000001  0.12964  0.4718  1.0000
  H   H4        1.0  0.3824000000000001  0.2034  0.4880700000000001  1.0000
  H   H5        1.0  0.31559  0.80067  0.79325  1.0000
  H   H6        1.0  0.46802000000000005  0.88301  0.73374  1.0000
  H   H7        1.0  0.12388000000000002  0.98654  0.69361  1.0000
  H   H8        1.0  0.98744  0.90071  0.7558000000000002  1.0000
  H   H9        1.0  0.2892  0.08743  0.6716200000000002  1.0000
  H   H10       1.0  0.45417  0.16733000000000006  0.6152900000000001  1.0000
  H   H11       1.0  0.6923400000000001  0.00147  0.60478  1.0000
  H   H12       1.0  0.5340000000000001  0.91134  0.6586000000000002  1.0000
  H   H13       1.0  0.29845  0.33516  0.51823  1.0000
  H   H14       1.0  0.2616500000000001  0.4530400000000001  0.47583  1.0000
  H   H15       1.0  0.84457  0.33626  0.44735  1.0000
  H   H16       1.0  0.8998500000000001  0.22285  0.4901700000000001  1.0000
  H   H17       1.0  0.18765  0.55697  0.4655600000000001  1.0000
  H   H18       1.0  0.13625000000000004  0.66775  0.41920000000000013  1.0000
  H   H19       1.0  0.8079200000000001  0.53282  0.3466  1.0000
  H   H20       1.0  0.8440400000000001  0.4152  0.38969  1.0000
  H   H21       1.0  0.8736100000000001  0.48503000000000007  0.0512  1.0000
  H   H22       1.0  0.70567  0.56798  0.03708  1.0000
  H   H23       1.0  0.43923  0.37025  0.9718100000000002  1.0000
  H   H24       1.0  0.6177300000000001  0.2964700000000001  0.9881300000000002  1.0000
  H   H25       1.0  0.6841700000000001  0.6993300000000002  0.29326  1.0000
  H   H26       1.0  0.53199  0.61702  0.23371000000000003  1.0000
  H   H27       1.0  0.8762300000000001  0.5134900000000001  0.19371000000000005  1.0000
  H   H28       1.0  0.01249000000000005  0.59934  0.25591  1.0000
  H   H29       1.0  0.71097  0.41264  0.17156  1.0000
  H   H30       1.0  0.5459  0.33267  0.11531000000000002  1.0000
  H   H31       1.0  0.30763  0.4984700000000001  0.10480000000000003  1.0000
  H   H32       1.0  0.46605  0.5886900000000003  0.15852  1.0000
  H   H33       1.0  0.70143  0.16483  0.018130000000000004  1.0000
  H   H34       1.0  0.7384100000000001  0.046960000000000016  0.9757800000000002  1.0000
  H   H35       1.0  0.15550000000000003  0.16379000000000002  0.94743  1.0000
  H   H36       1.0  0.10004  0.27722  0.99016  1.0000
  H   H37       1.0  0.81232  0.9430600000000001  0.9655100000000002  1.0000
  H   H38       1.0  0.8636200000000002  0.8322900000000002  0.9191300000000002  1.0000
  H   H39       1.0  0.1922  0.96716  0.8466400000000001  1.0000
  H   H40       1.0  0.15623000000000004  0.08476000000000003  0.8898  1.0000
  H   H41       1.0  0.8735600000000001  0.9850399999999999  0.44879  1.0000
  H   H42       1.0  0.70559  0.06798000000000001  0.4629200000000001  1.0000
  H   H43       1.0  0.43915  0.87021  0.52817  1.0000
  H   H44       1.0  0.6177200000000002  0.79646  0.5118400000000001  1.0000
  H   H45       1.0  0.68429  0.19936  0.20674000000000006  1.0000
  H   H46       1.0  0.53199  0.117  0.26626  1.0000
  H   H47       1.0  0.8761500000000001  0.013500000000000003  0.30633  1.0000
  H   H48       1.0  0.01257  0.09934  0.24415000000000003  1.0000
  H   H49       1.0  0.71094  0.9126300000000003  0.32842  1.0000
  H   H50       1.0  0.5459400000000002  0.8327100000000002  0.38472  1.0000
  H   H51       1.0  0.3076900000000001  0.9985200000000001  0.3952  1.0000
  H   H52       1.0  0.4660700000000001  0.08869  0.34143000000000007  1.0000
  H   H53       1.0  0.7013900000000001  0.66476  0.48185  1.0000
  H   H54       1.0  0.73841  0.54695  0.52426  1.0000
  H   H55       1.0  0.1555  0.66384  0.55259  1.0000
  H   H56       1.0  0.10001000000000004  0.7772000000000002  0.50978  1.0000
  H   H57       1.0  0.8123400000000001  0.44312  0.53447  1.0000
  H   H58       1.0  0.8636  0.33232000000000006  0.58085  1.0000
  H   H59       1.0  0.19220000000000007  0.46713000000000005  0.65336  1.0000
  H   H60       1.0  0.15633000000000002  0.58478  0.61022  1.0000
  H   H61       1.0  0.12661000000000006  0.5148900000000001  0.9488400000000001  1.0000
  H   H62       1.0  0.29459  0.43195  0.9628800000000001  1.0000
  H   H63       1.0  0.56102  0.62967  0.02821  1.0000
  H   H64       1.0  0.38243000000000016  0.7034100000000002  0.01194  1.0000
  H   H65       1.0  0.31557999999999997  0.30063  0.7067600000000003  1.0000
  H   H66       1.0  0.46795  0.38294  0.76628  1.0000
  H   H67       1.0  0.12391000000000002  0.48658000000000007  0.80636  1.0000
  H   H68       1.0  0.9874500000000005  0.40074  0.7441800000000002  1.0000
  H   H69       1.0  0.28918  0.5874  0.82834  1.0000
  H   H70       1.0  0.45415000000000005  0.66735  0.88465  1.0000
  H   H71       1.0  0.6924000000000001  0.50151  0.8951800000000002  1.0000
  H   H72       1.0  0.53398  0.41133  0.84141  1.0000
  H   H73       1.0  0.29848  0.83519  0.98182  1.0000
  H   H74       1.0  0.26153  0.95308  0.02416  1.0000
  H   H75       1.0  0.8445400000000001  0.83625  0.05264  1.0000
  H   H76       1.0  0.8998900000000001  0.72282  0.009880000000000002  1.0000
  H   H77       1.0  0.18760000000000002  0.057  0.03444  1.0000
  H   H78       1.0  0.13635  0.16777  0.08083000000000001  1.0000
  H   H79       1.0  0.80795  0.03287  0.15342  1.0000
  H   H80       1.0  0.84393  0.91527  0.11026  1.0000
  C   C1        1.0  0.63637  0.29091  0.51908  1.0000
  C   C2        1.0  0.22473  0.03769  0.53376  1.0000
  C   C3        1.0  0.32037  0.99181  0.52583  1.0000
  C   C4        1.0  0.44687000000000004  0.02295000000000001  0.50367  1.0000
  C   C5        1.0  0.46671000000000007  0.10049  0.48914  1.0000
  C   C6        1.0  0.36635  0.14287  0.4982700000000001  1.0000
  C   C7        1.0  0.27742000000000006  0.8424400000000001  0.7702600000000002  1.0000
  C   C8        1.0  0.3614500000000001  0.88826  0.7364800000000002  1.0000
  C   C9        1.0  0.31004000000000004  0.9424700000000001  0.7075400000000001  1.0000
  C   C10       1.0  0.17191000000000004  0.9466100000000001  0.71489  1.0000
  C   C11       1.0  0.09441000000000006  0.89852  0.7495500000000003  1.0000
  C   C12       1.0  0.3989000000000001  0.9919600000000001  0.67197  1.0000
  C   C13       1.0  0.37618  0.06478  0.65788  1.0000
  C   C14       1.0  0.46929000000000004  0.11065000000000001  0.6266  1.0000
  C   C15       1.0  0.6016  0.01784000000000001  0.62053  1.0000
  C   C16       1.0  0.5133000000000001  0.96821  0.6510800000000001  1.0000
  C   C17       1.0  0.19944  0.33743  0.50173  1.0000
  C   C18       1.0  0.17783000000000004  0.4035600000000001  0.47784  1.0000
  C   C19       1.0  0.04963000000000001  0.40527  0.4565500000000001  1.0000
  C   C20       1.0  0.94834  0.3382100000000001  0.46062  1.0000
  C   C21       1.0  0.97786  0.27449  0.4849700000000001  1.0000
  C   C22       1.0  0.021679999999999994  0.47435  0.4311700000000001  1.0000
  C   C23       1.0  0.10283  0.54751  0.43923  1.0000
  C   C24       1.0  0.07446999999999995  0.61063  0.41357000000000005  1.0000
  C   C25       1.0  0.8907100000000001  0.53544  0.37334  1.0000
  C   C26       1.0  0.9118800000000001  0.46972  0.3976400000000001  1.0000
  C   C27       1.0  0.36347  0.20913  0.01908  1.0000
  C   C28       1.0  0.77545  0.46221  0.03379  1.0000
  C   C29       1.0  0.6798400000000001  0.50809  0.02582  1.0000
  C   C30       1.0  0.5533200000000001  0.47696000000000005  0.00366  1.0000
  C   C31       1.0  0.5335  0.3994  0.98914  1.0000
  C   C32       1.0  0.6338400000000001  0.35701  0.9983100000000003  1.0000
  C   C33       1.0  0.72245  0.6576  0.27029  1.0000
  C   C34       1.0  0.6385400000000001  0.6117700000000003  0.23648  1.0000
  C   C35       1.0  0.6900300000000001  0.55759  0.20752000000000004  1.0000
  C   C36       1.0  0.82813  0.55343  0.21496  1.0000
  C   C37       1.0  0.90554  0.6015600000000001  0.24963  1.0000
  C   C38       1.0  0.60121  0.50809  0.17194000000000004  1.0000
  C   C39       1.0  0.6239300000000002  0.43525000000000014  0.15785  1.0000
  C   C40       1.0  0.53072  0.38934  0.12662  1.0000
  C   C41       1.0  0.3984  0.48214  0.12055  1.0000
  C   C42       1.0  0.48677000000000015  0.5318100000000001  0.15105  1.0000
  C   C43       1.0  0.8005000000000001  0.16258000000000006  0.00168  1.0000
  C   C44       1.0  0.8222  0.09644  0.9778100000000001  1.0000
  C   C45       1.0  0.95046  0.09474  0.9565800000000001  1.0000
  C   C46       1.0  0.05170000000000001  0.16181  0.9606500000000002  1.0000
  C   C47       1.0  0.022080000000000002  0.22555  0.98498  1.0000
  C   C48       1.0  0.9784400000000001  0.02566  0.9312000000000001  1.0000
  C   C49       1.0  0.8971900000000002  0.9525200000000001  0.93921  1.0000
  C   C50       1.0  0.92549  0.88939  0.9135200000000002  1.0000
  C   C51       1.0  0.10938000000000006  0.9645500000000001  0.87336  1.0000
  C   C52       1.0  0.08829  0.03026  0.8977000000000002  1.0000
  C   C53       1.0  0.36356  0.70911  0.48092  1.0000
  C   C54       1.0  0.7754100000000003  0.96221  0.4662100000000001  1.0000
  C   C55       1.0  0.67978  0.00808  0.47418  1.0000
  C   C56       1.0  0.55327  0.9769500000000001  0.49634  1.0000
  C   C57       1.0  0.5334400000000001  0.89938  0.51084  1.0000
  C   C58       1.0  0.6338000000000001  0.85701  0.50167  1.0000
  C   C59       1.0  0.72252  0.1576  0.22972000000000004  1.0000
  C   C60       1.0  0.63856  0.11177  0.2635  1.0000
  C   C61       1.0  0.69002  0.05757999999999999  0.29245  1.0000
  C   C62       1.0  0.82813  0.05344  0.28506  1.0000
  C   C63       1.0  0.9056  0.10155  0.25039  1.0000
  C   C64       1.0  0.6011900000000001  0.00808  0.32802  1.0000
  C   C65       1.0  0.6239200000000003  0.9352600000000001  0.3421300000000001  1.0000
  C   C66       1.0  0.53076  0.88938  0.3734000000000001  1.0000
  C   C67       1.0  0.39844  0.98217  0.37945  1.0000
  C   C68       1.0  0.48678  0.03182  0.3489200000000001  1.0000
  C   C69       1.0  0.80046  0.66253  0.49831000000000003  1.0000
  C   C70       1.0  0.8221900000000001  0.59644  0.52221  1.0000
  C   C71       1.0  0.95046  0.59477  0.54345  1.0000
  C   C72       1.0  0.05169  0.66185  0.53936  1.0000
  C   C73       1.0  0.022049999999999972  0.72553  0.51499  1.0000
  C   C74       1.0  0.97845  0.5257  0.5688200000000001  1.0000
  C   C75       1.0  0.89718  0.45256  0.56079  1.0000
  C   C76       1.0  0.92546  0.38942  0.58645  1.0000
  C   C77       1.0  0.10938000000000006  0.46456000000000003  0.62664  1.0000
  C   C78       1.0  0.08832  0.53029  0.6023200000000002  1.0000
  C   C79       1.0  0.6363000000000001  0.79096  0.98094  1.0000
  C   C80       1.0  0.22477  0.53767  0.9662500000000002  1.0000
  C   C81       1.0  0.3204200000000001  0.49182000000000003  0.97416  1.0000
  C   C82       1.0  0.44694  0.5229700000000002  0.9963100000000003  1.0000
  C   C83       1.0  0.4667600000000001  0.6005000000000001  0.01087  1.0000
  C   C84       1.0  0.36637  0.64287  0.0017600000000000005  1.0000
  C   C85       1.0  0.27739  0.3424  0.72973  1.0000
  C   C86       1.0  0.3614  0.38821  0.76353  1.0000
  C   C87       1.0  0.31000000000000005  0.44243000000000005  0.7924700000000001  1.0000
  C   C88       1.0  0.1719  0.44662000000000013  0.78508  1.0000
  C   C89       1.0  0.09439999999999997  0.39851  0.7504200000000001  1.0000
  C   C90       1.0  0.39887000000000006  0.49194  0.8280200000000001  1.0000
  C   C91       1.0  0.3761900000000001  0.56478  0.84209  1.0000
  C   C92       1.0  0.46932  0.61067  0.87336  1.0000
  C   C93       1.0  0.60163  0.51786  0.87944  1.0000
  C   C94       1.0  0.51329  0.46820000000000006  0.84891  1.0000
  C   C95       1.0  0.19943000000000005  0.8374300000000002  0.99829  1.0000
  C   C96       1.0  0.17776000000000003  0.90359  0.022150000000000003  1.0000
  C   C97       1.0  0.04955  0.9053  0.043420000000000014  1.0000
  C   C98       1.0  0.9483200000000002  0.83822  0.03937  1.0000
  C   C99       1.0  0.9779  0.7744800000000002  0.01505  1.0000
  C   C100      1.0  0.02160000000000001  0.97439  0.0688  1.0000
  C   C101      1.0  0.10279  0.04754  0.06077000000000001  1.0000
  C   C102      1.0  0.07451  0.11066  0.08646000000000002  1.0000
  C   C103      1.0  0.89072  0.03549  0.12668  1.0000
  C   C104      1.0  0.91182  0.96977  0.10235000000000002  1.0000
  S   S1        1.0  0.83522  0.21907000000000004  0.6657  1.0000
  S   S2        1.0  0.19215  0.22242  0.6260700000000001  1.0000
  S   S3        1.0  0.90666  0.10097000000000003  0.55847  1.0000
  S   S4        1.0  0.58357  0.35447  0.4842200000000001  1.0000
  S   S5        1.0  0.16486  0.28109  0.16576  1.0000
  S   S6        1.0  0.80764  0.27756  0.12611  1.0000
  S   S7        1.0  0.09347000000000003  0.39918000000000003  0.058580000000000014  1.0000
  S   S8        1.0  0.41626  0.14551  0.9842200000000002  1.0000
  S   S9        1.0  0.16475000000000004  0.78093  0.33431000000000005  1.0000
  S   S10       1.0  0.8076500000000002  0.7776200000000002  0.37385  1.0000
  S   S11       1.0  0.09337000000000008  0.8989800000000002  0.44149  1.0000
  S   S12       1.0  0.41625  0.64555  0.5158  1.0000
  S   S13       1.0  0.8352100000000001  0.7190900000000001  0.83431  1.0000
  S   S14       1.0  0.19211000000000006  0.72242  0.8739000000000002  1.0000
  S   S15       1.0  0.90656  0.601  0.9416100000000002  1.0000
  S   S16       1.0  0.58358  0.85453  0.01583  1.0000
  N   N1        1.0  0.24658  0.11279  0.52087  1.0000
  N   N2        1.0  0.14486  0.84688  0.77757  1.0000
  N   N3        1.0  0.5828600000000002  0.08907  0.6089400000000001  1.0000
  N   N4        1.0  0.10147  0.27302  0.5052400000000001  1.0000
  N   N5        1.0  0.97082  0.60538  0.38055  1.0000
  N   N6        1.0  0.67635  0.24412000000000003  0.5438800000000001  1.0000
  N   N7        1.0  0.75361  0.3870900000000001  0.02092  1.0000
  N   N8        1.0  0.8550000000000001  0.65318  0.27765  1.0000
  N   N9        1.0  0.4171  0.41089000000000003  0.10899  1.0000
  N   N10       1.0  0.8984400000000001  0.22699  0.0052200000000000015  1.0000
  N   N11       1.0  0.029159999999999974  0.89463  0.8805200000000001  1.0000
  N   N12       1.0  0.32351  0.25592  0.04385  1.0000
  N   N13       1.0  0.7535600000000001  0.8870800000000002  0.47906000000000004  1.0000
  N   N14       1.0  0.8550800000000001  0.15318  0.22238  1.0000
  N   N15       1.0  0.41716000000000003  0.91094  0.39104  1.0000
  N   N16       1.0  0.8984  0.7269500000000001  0.49475000000000013  1.0000
  N   N17       1.0  0.02912999999999999  0.39465  0.61946  1.0000
  N   N18       1.0  0.32366  0.75592  0.4561  1.0000
  N   N19       1.0  0.24658  0.61277  0.9791700000000001  1.0000
  N   N20       1.0  0.14485  0.34687  0.7223900000000002  1.0000
  N   N21       1.0  0.5829  0.5891100000000002  0.8910200000000001  1.0000
  N   N22       1.0  0.10149999999999997  0.773  0.99479  1.0000
  N   N23       1.0  0.97089  0.10541  0.11948000000000002  1.0000
  N   N24       1.0  0.6762300000000002  0.7441700000000002  0.9561200000000002  1.0000
