data_image0
_chemical_formula_structural       Cu12H84W4C108S12Br4N28
_chemical_formula_sum              "Cu12 H84 W4 C108 S12 Br4 N28"
_cell_length_a       9.4693
_cell_length_b       19.36674
_cell_length_c       22.85449
_cell_angle_alpha    80.53071
_cell_angle_beta     78.14832
_cell_angle_gamma    75.94768

_space_group_name_H-M_alt    "P 1"
_space_group_IT_number       1

loop_
  _space_group_symop_operation_xyz
  'x, y, z'

loop_
  _atom_site_type_symbol
  _atom_site_label
  _atom_site_symmetry_multiplicity
  _atom_site_fract_x
  _atom_site_fract_y
  _atom_site_fract_z
  _atom_site_occupancy
  Cu  Cu1       1.0  0.8358799999999993  0.77052  0.53607  1.0000
  Cu  Cu2       1.0  0.8502299999999999  0.92106  0.6346  1.0000
  Cu  Cu3       1.0  0.9091299999999998  0.72979  0.6957500000000001  1.0000
  Cu  Cu4       1.0  0.35678999999999994  0.27113  0.03628  1.0000
  Cu  Cu5       1.0  0.09564  0.42274  0.13439  1.0000
  Cu  Cu6       1.0  0.16552  0.23027999999999996  0.19293000000000005  1.0000
  Cu  Cu7       1.0  0.64321  0.72887  0.96372  1.0000
  Cu  Cu8       1.0  0.90436  0.57725  0.86561  1.0000
  Cu  Cu9       1.0  0.8344900000000002  0.7697199999999998  0.80707  1.0000
  Cu  Cu10      1.0  0.16411999999999996  0.22948  0.46393  1.0000
  Cu  Cu11      1.0  0.14978  0.07894000000000001  0.3654  1.0000
  Cu  Cu12      1.0  0.09087  0.2702  0.30425  1.0000
  H   H1        1.0  0.006319999999999913  0.98307  0.20343  1.0000
  H   H2        1.0  0.9295100000000002  0.8711799999999997  0.25397  1.0000
  H   H3        1.0  0.49120000000000014  0.9936499999999999  0.31181  1.0000
  H   H4        1.0  0.5685599999999997  0.10491  0.26432  1.0000
  H   H5        1.0  0.05805999999999998  0.08673999999999998  0.23425000000000007  1.0000
  H   H6        1.0  0.83568  0.28213999999999995  0.15107  1.0000
  H   H7        1.0  0.09101000000000009  0.8545  0.52074  1.0000
  H   H8        1.0  0.15542999999999998  0.9392099999999999  0.6691  1.0000
  H   H9        1.0  0.42368  0.9100299999999999  0.59244  1.0000
  H   H10       1.0  0.5040699999999999  0.94665  0.49596000000000007  1.0000
  H   H11       1.0  0.30208999999999997  0.78394  0.46179000000000003  1.0000
  H   H12       1.0  0.46168000000000003  0.7787  0.36167000000000005  1.0000
  H   H13       1.0  0.67351  0.93621  0.39914  1.0000
  H   H14       1.0  0.8965199999999998  0.53984  0.06232  1.0000
  H   H15       1.0  0.02845000000000002  0.55317  0.22474  1.0000
  H   H16       1.0  0.7393900000000001  0.66753  0.10438  1.0000
  H   H17       1.0  0.84905  0.61888  0.29749  1.0000
  H   H18       1.0  0.7606700000000001  0.7629099999999998  0.13706  1.0000
  H   H19       1.0  0.6673700000000001  0.8631199999999999  0.19771000000000002  1.0000
  H   H20       1.0  0.76446  0.72098  0.35764000000000007  1.0000
  H   H21       1.0  0.6535999999999998  0.18522  0.17302000000000003  1.0000
  H   H22       1.0  0.3068600000000001  0.48271  0.7027  1.0000
  H   H23       1.0  0.44483999999999996  0.37082999999999994  0.7532000000000001  1.0000
  H   H24       1.0  0.7029699999999998  0.49349  0.8116000000000001  1.0000
  H   H25       1.0  0.5620199999999999  0.6046799999999999  0.76421  1.0000
  H   H26       1.0  0.12056999999999989  0.58596  0.7348200000000003  1.0000
  H   H27       1.0  0.22840999999999986  0.78206  0.65201  1.0000
  H   H28       1.0  0.033740000000000034  0.3547899999999999  0.020540000000000003  1.0000
  H   H29       1.0  0.73885  0.43915999999999994  0.16925000000000004  1.0000
  H   H30       1.0  0.57491  0.41076  0.09245  1.0000
  H   H31       1.0  0.5535699999999997  0.44686999999999993  0.99561  1.0000
  H   H32       1.0  0.9514799999999999  0.2843899999999999  0.9617700000000001  1.0000
  H   H33       1.0  0.89682  0.27888  0.86165  1.0000
  H   H34       1.0  0.4910699999999999  0.43616999999999995  0.89871  1.0000
  H   H35       1.0  0.0014999999999999228  0.03945999999999999  0.5623400000000001  1.0000
  H   H36       1.0  0.6944399999999998  0.05188000000000001  0.72457  1.0000
  H   H37       1.0  0.98753  0.16740999999999998  0.6045100000000001  1.0000
  H   H38       1.0  0.7354999999999999  0.11836999999999996  0.7974100000000002  1.0000
  H   H39       1.0  0.8376300000000001  0.26269  0.63693  1.0000
  H   H40       1.0  0.7690900000000002  0.363  0.6975  1.0000
  H   H41       1.0  0.6570399999999996  0.2205999999999999  0.8574700000000001  1.0000
  H   H42       1.0  0.48648000000000025  0.6853899999999999  0.6726  1.0000
  H   H43       1.0  0.6931400000000001  0.51728  0.2973  1.0000
  H   H44       1.0  0.55516  0.62917  0.2468  1.0000
  H   H45       1.0  0.2970299999999998  0.5065  0.18840000000000007  1.0000
  H   H46       1.0  0.43799000000000005  0.39530999999999983  0.23579000000000003  1.0000
  H   H47       1.0  0.8794299999999999  0.4140400000000001  0.26518  1.0000
  H   H48       1.0  0.7715999999999998  0.21794  0.34798  1.0000
  H   H49       1.0  0.96627  0.64521  0.9794600000000001  1.0000
  H   H50       1.0  0.2611499999999999  0.56084  0.83075  1.0000
  H   H51       1.0  0.42509000000000013  0.58924  0.90755  1.0000
  H   H52       1.0  0.44643999999999995  0.55313  0.00439  1.0000
  H   H53       1.0  0.04852000000000009  0.7156099999999999  0.03823  1.0000
  H   H54       1.0  0.10317999999999997  0.72112  0.13835  1.0000
  H   H55       1.0  0.5089399999999998  0.5638299999999999  0.10129  1.0000
  H   H56       1.0  0.9984999999999998  0.9605299999999999  0.43766000000000005  1.0000
  H   H57       1.0  0.30556  0.94812  0.27543  1.0000
  H   H58       1.0  0.012470000000000064  0.83258  0.39549  1.0000
  H   H59       1.0  0.26449999999999996  0.8816299999999999  0.20259  1.0000
  H   H60       1.0  0.16236999999999996  0.7373  0.36307  1.0000
  H   H61       1.0  0.23091000000000006  0.63699  0.3025  1.0000
  H   H62       1.0  0.34296999999999994  0.77939  0.14253  1.0000
  H   H63       1.0  0.51352  0.31461  0.3274  1.0000
  H   H64       1.0  0.9936799999999998  0.016930000000000004  0.7965700000000001  1.0000
  H   H65       1.0  0.07048999999999994  0.12881999999999996  0.7460300000000002  1.0000
  H   H66       1.0  0.5088099999999998  0.0063499999999999885  0.6881900000000001  1.0000
  H   H67       1.0  0.43143999999999977  0.8950799999999999  0.7356800000000001  1.0000
  H   H68       1.0  0.9419399999999998  0.91325  0.76575  1.0000
  H   H69       1.0  0.1643199999999999  0.7178499999999999  0.84893  1.0000
  H   H70       1.0  0.9089899999999996  0.1455  0.47926000000000013  1.0000
  H   H71       1.0  0.8445799999999998  0.06078999999999998  0.3309  1.0000
  H   H72       1.0  0.57633  0.08997  0.40756  1.0000
  H   H73       1.0  0.49593  0.05334999999999998  0.50404  1.0000
  H   H74       1.0  0.69792  0.21604999999999994  0.5382100000000001  1.0000
  H   H75       1.0  0.53832  0.22129999999999994  0.6383300000000001  1.0000
  H   H76       1.0  0.32649  0.06377999999999998  0.60086  1.0000
  H   H77       1.0  0.10348999999999992  0.46014999999999995  0.9376800000000002  1.0000
  H   H78       1.0  0.97156  0.44681999999999994  0.7752600000000002  1.0000
  H   H79       1.0  0.26061000000000006  0.3324599999999999  0.8956200000000001  1.0000
  H   H80       1.0  0.15094999999999986  0.38110999999999995  0.7025100000000001  1.0000
  H   H81       1.0  0.23933000000000004  0.23708999999999986  0.8629400000000002  1.0000
  H   H82       1.0  0.33262999999999987  0.13688  0.80229  1.0000
  H   H83       1.0  0.23553999999999997  0.27901  0.64236  1.0000
  H   H84       1.0  0.34640000000000015  0.8147799999999996  0.82698  1.0000
  W   W1        1.0  0.7124299999999998  0.81839  0.6384  1.0000
  W   W2        1.0  0.33094  0.31956999999999997  0.13853  1.0000
  W   W3        1.0  0.6690599999999999  0.68043  0.8614700000000001  1.0000
  W   W4        1.0  0.28757  0.18160999999999997  0.3616  1.0000
  C   C1        1.0  0.7051599999999999  0.9243999999999999  0.28580000000000005  1.0000
  C   C2        1.0  0.8939300000000001  0.98514  0.22743000000000005  1.0000
  C   C3        1.0  0.8506899999999998  0.92235  0.25546  1.0000
  C   C4        1.0  0.60371  0.99072  0.28742000000000006  1.0000
  C   C5        1.0  0.79292  0.05109  0.2307  1.0000
  C   C6        1.0  0.64735  0.05380999999999999  0.26037  1.0000
  C   C7        1.0  0.9770799999999998  0.12648  0.21262  1.0000
  C   C8        1.0  0.8561799999999999  0.22687  0.17101000000000002  1.0000
  C   C9        1.0  0.14358000000000004  0.87287  0.55127  1.0000
  C   C10       1.0  0.18183000000000005  0.9168999999999999  0.62691  1.0000
  C   C11       1.0  0.31454  0.9052999999999999  0.58832  1.0000
  C   C12       1.0  0.3901099999999999  0.8672199999999999  0.4848000000000001  1.0000
  C   C13       1.0  0.49577  0.90936  0.4668600000000001  1.0000
  C   C14       1.0  0.3813100000000002  0.8183599999999998  0.44759  1.0000
  C   C15       1.0  0.4725400000000002  0.8148199999999998  0.3914  1.0000
  C   C16       1.0  0.5906600000000001  0.9037699999999999  0.41206000000000004  1.0000
  C   C17       1.0  0.5767100000000001  0.85831  0.37259  1.0000
  C   C18       1.0  0.7092399999999999  0.79922  0.28186  1.0000
  C   C19       1.0  0.9014999999999999  0.56179  0.10222  1.0000
  C   C20       1.0  0.9713299999999999  0.5653099999999999  0.18666  1.0000
  C   C21       1.0  0.82217  0.62482  0.12275  1.0000
  C   C22       1.0  0.8139099999999999  0.68408  0.21294  1.0000
  C   C23       1.0  0.81107  0.67246  0.2753  1.0000
  C   C24       1.0  0.7622000000000001  0.7531299999999999  0.18521000000000007  1.0000
  C   C25       1.0  0.70822  0.8097399999999999  0.21959  1.0000
  C   C26       1.0  0.76073  0.72978  0.3096  1.0000
  C   C27       1.0  0.7641  0.17957999999999993  0.18197000000000005  1.0000
  C   C28       1.0  0.58391  0.4241499999999999  0.78548  1.0000
  C   C29       1.0  0.3930400000000001  0.48483  0.72689  1.0000
  C   C30       1.0  0.47092999999999974  0.4220400000000001  0.7549200000000001  1.0000
  C   C31       1.0  0.6176199999999997  0.4905  0.7871900000000001  1.0000
  C   C32       1.0  0.4247699999999998  0.55083  0.7304000000000002  1.0000
  C   C33       1.0  0.5379999999999999  0.5535899999999999  0.7601800000000002  1.0000
  C   C34       1.0  0.18306  0.62588  0.71311  1.0000
  C   C35       1.0  0.24405  0.7266599999999999  0.67166  1.0000
  C   C36       1.0  0.9328199999999999  0.3734  0.05109000000000002  1.0000
  C   C37       1.0  0.77616  0.41722999999999993  0.12686000000000003  1.0000
  C   C38       1.0  0.69294  0.40592999999999996  0.08823  1.0000
  C   C39       1.0  0.7577499999999998  0.36765  0.98466  1.0000
  C   C40       1.0  0.6279699999999999  0.40957  0.96659  1.0000
  C   C41       1.0  0.85215  0.31872000000000006  0.94752  1.0000
  C   C42       1.0  0.8203999999999997  0.3149799999999999  0.8913300000000001  1.0000
  C   C43       1.0  0.59322  0.40377999999999986  0.9117900000000001  1.0000
  C   C44       1.0  0.69166  0.35828  0.8724  1.0000
  C   C45       1.0  0.7084999999999998  0.29898  0.7816700000000001  1.0000
  C   C46       1.0  0.9346200000000002  0.06122999999999999  0.60224  1.0000
  C   C47       1.0  0.7771999999999998  0.06432999999999998  0.68658  1.0000
  C   C48       1.0  0.9296699999999999  0.12442999999999999  0.62278  1.0000
  C   C49       1.0  0.7884499999999998  0.1836099999999999  0.7128200000000001  1.0000
  C   C50       1.0  0.74111  0.17204999999999998  0.7751800000000001  1.0000
  C   C51       1.0  0.7978700000000001  0.2528099999999999  0.68506  1.0000
  C   C52       1.0  0.7605400000000001  0.30952  0.71939  1.0000
  C   C53       1.0  0.6995  0.22944  0.80943  1.0000
  C   C54       1.0  0.3729099999999999  0.6794899999999999  0.6819100000000001  1.0000
  C   C55       1.0  0.41609  0.5758499999999999  0.21452  1.0000
  C   C56       1.0  0.60696  0.51516  0.27311  1.0000
  C   C57       1.0  0.52907  0.5779599999999999  0.24508  1.0000
  C   C58       1.0  0.38238  0.5095  0.21281  1.0000
  C   C59       1.0  0.57523  0.44916  0.2696  1.0000
  C   C60       1.0  0.46201  0.44641  0.23982000000000006  1.0000
  C   C61       1.0  0.8169400000000001  0.37410999999999994  0.28689  1.0000
  C   C62       1.0  0.75596  0.27334  0.3283400000000001  1.0000
  C   C63       1.0  0.06719000000000004  0.6265999999999999  0.94891  1.0000
  C   C64       1.0  0.22385000000000008  0.58276  0.87314  1.0000
  C   C65       1.0  0.3070600000000001  0.59407  0.91177  1.0000
  C   C66       1.0  0.24225999999999995  0.63235  0.01534  1.0000
  C   C67       1.0  0.37202999999999986  0.59042  0.0334  1.0000
  C   C68       1.0  0.14785000000000004  0.68127  0.05247000000000001  1.0000
  C   C69       1.0  0.17961000000000005  0.68501  0.10867  1.0000
  C   C70       1.0  0.40679000000000004  0.5962199999999999  0.08821  1.0000
  C   C71       1.0  0.30834000000000017  0.6417199999999997  0.1276  1.0000
  C   C72       1.0  0.29150000000000004  0.7010199999999999  0.21833  1.0000
  C   C73       1.0  0.06539000000000007  0.93876  0.39776000000000006  1.0000
  C   C74       1.0  0.2228  0.9356699999999999  0.31342  1.0000
  C   C75       1.0  0.07033000000000003  0.8755599999999999  0.37722  1.0000
  C   C76       1.0  0.21155000000000002  0.8163899999999996  0.28718000000000005  1.0000
  C   C77       1.0  0.25888999999999995  0.82795  0.22482000000000002  1.0000
  C   C78       1.0  0.20214000000000001  0.74718  0.31494  1.0000
  C   C79       1.0  0.23947  0.6904799999999999  0.28061  1.0000
  C   C80       1.0  0.30050000000000016  0.7705599999999998  0.19057  1.0000
  C   C81       1.0  0.6271  0.32051  0.31809000000000004  1.0000
  C   C82       1.0  0.2948399999999999  0.07558999999999996  0.7142000000000001  1.0000
  C   C83       1.0  0.10606999999999993  0.014849999999999992  0.7725700000000001  1.0000
  C   C84       1.0  0.14930999999999997  0.07765  0.74454  1.0000
  C   C85       1.0  0.3963  0.009280000000000005  0.71258  1.0000
  C   C86       1.0  0.2070799999999998  0.9489  0.7693  1.0000
  C   C87       1.0  0.3526599999999999  0.94619  0.7396300000000001  1.0000
  C   C88       1.0  0.022919999999999944  0.8735199999999999  0.78738  1.0000
  C   C89       1.0  0.14382000000000003  0.7731299999999997  0.8289900000000001  1.0000
  C   C90       1.0  0.8564199999999998  0.12711999999999998  0.44873000000000013  1.0000
  C   C91       1.0  0.81817  0.08309999999999997  0.37309  1.0000
  C   C92       1.0  0.6854599999999996  0.09468999999999998  0.41168000000000005  1.0000
  C   C93       1.0  0.60989  0.13276999999999992  0.5152  1.0000
  C   C94       1.0  0.5042299999999998  0.09063999999999998  0.5331300000000001  1.0000
  C   C95       1.0  0.6186900000000001  0.18164000000000002  0.55241  1.0000
  C   C96       1.0  0.5274599999999997  0.18517999999999998  0.6086  1.0000
  C   C97       1.0  0.4093399999999998  0.09622  0.58794  1.0000
  C   C98       1.0  0.4232900000000001  0.14167999999999994  0.62741  1.0000
  C   C99       1.0  0.29076000000000013  0.20076999999999992  0.71814  1.0000
  C   C100      1.0  0.09850000000000002  0.43820999999999993  0.8977700000000001  1.0000
  C   C101      1.0  0.0286699999999999  0.43469  0.8133400000000001  1.0000
  C   C102      1.0  0.17782999999999993  0.37516999999999995  0.8772500000000002  1.0000
  C   C103      1.0  0.18609999999999993  0.31592000000000003  0.7870600000000001  1.0000
  C   C104      1.0  0.18893000000000001  0.32753999999999994  0.7247  1.0000
  C   C105      1.0  0.2378  0.24686999999999995  0.81479  1.0000
  C   C106      1.0  0.29179  0.19025  0.78041  1.0000
  C   C107      1.0  0.23926999999999998  0.27021  0.6904  1.0000
  C   C108      1.0  0.2359  0.8204099999999999  0.81803  1.0000
  S   S1        1.0  0.75863  0.8891799999999999  0.55321  1.0000
  S   S2        1.0  0.75152  0.8520899999999999  0.72099  1.0000
  S   S3        1.0  0.7703199999999998  0.70318  0.62623  1.0000
  S   S4        1.0  0.29934000000000005  0.39011999999999997  0.05324  1.0000
  S   S5        1.0  0.17688999999999996  0.35473  0.22073  1.0000
  S   S6        1.0  0.40227  0.20428  0.12605000000000002  1.0000
  S   S7        1.0  0.7006599999999998  0.60988  0.94676  1.0000
  S   S8        1.0  0.82311  0.64527  0.77927  1.0000
  S   S9        1.0  0.59773  0.79571  0.87395  1.0000
  S   S10       1.0  0.24137  0.11081999999999996  0.44679000000000013  1.0000
  S   S11       1.0  0.24848000000000003  0.14791  0.27901  1.0000
  S   S12       1.0  0.22968  0.29682  0.37377  1.0000
  Br  Br1       1.0  0.9330499999999998  0.71751  0.44857  1.0000
  Br  Br2       1.0  0.40482999999999986  0.21832999999999994  0.94835  1.0000
  Br  Br3       1.0  0.59518  0.7816699999999998  0.05165  1.0000
  Br  Br4       1.0  0.06694999999999994  0.28248999999999996  0.5514300000000001  1.0000
  N   N1        1.0  0.07650000000000001  0.89644  0.60368  1.0000
  N   N2        1.0  0.28925  0.87748  0.53987  1.0000
  N   N3        1.0  0.6633100000000001  0.85959  0.31426000000000004  1.0000
  N   N4        1.0  0.9938099999999999  0.5248  0.14227  1.0000
  N   N5        1.0  0.86677  0.62677  0.17668  1.0000
  N   N6        1.0  0.98846  0.19331  0.19058  1.0000
  N   N7        1.0  0.8426300000000001  0.11559999999999995  0.20794000000000007  1.0000
  N   N8        1.0  0.92482  0.3968099999999999  0.10354000000000002  1.0000
  N   N9        1.0  0.7937599999999997  0.37816999999999995  0.03968  1.0000
  N   N10       1.0  0.66182  0.35935999999999996  0.81406  1.0000
  N   N11       1.0  0.8399199999999999  0.02386  0.64223  1.0000
  N   N12       1.0  0.8294899999999998  0.12613999999999997  0.67666  1.0000
  N   N13       1.0  0.12629  0.69278  0.69157  1.0000
  N   N14       1.0  0.33308000000000004  0.61528  0.70783  1.0000
  N   N15       1.0  0.07517999999999984  0.60319  0.8964600000000001  1.0000
  N   N16       1.0  0.20624000000000012  0.62183  0.96031  1.0000
  N   N17       1.0  0.33817999999999987  0.64063  0.18594000000000002  1.0000
  N   N18       1.0  0.16008  0.9761399999999999  0.35777  1.0000
  N   N19       1.0  0.17050999999999997  0.87386  0.32334000000000007  1.0000
  N   N20       1.0  0.8737099999999999  0.30721  0.3084200000000001  1.0000
  N   N21       1.0  0.6669200000000001  0.38471999999999995  0.29217000000000004  1.0000
  N   N22       1.0  0.92351  0.10356000000000001  0.39632  1.0000
  N   N23       1.0  0.7107499999999999  0.12251999999999998  0.46013000000000004  1.0000
  N   N24       1.0  0.33668999999999993  0.14040999999999998  0.6857400000000001  1.0000
  N   N25       1.0  0.006189999999999954  0.4752  0.85773  1.0000
  N   N26       1.0  0.13323000000000004  0.37322999999999995  0.82332  1.0000
  N   N27       1.0  0.011539999999999953  0.80669  0.80942  1.0000
  N   N28       1.0  0.1573700000000001  0.8843899999999999  0.7920600000000001  1.0000
