data_image0
_chemical_formula_structural       Cd6H132C150N24O24
_chemical_formula_sum              "Cd6 H132 C150 N24 O24"
_cell_length_a       12.14157
_cell_length_b       18.68938
_cell_length_c       20.74616
_cell_angle_alpha    75.29684
_cell_angle_beta     75.85458
_cell_angle_gamma    74.93751

_space_group_name_H-M_alt    "P 1"
_space_group_IT_number       1

loop_
  _space_group_symop_operation_xyz
  'x, y, z'

loop_
  _atom_site_type_symbol
  _atom_site_label
  _atom_site_symmetry_multiplicity
  _atom_site_fract_x
  _atom_site_fract_y
  _atom_site_fract_z
  _atom_site_occupancy
  Cd  Cd1       1.0  0.6441599999999998  0.31407000000000007  0.9560799999999999  1.0000
  Cd  Cd2       1.0  0.3427799999999999  0.08190000000000001  0.69018  1.0000
  Cd  Cd3       1.0  0.05060000000000001  0.6558  0.6424  1.0000
  Cd  Cd4       1.0  0.9494099999999994  0.3442  0.3576  1.0000
  Cd  Cd5       1.0  0.65723  0.91811  0.30982  1.0000
  Cd  Cd6       1.0  0.35585  0.68593  0.04392  1.0000
  H   H1        1.0  0.35787  0.06  0.19447  1.0000
  H   H2        1.0  0.03653000000000001  0.17761000000000002  0.4408599999999999  1.0000
  H   H3        1.0  0.0029199999999999825  0.78264  0.18904  1.0000
  H   H4        1.0  0.7346300000000002  0.12423000000000006  0.8465299999999999  1.0000
  H   H5        1.0  0.43772000000000005  0.24377000000000001  0.41900999999999994  1.0000
  H   H6        1.0  0.4631799999999999  0.31147  0.2967  1.0000
  H   H7        1.0  0.68492  0.63114  0.63566  1.0000
  H   H8        1.0  0.020670000000000036  0.76488  0.017499999999999998  1.0000
  H   H9        1.0  0.6268500000000001  0.99992  0.66409  1.0000
  H   H10       1.0  0.19558000000000014  0.8563700000000001  0.6767199999999999  1.0000
  H   H11       1.0  0.8580300000000001  0.09928999999999999  0.70852  1.0000
  H   H12       1.0  0.89581  0.45983  0.78653  1.0000
  H   H13       1.0  0.23722000000000018  0.65215  0.8287099999999998  1.0000
  H   H14       1.0  0.17741000000000007  0.53176  0.33276999999999995  1.0000
  H   H15       1.0  0.58307  0.2243400000000001  0.37532  1.0000
  H   H16       1.0  0.07662999999999996  0.1994  0.1229  1.0000
  H   H17       1.0  0.5433500000000001  0.4216500000000001  0.68967  1.0000
  H   H18       1.0  0.72805  0.82005  0.13072  1.0000
  H   H19       1.0  0.61278  0.9767100000000001  0.15312  1.0000
  H   H20       1.0  0.31508  0.36886  0.36434  1.0000
  H   H21       1.0  0.89436  0.16250999999999996  0.47568000000000005  1.0000
  H   H22       1.0  0.16743  0.2581800000000001  0.99136  1.0000
  H   H23       1.0  0.14191000000000012  0.52466  0.54712  1.0000
  H   H24       1.0  0.8558999999999999  0.9193400000000003  0.77549  1.0000
  H   H25       1.0  0.29030999999999996  0.28052  0.77263  1.0000
  H   H26       1.0  0.25212999999999997  0.7777099999999999  0.25765  1.0000
  H   H27       1.0  0.9793399999999998  0.23511999999999994  0.9825  1.0000
  H   H28       1.0  0.8048799999999998  0.64064  0.34604  1.0000
  H   H29       1.0  0.86192  0.70478  0.09136  1.0000
  H   H30       1.0  0.25016999999999995  0.9367  0.59067  1.0000
  H   H31       1.0  0.54414  0.78151  0.38963  1.0000
  H   H32       1.0  0.37316000000000005  8.999999999999698e-05  0.33591  1.0000
  H   H33       1.0  0.61604  0.38594  0.79874  1.0000
  H   H34       1.0  0.74984  0.06330999999999999  0.4093300000000001  1.0000
  H   H35       1.0  0.6489799999999999  0.15462  0.15433  1.0000
  H   H36       1.0  0.5545099999999997  0.27119  0.61637  1.0000
  H   H37       1.0  0.3872300000000001  0.02329000000000002  0.8468799999999999  1.0000
  H   H38       1.0  0.9712599999999999  0.82293  0.7054699999999999  1.0000
  H   H39       1.0  0.56228  0.75623  0.58099  1.0000
  H   H40       1.0  0.94478  0.22102  0.09281  1.0000
  H   H41       1.0  0.6512999999999999  0.038630000000000025  0.94759  1.0000
  H   H42       1.0  0.56033  0.8648899999999999  0.9831  1.0000
  H   H43       1.0  0.33749  0.21355  0.044  1.0000
  H   H44       1.0  0.96347  0.8223999999999999  0.55914  1.0000
  H   H45       1.0  0.7656199999999997  0.8871700000000001  0.43420999999999993  1.0000
  H   H46       1.0  0.5683299999999999  0.09752000000000002  0.36909  1.0000
  H   H47       1.0  0.43168000000000006  0.90249  0.63091  1.0000
  H   H48       1.0  0.005260000000000016  0.12415999999999998  0.5252  1.0000
  H   H49       1.0  0.21825999999999995  0.3277  0.43476  1.0000
  H   H50       1.0  0.01695000000000005  0.14047000000000004  0.6221499999999999  1.0000
  H   H51       1.0  0.8044299999999999  0.14363999999999996  0.32328  1.0000
  H   H52       1.0  0.9947500000000002  0.87584  0.47479999999999994  1.0000
  H   H53       1.0  0.39132000000000006  0.8125799999999999  0.4176  1.0000
  H   H54       1.0  0.8667  0.11727000000000001  0.90415  1.0000
  H   H55       1.0  0.8169700000000001  0.54104  0.5497099999999999  1.0000
  H   H56       1.0  0.6210200000000001  0.62668  0.32168  1.0000
  H   H57       1.0  0.83258  0.74183  0.00864  1.0000
  H   H58       1.0  0.5368299999999998  0.6885300000000001  0.7033  1.0000
  H   H59       1.0  0.13331000000000004  0.88274  0.09585  1.0000
  H   H60       1.0  0.72972  0.8822800000000003  0.52359  1.0000
  H   H61       1.0  0.26538000000000006  0.87578  0.15346999999999997  1.0000
  H   H62       1.0  0.8225999999999999  0.46824000000000005  0.66723  1.0000
  H   H63       1.0  0.4880199999999999  0.20564  0.04034  1.0000
  H   H64       1.0  0.8391600000000001  0.9208  0.12131999999999998  1.0000
  H   H65       1.0  0.95326  0.81114  0.08483  1.0000
  H   H66       1.0  0.4558699999999999  0.2185  0.61037  1.0000
  H   H67       1.0  0.35102999999999995  0.84538  0.84567  1.0000
  H   H68       1.0  0.12824999999999998  0.67194  0.30805  1.0000
  H   H69       1.0  0.7817500000000002  0.6723  0.5652399999999999  1.0000
  H   H70       1.0  0.7950899999999999  0.15432  0.01605  1.0000
  H   H71       1.0  0.4666699999999999  0.13111  0.23333  1.0000
  H   H72       1.0  0.45666  0.57835  0.31033  1.0000
  H   H73       1.0  0.21844999999999995  0.9425300000000001  0.87735  1.0000
  H   H74       1.0  0.5133900000000001  0.22453999999999996  0.27037  1.0000
  H   H75       1.0  0.8379300000000001  0.60367  0.6329  1.0000
  H   H76       1.0  0.7815600000000001  0.057479999999999996  0.12265  1.0000
  H   H77       1.0  0.3000600000000001  0.14178000000000002  0.9517099999999998  1.0000
  H   H78       1.0  0.5841299999999999  0.8807900000000002  0.60782  1.0000
  H   H79       1.0  0.16084000000000007  0.0792  0.87868  1.0000
  H   H80       1.0  0.27196  0.17995  0.86928  1.0000
  H   H81       1.0  0.81094  0.12930999999999998  0.63004  1.0000
  H   H82       1.0  0.6086900000000001  0.18742  0.5824  1.0000
  H   H83       1.0  0.10386000000000005  0.99281  0.51614  1.0000
  H   H84       1.0  0.96739  0.20501000000000003  0.67654  1.0000
  H   H85       1.0  0.16207999999999997  0.3963400000000001  0.3671  1.0000
  H   H86       1.0  0.028749999999999984  0.17707000000000003  0.29453  1.0000
  H   H87       1.0  0.7478800000000002  0.22228999999999996  0.74235  1.0000
  H   H88       1.0  0.5333399999999998  0.8689000000000002  0.76667  1.0000
  H   H89       1.0  0.03729  0.84773  0.83162  1.0000
  H   H90       1.0  0.37898999999999994  0.37332  0.67832  1.0000
  H   H91       1.0  0.96272  0.15227  0.16838  1.0000
  H   H92       1.0  0.41588  0.11921  0.39218  1.0000
  H   H93       1.0  0.27029  0.11773000000000002  0.47641  1.0000
  H   H94       1.0  0.72833  0.80387  0.48931  1.0000
  H   H95       1.0  0.8717599999999999  0.3280700000000001  0.69195  1.0000
  H   H96       1.0  0.4455  0.72881  0.38363  1.0000
  H   H97       1.0  0.19512999999999994  0.35937  0.65396  1.0000
  H   H98       1.0  0.20492000000000002  0.84568  0.9839499999999999  1.0000
  H   H99       1.0  0.34871  0.9613699999999998  0.05241  1.0000
  H   H100      1.0  0.29415000000000013  0.74384  0.3371799999999999  1.0000
  H   H101      1.0  0.14411  0.08066  0.22451  1.0000
  H   H102      1.0  0.10420000000000001  0.54017  0.21346999999999997  1.0000
  H   H103      1.0  0.04674999999999999  0.18886000000000006  0.9151699999999999  1.0000
  H   H104      1.0  0.64214  0.9400000000000002  0.80553  1.0000
  H   H105      1.0  0.98306  0.85953  0.37785  1.0000
  H   H106      1.0  0.48661999999999994  0.7754600000000001  0.72963  1.0000
  H   H107      1.0  0.18907  0.87069  0.36996  1.0000
  H   H108      1.0  0.3839699999999999  0.6140600000000002  0.20125  1.0000
  H   H109      1.0  0.7058599999999999  0.25616  0.66282  1.0000
  H   H110      1.0  0.89615  0.007190000000000011  0.48386  1.0000
  H   H111      1.0  0.10565000000000001  0.8374900000000001  0.5243199999999999  1.0000
  H   H112      1.0  0.43968  0.13512  0.0169  1.0000
  H   H113      1.0  0.18303999999999998  0.45896000000000003  0.45028999999999997  1.0000
  H   H114      1.0  0.8351099999999996  0.9730400000000001  0.60933  1.0000
  H   H115      1.0  0.47678000000000004  0.9906999999999999  0.94902  1.0000
  H   H116      1.0  0.23438999999999993  0.11283000000000003  0.56579  1.0000
  H   H117      1.0  0.05522999999999991  0.77899  0.90719  1.0000
  H   H118      1.0  0.13809000000000002  0.29522  0.90864  1.0000
  H   H119      1.0  0.6625199999999999  0.78645  0.956  1.0000
  H   H120      1.0  0.7096899999999998  0.71948  0.22736999999999996  1.0000
  H   H121      1.0  0.76279  0.34786  0.17129  1.0000
  H   H122      1.0  0.14198000000000002  0.90072  0.29148  1.0000
  H   H123      1.0  0.16489999999999996  0.026960000000000005  0.39067  1.0000
  H   H124      1.0  0.032609999999999965  0.795  0.32346  1.0000
  H   H125      1.0  0.52323  0.009300000000000001  0.05097999999999999  1.0000
  H   H126      1.0  0.8581  0.47535  0.45288  1.0000
  H   H127      1.0  0.99709  0.21736000000000003  0.81096  1.0000
  H   H128      1.0  0.9233800000000001  0.8005999999999999  0.8771  1.0000
  H   H129      1.0  0.41694  0.7756600000000001  0.62468  1.0000
  H   H130      1.0  0.51199  0.79436  0.9596599999999998  1.0000
  H   H131      1.0  0.27168  0.19613000000000005  0.51069  1.0000
  H   H132      1.0  0.69994  0.85822  0.04828999999999999  1.0000
  C   C1        1.0  0.23679999999999998  0.28838  0.34357  1.0000
  C   C2        1.0  0.4285499999999999  0.94978  0.4325  1.0000
  C   C3        1.0  0.95468  0.4097100000000001  0.77117  1.0000
  C   C4        1.0  0.5063999999999997  0.68737  0.15356  1.0000
  C   C5        1.0  0.27530000000000004  0.8605  0.75804  1.0000
  C   C6        1.0  0.9929299999999999  0.8251300000000001  0.88254  1.0000
  C   C7        1.0  0.31217  0.8192499999999999  0.81819  1.0000
  C   C8        1.0  0.8629699999999998  0.44383000000000006  0.50433  1.0000
  C   C9        1.0  0.87706  0.8323200000000001  0.7196  1.0000
  C   C10       1.0  0.92853  0.50511  0.31767  1.0000
  C   C11       1.0  0.43745999999999996  0.23867000000000002  0.94374  1.0000
  C   C12       1.0  0.5466600000000001  0.36257999999999996  0.79275  1.0000
  C   C13       1.0  0.70923  0.8659700000000001  0.48134999999999994  1.0000
  C   C14       1.0  0.7835899999999999  0.25  0.25287  1.0000
  C   C15       1.0  0.67438  0.2927  0.08676  1.0000
  C   C16       1.0  0.68784  0.18075000000000005  0.18181  1.0000
  C   C17       1.0  0.2920499999999999  0.9399500000000001  0.73103  1.0000
  C   C18       1.0  0.45796000000000003  0.7860900000000001  0.37925  1.0000
  C   C19       1.0  0.41290000000000004  0.35364999999999996  0.72513  1.0000
  C   C20       1.0  0.8348399999999999  0.14942000000000005  0.6691199999999999  1.0000
  C   C21       1.0  0.6936199999999999  0.8034599999999998  0.71612  1.0000
  C   C22       1.0  0.22990000000000005  0.99922  0.4220999999999999  1.0000
  C   C23       1.0  0.16796999999999998  0.67211  0.14045  1.0000
  C   C24       1.0  0.04531999999999998  0.5903  0.22881999999999997  1.0000
  C   C25       1.0  0.72343  0.80487  0.08383  1.0000
  C   C26       1.0  0.65325  0.015470000000000005  0.60929  1.0000
  C   C27       1.0  0.05338  0.11287000000000001  0.07901  1.0000
  C   C28       1.0  0.45674  0.25182999999999994  0.3111  1.0000
  C   C29       1.0  0.49572999999999995  0.1304  0.3996  1.0000
  C   C30       1.0  0.70796  0.06005  0.26897  1.0000
  C   C31       1.0  0.5871000000000001  0.64635  0.27487  1.0000
  C   C32       1.0  0.70259  0.25515  0.15549  1.0000
  C   C33       1.0  0.028700000000000017  0.82713  0.51201  1.0000
  C   C34       1.0  0.8945800000000002  0.32364  0.58538  1.0000
  C   C35       1.0  0.7700999999999999  0.000780000000000015  0.5779  1.0000
  C   C36       1.0  0.6897500000000004  0.8978800000000001  0.77529  1.0000
  C   C37       1.0  0.46107999999999993  0.04604999999999997  0.8468100000000001  1.0000
  C   C38       1.0  0.34675999999999985  0.9845300000000001  0.39071  1.0000
  C   C39       1.0  0.9424  0.18390999999999996  0.6386  1.0000
  C   C40       1.0  0.60592  0.12279000000000001  0.78999  1.0000
  C   C41       1.0  0.011300000000000044  0.27337  0.7846299999999999  1.0000
  C   C42       1.0  0.29742000000000013  0.74485  0.84451  1.0000
  C   C43       1.0  0.94662  0.8871300000000001  0.9209899999999999  1.0000
  C   C44       1.0  0.13138000000000002  0.64062  0.35962  1.0000
  C   C45       1.0  0.05761  0.8161  0.3614  1.0000
  C   C46       1.0  0.23373  0.34854  0.37938999999999995  1.0000
  C   C47       1.0  0.058920000000000014  0.75574  0.48643  1.0000
  C   C48       1.0  0.49361000000000016  0.31263  0.8464399999999999  1.0000
  C   C49       1.0  0.12277999999999996  0.35315  0.69638  1.0000
  C   C50       1.0  0.97131  0.17287000000000002  0.48799  1.0000
  C   C51       1.0  0.61057  0.05534999999999999  0.90326  1.0000
  C   C52       1.0  0.27048999999999995  0.79552  0.29977  1.0000
  C   C53       1.0  0.12294999999999999  0.16768  0.2804  1.0000
  C   C54       1.0  0.54205  0.21391  0.62075  1.0000
  C   C55       1.0  0.81017  0.03985  0.07418  1.0000
  C   C56       1.0  0.54327  0.74818  0.6888999999999998  1.0000
  C   C57       1.0  0.8406700000000003  0.43834000000000006  0.62592  1.0000
  C   C58       1.0  0.9389099999999998  0.8000600000000001  0.03847  1.0000
  C   C59       1.0  0.18803000000000003  0.11393  0.24212  1.0000
  C   C60       1.0  0.7632099999999999  0.71163  0.65643  1.0000
  C   C61       1.0  0.32563  0.70731  0.91324  1.0000
  C   C62       1.0  0.39409  0.87722  0.21001  1.0000
  C   C63       1.0  0.8119800000000001  0.8860699999999999  0.75788  1.0000
  C   C64       1.0  0.36143999999999993  0.30247  0.77785  1.0000
  C   C65       1.0  0.18255000000000002  0.21145000000000003  0.7085899999999999  1.0000
  C   C66       1.0  0.45334999999999986  0.6374200000000001  0.20725  1.0000
  C   C67       1.0  0.81796  0.09469  0.013450000000000002  1.0000
  C   C68       1.0  0.37211  0.14275  0.24566999999999997  1.0000
  C   C69       1.0  0.7295199999999998  0.20449000000000003  0.70023  1.0000
  C   C70       1.0  0.49110999999999994  0.9055800000000002  0.21043  1.0000
  C   C71       1.0  0.5862799999999999  0.89818  0.47479999999999994  1.0000
  C   C72       1.0  0.18983999999999993  0.9601500000000001  0.9258199999999999  1.0000
  C   C73       1.0  0.8398400000000001  0.75774  0.05467  1.0000
  C   C74       1.0  0.3409399999999999  0.8965  0.15373  1.0000
  C   C75       1.0  0.80434  0.019719999999999998  0.50673  1.0000
  C   C76       1.0  0.18346  0.20997999999999997  0.30074  1.0000
  C   C77       1.0  0.87904  0.94269  0.01037  1.0000
  C   C78       1.0  0.06109999999999999  0.19994000000000003  0.96152  1.0000
  C   C79       1.0  0.15839  0.03742000000000004  0.9261199999999999  1.0000
  C   C80       1.0  0.75017  0.29016  0.19126  1.0000
  C   C81       1.0  0.10832000000000001  0.6353  0.48176  1.0000
  C   C82       1.0  0.07147999999999999  0.49489999999999995  0.68233  1.0000
  C   C83       1.0  0.77346  0.17442  0.27693  1.0000
  C   C84       1.0  0.16412000000000002  0.71502  0.70751  1.0000
  C   C85       1.0  0.81655  0.79003  0.69926  1.0000
  C   C86       1.0  0.2764699999999999  0.9470400000000001  0.5357  1.0000
  C   C87       1.0  0.10374999999999998  0.28094  0.72965  1.0000
  C   C88       1.0  0.8320300000000003  0.32788999999999996  0.85955  1.0000
  C   C89       1.0  0.18205000000000005  0.9053199999999999  0.9865499999999999  1.0000
  C   C90       1.0  0.9502599999999999  0.58244  0.28223  1.0000
  C   C91       1.0  0.7247  0.1395  0.24196  1.0000
  C   C92       1.0  0.8772300000000001  0.64685  0.30362  1.0000
  C   C93       1.0  0.16516999999999996  0.8505800000000003  0.33088  1.0000
  C   C94       1.0  0.4519900000000001  0.83129  0.30967  1.0000
  C   C95       1.0  0.6278999999999999  0.85725  0.75433  1.0000
  C   C96       1.0  0.21641000000000002  0.75  0.74713  1.0000
  C   C97       1.0  0.94108  0.24426000000000003  0.51357  1.0000
  C   C98       1.0  0.3102599999999999  0.10213000000000001  0.22471  1.0000
  C   C99       1.0  0.2907699999999999  0.13403000000000007  0.51865  1.0000
  C   C100      1.0  0.76628  0.65146  0.62061  1.0000
  C   C101      1.0  0.9887000000000001  0.72663  0.21536999999999998  1.0000
  C   C102      1.0  0.51294  0.027679999999999982  0.90359  1.0000
  C   C103      1.0  0.06475999999999994  0.6623900000000001  0.1954  1.0000
  C   C104      1.0  0.4253  0.19608000000000006  0.01507  1.0000
  C   C105      1.0  0.50496  0.3823099999999999  0.73219  1.0000
  C   C106      1.0  0.39305999999999985  0.9319900000000001  0.5039  1.0000
  C   C107      1.0  0.40379  0.2825599999999999  0.83809  1.0000
  C   C108      1.0  0.57146  0.050220000000000015  0.5675  1.0000
  C   C109      1.0  0.00708  0.17488  0.11745999999999998  1.0000
  C   C110      1.0  0.63857  0.69753  0.22215  1.0000
  C   C111      1.0  0.6590700000000002  0.10351  0.84627  1.0000
  C   C112      1.0  0.8382400000000002  0.4796  0.55908  1.0000
  C   C113      1.0  0.27658000000000005  0.19513000000000003  0.9161699999999999  1.0000
  C   C114      1.0  0.60694  0.06801  0.4961  1.0000
  C   C115      1.0  0.5389299999999999  0.95395  0.15318999999999997  1.0000
  C   C116      1.0  0.49504999999999993  0.61769  0.26781  1.0000
  C   C117      1.0  0.5089000000000001  0.09442000000000003  0.78957  1.0000
  C   C118      1.0  0.22654999999999997  0.8255799999999999  0.72307  1.0000
  C   C119      1.0  0.72354  0.052959999999999986  0.4643  1.0000
  C   C120      1.0  0.8962599999999998  0.71906  0.27035  1.0000
  C   C121      1.0  0.15933999999999993  0.5616600000000003  0.37408  1.0000
  C   C122      1.0  0.8569800000000001  0.07414000000000001  0.95026  1.0000
  C   C123      1.0  0.5747099999999997  0.8039200000000002  0.98493  1.0000
  C   C124      1.0  0.8686199999999994  0.35938  0.64038  1.0000
  C   C125      1.0  0.8416200000000001  0.9625799999999999  0.07388  1.0000
  C   C126      1.0  0.10543000000000005  0.67636  0.41462  1.0000
  C   C127      1.0  0.8174599999999999  0.78855  0.29141  1.0000
  C   C128      1.0  0.30639  0.19654000000000002  0.28388  1.0000
  C   C129      1.0  0.8860799999999998  0.9969000000000002  0.9483999999999999  1.0000
  C   C130      1.0  0.5625499999999998  0.7613400000000002  0.05626  1.0000
  C   C131      1.0  0.83589  0.28498  0.29249  1.0000
  C   C132      1.0  0.4870699999999999  0.97232  0.09641  1.0000
  C   C133      1.0  0.04975000000000003  0.41756000000000004  0.71777  1.0000
  C   C134      1.0  0.5480199999999998  0.16871  0.69033  1.0000
  C   C135      1.0  0.5962200000000001  0.71744  0.16190999999999997  1.0000
  C   C136      1.0  0.49556  0.21524000000000001  0.37915  1.0000
  C   C137      1.0  0.41373000000000004  0.10182999999999999  0.5252  1.0000
  C   C138      1.0  0.14303  0.9258600000000001  0.04974  1.0000
  C   C139      1.0  0.12097000000000002  0.05732000000000006  0.9896299999999999  1.0000
  C   C140      1.0  0.38943999999999995  0.94465  0.09674  1.0000
  C   C141      1.0  0.24982999999999989  0.7098400000000002  0.80874  1.0000
  C   C142      1.0  0.11393000000000002  0.003100000000000002  0.05159999999999999  1.0000
  C   C143      1.0  0.19567000000000007  0.9802800000000002  0.49326999999999993  1.0000
  C   C144      1.0  0.50444  0.7847599999999999  0.62085  1.0000
  C   C145      1.0  0.93525  0.33761  0.8046  1.0000
  C   C146      1.0  0.89169  0.36469999999999997  0.51824  1.0000
  C   C147      1.0  0.16016  0.24226000000000003  0.9453299999999999  1.0000
  C   C148      1.0  0.13704000000000002  0.55617  0.49566999999999994  1.0000
  C   C149      1.0  0.5042799999999998  0.8696000000000004  0.6004  1.0000
  C   C150      1.0  0.16176999999999997  0.52041  0.4409199999999999  1.0000
  N   N1        1.0  0.9266699999999999  0.24740000000000004  0.58092  1.0000
  N   N2        1.0  0.4882200000000001  0.71539  0.08702  1.0000
  N   N3        1.0  0.07334000000000002  0.7526  0.41908  1.0000
  N   N4        1.0  0.85709  0.73226  0.66243  1.0000
  N   N5        1.0  0.37145  0.83032  0.27355  1.0000
  N   N6        1.0  0.4952500000000001  0.9001599999999998  0.52923  1.0000
  N   N7        1.0  0.9271600000000005  0.96052  0.89364  1.0000
  N   N8        1.0  0.3713599999999998  0.23550999999999997  0.90001  1.0000
  N   N9        1.0  0.92139  0.31368  0.47489999999999993  1.0000
  N   N10       1.0  0.5117900000000002  0.28461  0.91298  1.0000
  N   N11       1.0  0.45103000000000004  0.07208  0.58375  1.0000
  N   N12       1.0  0.07862000000000001  0.68633  0.5250899999999998  1.0000
  N   N13       1.0  0.52409  0.8763699999999999  0.27328  1.0000
  N   N14       1.0  0.54898  0.92792  0.41625  1.0000
  N   N15       1.0  0.5047599999999999  0.09984  0.47076999999999997  1.0000
  N   N16       1.0  0.47591999999999995  0.12363000000000002  0.72672  1.0000
  N   N17       1.0  0.33771999999999996  0.24695000000000003  0.31218  1.0000
  N   N18       1.0  0.6286500000000002  0.76449  0.09998999999999998  1.0000
  N   N19       1.0  0.6285599999999999  0.16968000000000005  0.72645  1.0000
  N   N20       1.0  0.14291999999999996  0.26774  0.3375699999999999  1.0000
  N   N21       1.0  0.07285  0.03948000000000001  0.10635999999999998  1.0000
  N   N22       1.0  0.66229  0.7530499999999999  0.68782  1.0000
  N   N23       1.0  0.08128  0.12721  0.008459999999999999  1.0000
  N   N24       1.0  0.9187300000000002  0.8728000000000001  0.9915399999999999  1.0000
  O   O1        1.0  0.24598  0.21626000000000004  0.64954  1.0000
  O   O2        1.0  0.61111  0.26076  0.06502  1.0000
  O   O3        1.0  0.3889  0.7392400000000001  0.9349799999999999  1.0000
  O   O4        1.0  0.9816900000000001  0.5500000000000002  0.68844  1.0000
  O   O5        1.0  0.82933  0.49759  0.35069  1.0000
  O   O6        1.0  0.018319999999999965  0.4500100000000002  0.31156  1.0000
  O   O7        1.0  0.14434999999999995  0.75287  0.64905  1.0000
  O   O8        1.0  0.24295  0.98165  0.6829  1.0000
  O   O9        1.0  0.7498099999999999  0.38584  0.86771  1.0000
  O   O10       1.0  0.85566  0.24714  0.35095  1.0000
  O   O11       1.0  0.25019  0.61416  0.13229  1.0000
  O   O12       1.0  0.17068000000000003  0.50241  0.64931  1.0000
  O   O13       1.0  0.8614399999999999  0.3492700000000001  0.26629  1.0000
  O   O14       1.0  0.63926  0.038410000000000014  0.24296999999999996  1.0000
  O   O15       1.0  0.36075  0.9615900000000001  0.75703  1.0000
  O   O16       1.0  0.8272  0.26188000000000006  0.8957499999999999  1.0000
  O   O17       1.0  0.7570500000000001  0.018350000000000005  0.3171  1.0000
  O   O18       1.0  0.13857  0.65074  0.73371  1.0000
  O   O19       1.0  0.75402  0.78374  0.35046  1.0000
  O   O20       1.0  0.1835  0.14915999999999996  0.75284  1.0000
  O   O21       1.0  0.28395999999999993  0.65162  0.94838  1.0000
  O   O22       1.0  0.71605  0.34839  0.05161999999999999  1.0000
  O   O23       1.0  0.81651  0.85084  0.24716  1.0000
  O   O24       1.0  0.17280999999999996  0.73813  0.10425  1.0000
