data_image0
_chemical_formula_structural       Nd8H72C168S12O72
_chemical_formula_sum              "Nd8 H72 C168 S12 O72"
_cell_length_a       15.43927
_cell_length_b       18.9732
_cell_length_c       30.50251
_cell_angle_alpha    96.46942000000001
_cell_angle_beta     90.09527999999999
_cell_angle_gamma    114.18633

_symmetry_space_group_name_H-M    'P 1'
_symmetry_Int_Tables_number       1

loop_
  _symmetry_equiv_pos_as_xyz
  'x,y,z'

loop_
  _atom_site_type_symbol
  _atom_site_label
  _atom_site_symmetry_multiplicity
  _atom_site_fract_x
  _atom_site_fract_y
  _atom_site_fract_z
  _atom_site_occupancy
  Nd  Nd1       1.0  0.33732999999999996  0.5894999999999999  0.64562  1.0000
  Nd  Nd2       1.0  0.45904  0.83013  0.65555  1.0000
  Nd  Nd3       1.0  0.2518  0.58791  0.1447  1.0000
  Nd  Nd4       1.0  0.3744700000000001  0.83091  0.15454999999999994  1.0000
  Nd  Nd5       1.0  0.7489  0.41271  0.85522  1.0000
  Nd  Nd6       1.0  0.62564  0.16953  0.8455099999999999  1.0000
  Nd  Nd7       1.0  0.6627599999999999  0.4105599999999999  0.3543499999999999  1.0000
  Nd  Nd8       1.0  0.5414199999999998  0.17016  0.34451  1.0000
  H   H1        1.0  0.4025999999999999  0.83353  0.80974  1.0000
  H   H2        1.0  0.39517999999999986  0.60465  0.77393  1.0000
  H   H3        1.0  0.38579  0.58143  0.8527699999999998  1.0000
  H   H4        1.0  0.36713  0.5751299999999999  0.9301199999999997  1.0000
  H   H5        1.0  0.34636  0.8148499999999999  0.0074  1.0000
  H   H6        1.0  0.33406  0.58431  0.010029999999999999  1.0000
  H   H7        1.0  0.7273399999999999  0.8392599999999998  0.65643  1.0000
  H   H8        1.0  0.63975  0.59159  0.6504099999999999  1.0000
  H   H9        1.0  0.8977  0.86108  0.65717  1.0000
  H   H10       1.0  0.05273999999999996  0.85972  0.6546799999999998  1.0000
  H   H11       1.0  0.19980999999999988  0.8358999999999998  0.65257  1.0000
  H   H12       1.0  0.036250000000000004  0.58998  0.65297  1.0000
  H   H13       1.0  0.07872  0.34067  0.59565  1.0000
  H   H14       1.0  0.13613999999999996  0.4026299999999999  0.73621  1.0000
  H   H15       1.0  0.98068  0.29584999999999995  0.7501599999999998  1.0000
  H   H16       1.0  0.8258499999999998  0.18886999999999993  0.7512399999999998  1.0000
  H   H17       1.0  0.69879  0.05775999999999998  0.5984  1.0000
  H   H18       1.0  0.67263  0.07047999999999999  0.73931  1.0000
  H   H19       1.0  0.4323499999999999  0.83271  0.30858  1.0000
  H   H20       1.0  0.2084099999999998  0.6038299999999998  0.27365  1.0000
  H   H21       1.0  0.1949199999999999  0.58183  0.35266  1.0000
  H   H22       1.0  0.20665  0.57588  0.4295  1.0000
  H   H23       1.0  0.4697599999999999  0.81488  0.50717  1.0000
  H   H24       1.0  0.24778999999999993  0.58532  0.50964  1.0000
  H   H25       1.0  0.11519999999999986  0.8400699999999998  0.15727999999999995  1.0000
  H   H26       1.0  0.95399  0.59237  0.15169  1.0000
  H   H27       1.0  0.9664299999999999  0.86142  0.15737  1.0000
  H   H28       1.0  0.8086299999999997  0.8594  0.15467  1.0000
  H   H29       1.0  0.6373  0.83434  0.15214  1.0000
  H   H30       1.0  0.55555  0.5885299999999998  0.15172  1.0000
  H   H31       1.0  0.26239  0.33972  0.09570999999999998  1.0000
  H   H32       1.0  0.26555  0.40163  0.23611999999999994  1.0000
  H   H33       1.0  0.31606  0.29644  0.25063  1.0000
  H   H34       1.0  0.36306  0.18905  0.25204  1.0000
  H   H35       1.0  0.35723  0.05739  0.09929  1.0000
  H   H36       1.0  0.39504  0.06944  0.24018  1.0000
  H   H37       1.0  0.56761  0.1673099999999999  0.6915099999999997  1.0000
  H   H38       1.0  0.7916399999999998  0.39613999999999994  0.72642  1.0000
  H   H39       1.0  0.8051399999999997  0.41810999999999987  0.6474199999999998  1.0000
  H   H40       1.0  0.79351  0.42412  0.57067  1.0000
  H   H41       1.0  0.5304599999999998  0.18548999999999996  0.49278  1.0000
  H   H42       1.0  0.7525099999999998  0.41508999999999996  0.4905899999999999  1.0000
  H   H43       1.0  0.88483  0.15985  0.84282  1.0000
  H   H44       1.0  0.04569999999999999  0.40749  0.84832  1.0000
  H   H45       1.0  0.033630000000000014  0.13857  0.84267  1.0000
  H   H46       1.0  0.19134999999999994  0.14064999999999997  0.84535  1.0000
  H   H47       1.0  0.3626499999999999  0.16571999999999992  0.8478999999999998  1.0000
  H   H48       1.0  0.44443  0.41151  0.84833  1.0000
  H   H49       1.0  0.73755  0.66039  0.9041499999999998  1.0000
  H   H50       1.0  0.7345  0.59876  0.7637099999999998  1.0000
  H   H51       1.0  0.6841099999999999  0.7040999999999998  0.7493  1.0000
  H   H52       1.0  0.63666  0.81175  0.74813  1.0000
  H   H53       1.0  0.6431199999999999  0.9425899999999999  0.9011299999999998  1.0000
  H   H54       1.0  0.60438  0.93113  0.7602799999999997  1.0000
  H   H55       1.0  0.59714  0.16637  0.19014  1.0000
  H   H56       1.0  0.60487  0.3953  0.22613  1.0000
  H   H57       1.0  0.6142399999999999  0.41869999999999996  0.14732999999999993  1.0000
  H   H58       1.0  0.63228  0.42508999999999997  0.07023  1.0000
  H   H59       1.0  0.65467  0.18647999999999998  0.9923299999999998  1.0000
  H   H60       1.0  0.66614  0.41688  0.99038  1.0000
  H   H61       1.0  0.2723699999999999  0.16051  0.34353  1.0000
  H   H62       1.0  0.3603399999999999  0.40825  0.34953  1.0000
  H   H63       1.0  0.10208  0.1389  0.34281  1.0000
  H   H64       1.0  0.9471599999999998  0.14041  0.34534  1.0000
  H   H65       1.0  0.8001699999999998  0.16437  0.34748  1.0000
  H   H66       1.0  0.9641499999999997  0.41025999999999985  0.3470099999999999  1.0000
  H   H67       1.0  0.9216  0.65957  0.40442  1.0000
  H   H68       1.0  0.86416  0.59755  0.2638  1.0000
  H   H69       1.0  0.01950999999999997  0.70439  0.24989  1.0000
  H   H70       1.0  0.1743999999999999  0.81183  0.24884  1.0000
  H   H71       1.0  0.30157  0.94215  0.40182  1.0000
  H   H72       1.0  0.32775  0.93002  0.26089999999999997  1.0000
  C   C1        1.0  0.40522999999999987  0.73325  0.74004  1.0000
  C   C2        1.0  0.4005199999999999  0.72033  0.78723  1.0000
  C   C3        1.0  0.39953999999999995  0.7791899999999999  0.81945  1.0000
  C   C4        1.0  0.39591  0.6497  0.79955  1.0000
  C   C5        1.0  0.39226  0.76435  0.86296  1.0000
  C   C6        1.0  0.39057  0.63659  0.8437199999999998  1.0000
  C   C7        1.0  0.38722  0.69397  0.87594  1.0000
  C   C8        1.0  0.3734499999999999  0.6894699999999998  0.9232899999999998  1.0000
  C   C9        1.0  0.36715999999999993  0.7561099999999998  0.9456999999999998  1.0000
  C   C10       1.0  0.36321  0.62741  0.94671  1.0000
  C   C11       1.0  0.3510599999999998  0.7631299999999998  0.99029  1.0000
  C   C12       1.0  0.3444599999999998  0.6324399999999999  0.9913299999999998  1.0000
  C   C13       1.0  0.33817  0.69944  0.01315  1.0000
  C   C14       1.0  0.31658999999999976  0.7024999999999998  0.06048999999999999  1.0000
  C   C15       1.0  0.5726299999999998  0.70454  0.65234  1.0000
  C   C16       1.0  0.6738699999999997  0.7148399999999999  0.65354  1.0000
  C   C17       1.0  0.74693  0.79027  0.65572  1.0000
  C   C18       1.0  0.6962799999999998  0.6499  0.65235  1.0000
  C   C19       1.0  0.8423  0.8024  0.65615  1.0000
  C   C20       1.0  0.7915199999999997  0.6632799999999999  0.6537099999999999  1.0000
  C   C21       1.0  0.86546  0.73822  0.6552  1.0000
  C   C22       1.0  0.9602699999999997  0.7376999999999999  0.65517  1.0000
  C   C23       1.0  0.04831999999999991  0.8009999999999999  0.6545699999999998  1.0000
  C   C24       1.0  0.9577899999999999  0.66262  0.65478  1.0000
  C   C25       1.0  0.13068  0.78775  0.65334  1.0000
  C   C26       1.0  0.03890999999999994  0.64828  0.6535699999999998  1.0000
  C   C27       1.0  0.12691  0.71237  0.65275  1.0000
  C   C28       1.0  0.21698000000000006  0.70095  0.6509299999999998  1.0000
  C   C29       1.0  0.20643999999999996  0.4436099999999999  0.65784  1.0000
  C   C30       1.0  0.11547999999999997  0.37793  0.66542  1.0000
  C   C31       1.0  0.05633999999999997  0.33032  0.6289999999999998  1.0000
  C   C32       1.0  0.088  0.36511999999999994  0.7088199999999998  1.0000
  C   C33       1.0  0.97076  0.27121  0.63732  1.0000
  C   C34       1.0  0.001179999999999978  0.30548  0.71648  1.0000
  C   C35       1.0  0.94138  0.25769  0.68046  1.0000
  C   C36       1.0  0.84922  0.19077999999999998  0.6811499999999998  1.0000
  C   C37       1.0  0.8108399999999998  0.15365  0.63852  1.0000
  C   C38       1.0  0.7992199999999998  0.16079  0.71789  1.0000
  C   C39       1.0  0.7274999999999998  0.08671999999999996  0.6313299999999998  1.0000
  C   C40       1.0  0.71389  0.09421000000000003  0.71141  1.0000
  C   C41       1.0  0.6791199999999997  0.05659999999999997  0.66863  1.0000
  C   C42       1.0  0.5921799999999999  0.98274  0.6623099999999998  1.0000
  C   C43       1.0  0.32742  0.73122  0.23908  1.0000
  C   C44       1.0  0.31996999999999987  0.71953  0.28653  1.0000
  C   C45       1.0  0.3807099999999999  0.77864  0.31861  1.0000
  C   C46       1.0  0.25341  0.64914  0.2991  1.0000
  C   C47       1.0  0.37355  0.76433  0.3622799999999999  1.0000
  C   C48       1.0  0.24587  0.63667  0.34335  1.0000
  C   C49       1.0  0.30741999999999997  0.6941999999999999  0.37542  1.0000
  C   C50       1.0  0.31645999999999996  0.6897899999999999  0.4227999999999999  1.0000
  C   C51       1.0  0.39025999999999983  0.7561299999999997  0.44526  1.0000
  C   C52       1.0  0.26352  0.62796  0.44619  1.0000
  C   C53       1.0  0.4129  0.76323  0.4899799999999999  1.0000
  C   C54       1.0  0.2867  0.63315  0.4909299999999999  1.0000
  C   C55       1.0  0.36053  0.69996  0.51295  1.0000
  C   C56       1.0  0.38319  0.70289  0.5606599999999998  1.0000
  C   C57       1.0  0.13439  0.70511  0.15343  1.0000
  C   C58       1.0  0.04363999999999996  0.7156499999999999  0.15453  1.0000
  C   C59       1.0  0.0463  0.79096  0.15643  1.0000
  C   C60       1.0  0.9559699999999999  0.65058  0.15329  1.0000
  C   C61       1.0  0.9629299999999995  0.8028299999999998  0.15657  1.0000
  C   C62       1.0  0.87407  0.66371  0.15424  1.0000
  C   C63       1.0  0.8752  0.7385  0.15545999999999993  1.0000
  C   C64       1.0  0.77955  0.7375  0.15506  1.0000
  C   C65       1.0  0.7544399999999997  0.8003999999999999  0.15438  1.0000
  C   C66       1.0  0.70677  0.66218  0.15440999999999994  1.0000
  C   C67       1.0  0.6584699999999998  0.78646  0.15286  1.0000
  C   C68       1.0  0.61103  0.6471499999999999  0.15267999999999995  1.0000
  C   C69       1.0  0.5866999999999999  0.71079  0.15191  1.0000
  C   C70       1.0  0.48471  0.69842  0.1498  1.0000
  C   C71       1.0  0.23505999999999996  0.44167  0.15768999999999994  1.0000
  C   C72       1.0  0.26181  0.37694  0.16543999999999998  1.0000
  C   C73       1.0  0.27438  0.32985999999999993  0.12921  1.0000
  C   C74       1.0  0.2769099999999999  0.36453  0.2089  1.0000
  C   C75       1.0  0.3015999999999999  0.2715199999999999  0.13787  1.0000
  C   C76       1.0  0.30493  0.30569  0.21687999999999993  1.0000
  C   C77       1.0  0.31715999999999994  0.25799999999999995  0.18108  1.0000
  C   C78       1.0  0.3413899999999999  0.19080999999999998  0.18196  1.0000
  C   C79       1.0  0.34185  0.15345  0.13938  1.0000
  C   C80       1.0  0.3609299999999999  0.16061999999999996  0.21874  1.0000
  C   C81       1.0  0.35748999999999986  0.08643  0.13216  1.0000
  C   C82       1.0  0.3783899999999999  0.09363999999999999  0.21224999999999994  1.0000
  C   C83       1.0  0.37519  0.05606999999999999  0.16942999999999994  1.0000
  C   C84       1.0  0.38813999999999993  0.9823799999999999  0.16289  1.0000
  C   C85       1.0  0.6726399999999998  0.26869  0.76103  1.0000
  C   C86       1.0  0.68004  0.28042999999999996  0.7135699999999999  1.0000
  C   C87       1.0  0.61927  0.2213299999999999  0.6814599999999997  1.0000
  C   C88       1.0  0.7466199999999998  0.35079999999999995  0.7009799999999998  1.0000
  C   C89       1.0  0.6263799999999998  0.23563  0.63777  1.0000
  C   C90       1.0  0.7541499999999999  0.3632699999999999  0.65672  1.0000
  C   C91       1.0  0.69258  0.30575  0.62464  1.0000
  C   C92       1.0  0.68364  0.31026  0.57726  1.0000
  C   C93       1.0  0.60985  0.24398  0.55477  1.0000
  C   C94       1.0  0.7366299999999998  0.37214  0.55391  1.0000
  C   C95       1.0  0.58726  0.23704  0.51006  1.0000
  C   C96       1.0  0.7134600000000001  0.36712  0.50919  1.0000
  C   C97       1.0  0.63957  0.30037  0.48712999999999995  1.0000
  C   C98       1.0  0.61676  0.29729  0.43939999999999996  1.0000
  C   C99       1.0  0.86551  0.29472999999999994  0.84655  1.0000
  C   C100      1.0  0.95625  0.28424  0.84546  1.0000
  C   C101      1.0  0.9536899999999998  0.20896999999999993  0.8435999999999998  1.0000
  C   C102      1.0  0.04387999999999996  0.34933999999999993  0.8466999999999998  1.0000
  C   C103      1.0  0.037090000000000005  0.19715  0.84344  1.0000
  C   C104      1.0  0.12585  0.3363  0.84578  1.0000
  C   C105      1.0  0.12479  0.26152  0.84454  1.0000
  C   C106      1.0  0.22044999999999995  0.26254  0.84497  1.0000
  C   C107      1.0  0.24555999999999992  0.19964999999999997  0.8456199999999999  1.0000
  C   C108      1.0  0.29319999999999996  0.33785999999999994  0.8456199999999999  1.0000
  C   C109      1.0  0.3415499999999999  0.21361999999999992  0.8471499999999997  1.0000
  C   C110      1.0  0.38895  0.3529  0.84734  1.0000
  C   C111      1.0  0.41334999999999994  0.28931  0.8481399999999998  1.0000
  C   C112      1.0  0.5154000000000001  0.30173  0.85026  1.0000
  C   C113      1.0  0.7651799999999997  0.55877  0.84223  1.0000
  C   C114      1.0  0.73822  0.62333  0.8344  1.0000
  C   C115      1.0  0.7256199999999998  0.6703299999999998  0.87067  1.0000
  C   C116      1.0  0.7231299999999999  0.63582  0.79096  1.0000
  C   C117      1.0  0.69839  0.7286899999999997  0.86205  1.0000
  C   C118      1.0  0.69518  0.69475  0.78303  1.0000
  C   C119      1.0  0.6829399999999998  0.7424  0.81888  1.0000
  C   C120      1.0  0.65862  0.80964  0.81813  1.0000
  C   C121      1.0  0.65817  0.8469  0.86075  1.0000
  C   C122      1.0  0.6388899999999998  0.84003  0.78149  1.0000
  C   C123      1.0  0.6425899999999998  0.91398  0.8681099999999999  1.0000
  C   C124      1.0  0.62119  0.90691  0.78814  1.0000
  C   C125      1.0  0.62421  0.94435  0.8309599999999999  1.0000
  C   C126      1.0  0.61065  0.017840000000000016  0.83747  1.0000
  C   C127      1.0  0.59479  0.2666  0.25991  1.0000
  C   C128      1.0  0.59941  0.2795699999999999  0.21271999999999994  1.0000
  C   C129      1.0  0.6002599999999999  0.22074  0.18042999999999995  1.0000
  C   C130      1.0  0.6040699999999998  0.35027  0.20048  1.0000
  C   C131      1.0  0.60749  0.23567  0.13692  1.0000
  C   C132      1.0  0.6093299999999998  0.36346  0.15633  1.0000
  C   C133      1.0  0.61252  0.3061  0.12403999999999997  1.0000
  C   C134      1.0  0.62633  0.31079  0.07672  1.0000
  C   C135      1.0  0.6329  0.24433999999999997  0.054159999999999986  1.0000
  C   C136      1.0  0.6365599999999998  0.37305  0.0535  1.0000
  C   C137      1.0  0.64969  0.23798000000000002  0.00961  1.0000
  C   C138      1.0  0.65584  0.36861  0.00894  1.0000
  C   C139      1.0  0.66271  0.30198  0.98695  1.0000
  C   C140      1.0  0.6846099999999999  0.2997499999999999  0.93958  1.0000
  C   C141      1.0  0.42729999999999996  0.29518  0.34765  1.0000
  C   C142      1.0  0.32609  0.28496  0.3464599999999999  1.0000
  C   C143      1.0  0.25293  0.20957999999999996  0.3442699999999999  1.0000
  C   C144      1.0  0.3037799999999999  0.34995  0.34761  1.0000
  C   C145      1.0  0.15757999999999997  0.19752999999999993  0.3438299999999999  1.0000
  C   C146      1.0  0.20856  0.33665  0.34621  1.0000
  C   C147      1.0  0.13452  0.26175  0.34476999999999997  1.0000
  C   C148      1.0  0.03975999999999997  0.26236  0.34485  1.0000
  C   C149      1.0  0.95163  0.19913999999999993  0.34544  1.0000
  C   C150      1.0  0.04241999999999996  0.3374899999999999  0.34523  1.0000
  C   C151      1.0  0.86933  0.2125  0.34667  1.0000
  C   C152      1.0  0.96142  0.35195  0.3464199999999999  1.0000
  C   C153      1.0  0.87335  0.28798  0.34722  1.0000
  C   C154      1.0  0.78364  0.29992  0.34905999999999987  1.0000
  C   C155      1.0  0.7935799999999997  0.55657  0.3421099999999999  1.0000
  C   C156      1.0  0.8846199999999997  0.62227  0.33459  1.0000
  C   C157      1.0  0.9438099999999999  0.6698399999999998  0.37103  1.0000
  C   C158      1.0  0.91223  0.63509  0.29121  1.0000
  C   C159      1.0  0.029369999999999872  0.7290099999999998  0.36271  1.0000
  C   C160      1.0  0.99903  0.69479  0.28357  1.0000
  C   C161      1.0  0.05877999999999999  0.74263  0.3195799999999999  1.0000
  C   C162      1.0  0.15098999999999996  0.80958  0.31892  1.0000
  C   C163      1.0  0.18942999999999982  0.8466199999999998  0.3615599999999999  1.0000
  C   C164      1.0  0.20105999999999993  0.83971  0.28222  1.0000
  C   C165      1.0  0.27289  0.91349  0.3688399999999999  1.0000
  C   C166      1.0  0.28643999999999975  0.9062399999999998  0.28878  1.0000
  C   C167      1.0  0.3214099999999999  0.9436899999999999  0.3315799999999999  1.0000
  C   C168      1.0  0.40887  0.01726999999999999  0.33775  1.0000
  S   S1        1.0  0.3791599999999999  0.82591  0.90879  1.0000
  S   S2        1.0  0.8381899999999999  0.59141  0.65434  1.0000
  S   S3        1.0  0.8854499999999997  0.20172999999999994  0.59674  1.0000
  S   S4        1.0  0.4490299999999999  0.8258  0.40836999999999996  1.0000
  S   S5        1.0  0.7552  0.59145  0.15437  1.0000
  S   S6        1.0  0.3179999999999999  0.20255999999999993  0.09756999999999998  1.0000
  S   S7        1.0  0.5509899999999996  0.17421999999999993  0.5916299999999998  1.0000
  S   S8        1.0  0.24475  0.40857  0.84565  1.0000
  S   S9        1.0  0.68198  0.7975  0.9024599999999998  1.0000
  S   S10       1.0  0.62069  0.17424999999999993  0.09105  1.0000
  S   S11       1.0  0.16198  0.40859  0.34563  1.0000
  S   S12       1.0  0.11467999999999999  0.79845  0.40329999999999994  1.0000
  O   O1        1.0  0.4253299999999999  0.8016599999999998  0.7305  1.0000
  O   O2        1.0  0.38982  0.67477  0.7105899999999998  1.0000
  O   O3        1.0  0.4664699999999999  0.89617  0.9198999999999998  1.0000
  O   O4        1.0  0.28957  0.83313  0.90244  1.0000
  O   O5        1.0  0.32927  0.768  0.08201  1.0000
  O   O6        1.0  0.28592  0.63877  0.07781  1.0000
  O   O7        1.0  0.55833  0.7663599999999999  0.66189  1.0000
  O   O8        1.0  0.5072799999999997  0.6364099999999998  0.6424499999999997  1.0000
  O   O9        1.0  0.8184199999999998  0.55728  0.69575  1.0000
  O   O10       1.0  0.8138600000000001  0.53954  0.61275  1.0000
  O   O11       1.0  0.2943699999999998  0.7613899999999998  0.64889  1.0000
  O   O12       1.0  0.21245999999999995  0.63252  0.65124  1.0000
  O   O13       1.0  0.22951999999999995  0.4576099999999999  0.6180999999999998  1.0000
  O   O14       1.0  0.25923  0.48853  0.6911599999999998  1.0000
  O   O15       1.0  0.92521  0.15131  0.57337  1.0000
  O   O16       1.0  0.84008  0.23945999999999998  0.57143  1.0000
  O   O17       1.0  0.57013  0.9419999999999998  0.62418  1.0000
  O   O18       1.0  0.5415799999999997  0.95768  0.6955  1.0000
  O   O19       1.0  0.37328  0.79962  0.22881999999999994  1.0000
  O   O20       1.0  0.28609999999999997  0.6714  0.21023  1.0000
  O   O21       1.0  0.43309  0.89622  0.4197  1.0000
  O   O22       1.0  0.5457999999999998  0.8325599999999999  0.4022999999999999  1.0000
  O   O23       1.0  0.43749  0.7681099999999997  0.58218  1.0000
  O   O24       1.0  0.3466  0.63929  0.57806  1.0000
  O   O25       1.0  0.21132  0.76687  0.16192  1.0000
  O   O26       1.0  0.1300699999999999  0.63647  0.14451999999999995  1.0000
  O   O27       1.0  0.74015  0.55731  0.19577999999999998  1.0000
  O   O28       1.0  0.72779  0.53957  0.11276  1.0000
  O   O29       1.0  0.46712  0.75862  0.14881999999999995  1.0000
  O   O30       1.0  0.4207799999999999  0.62939  0.14888  1.0000
  O   O31       1.0  0.22638  0.4556  0.11786  1.0000
  O   O32       1.0  0.22573999999999997  0.4858199999999999  0.19081999999999996  1.0000
  O   O33       1.0  0.22836  0.15338  0.07311  1.0000
  O   O34       1.0  0.4030999999999999  0.24007999999999996  0.07342999999999997  1.0000
  O   O35       1.0  0.37167  0.94255  0.12447  1.0000
  O   O36       1.0  0.41233  0.95674  0.19609  1.0000
  O   O37       1.0  0.62696  0.20019999999999996  0.7712199999999999  1.0000
  O   O38       1.0  0.71373  0.32842  0.78998  1.0000
  O   O39       1.0  0.5669399999999999  0.10380000000000003  0.58032  1.0000
  O   O40       1.0  0.45419999999999994  0.16741999999999993  0.5976899999999998  1.0000
  O   O41       1.0  0.5626  0.23204  0.41786  1.0000
  O   O42       1.0  0.65319  0.36082  0.42192999999999997  1.0000
  O   O43       1.0  0.78864  0.23299999999999998  0.8378999999999998  1.0000
  O   O44       1.0  0.86988  0.36336999999999997  0.8556099999999998  1.0000
  O   O45       1.0  0.25981  0.44272  0.80424  1.0000
  O   O46       1.0  0.27217  0.4605  0.88723  1.0000
  O   O47       1.0  0.53281  0.24142000000000002  0.85126  1.0000
  O   O48       1.0  0.5793599999999999  0.3706999999999998  0.8510999999999997  1.0000
  O   O49       1.0  0.7742599999999996  0.5452799999999999  0.8820999999999998  1.0000
  O   O50       1.0  0.7743999999999999  0.5144499999999999  0.8091299999999998  1.0000
  O   O51       1.0  0.7716599999999998  0.8465399999999998  0.9269299999999998  1.0000
  O   O52       1.0  0.59696  0.7597999999999999  0.9266299999999997  1.0000
  O   O53       1.0  0.62983  0.05863  0.87565  1.0000
  O   O54       1.0  0.58384  0.042509999999999985  0.80453  1.0000
  O   O55       1.0  0.5745699999999997  0.19816999999999996  0.2694199999999999  1.0000
  O   O56       1.0  0.61039  0.32513  0.28937999999999997  1.0000
  O   O57       1.0  0.53337  0.10397  0.08001  1.0000
  O   O58       1.0  0.7103299999999998  0.16712  0.09748  1.0000
  O   O59       1.0  0.67365  0.2348299999999999  0.9178899999999998  1.0000
  O   O60       1.0  0.7137199999999999  0.36373  0.9224499999999999  1.0000
  O   O61       1.0  0.44158999999999987  0.23334999999999997  0.33809999999999996  1.0000
  O   O62       1.0  0.49265999999999993  0.3633  0.35756  1.0000
  O   O63       1.0  0.18163000000000004  0.44273  0.30422  1.0000
  O   O64       1.0  0.18636  0.46049  0.3871999999999999  1.0000
  O   O65       1.0  0.7059699999999999  0.23970000000000002  0.35107  1.0000
  O   O66       1.0  0.7885899999999998  0.36848  0.34877  1.0000
  O   O67       1.0  0.77041  0.54262  0.38184  1.0000
  O   O68       1.0  0.74079  0.5115499999999998  0.30881  1.0000
  O   O69       1.0  0.07488  0.84887  0.42664  1.0000
  O   O70       1.0  0.15988999999999995  0.7606  0.4286  1.0000
  O   O71       1.0  0.4325999999999999  0.05775  0.37593  1.0000
  O   O72       1.0  0.45851  0.042479999999999976  0.30434  1.0000
