data_image0
_chemical_formula_structural       Mn8H48C120S24N8O32
_chemical_formula_sum              "Mn8 H48 C120 S24 N8 O32"
_cell_length_a       7.62676
_cell_length_b       19.15234
_cell_length_c       25.62113
_cell_angle_alpha    90.07023
_cell_angle_beta     90.0
_cell_angle_gamma    90.0

_space_group_name_H-M_alt    "P 1"
_space_group_IT_number       1

loop_
  _space_group_symop_operation_xyz
  'x, y, z'

loop_
  _atom_site_type_symbol
  _atom_site_label
  _atom_site_symmetry_multiplicity
  _atom_site_fract_x
  _atom_site_fract_y
  _atom_site_fract_z
  _atom_site_occupancy
  Mn  Mn1       1.0  0.72931  0.81146  0.84307  1.0000
  Mn  Mn2       1.0  0.27023  0.68785  0.34341  1.0000
  Mn  Mn3       1.0  0.22932  0.18853  0.6569299999999999  1.0000
  Mn  Mn4       1.0  0.77022  0.31215  0.15658999999999998  1.0000
  Mn  Mn5       1.0  0.27069  0.18853  0.15693  1.0000
  Mn  Mn6       1.0  0.72977  0.31215  0.65659  1.0000
  Mn  Mn7       1.0  0.7706799999999998  0.81146  0.34307  1.0000
  Mn  Mn8       1.0  0.22978  0.68784  0.8434099999999999  1.0000
  H   H1        1.0  0.32593  0.89913  0.9843299999999998  1.0000
  H   H2        1.0  0.7278599999999997  0.05207  0.94832  1.0000
  H   H3        1.0  0.80954  0.97898  0.8735799999999999  1.0000
  H   H4        1.0  0.4155799999999999  0.8358200000000001  0.90551  1.0000
  H   H5        1.0  0.3952  0.59938  0.22335999999999995  1.0000
  H   H6        1.0  0.37426  0.5874  0.96799  1.0000
  H   H7        1.0  0.67374  0.60076  0.48448  1.0000
  H   H8        1.0  0.2713099999999999  0.44796  0.44857  1.0000
  H   H9        1.0  0.18875  0.52115  0.37406  1.0000
  H   H10       1.0  0.5832299999999999  0.66421  0.40593  1.0000
  H   H11       1.0  0.60379  0.8983000000000001  0.7240299999999998  1.0000
  H   H12       1.0  0.62571  0.91342  0.46867  1.0000
  H   H13       1.0  0.82593  0.10086  0.51567  1.0000
  H   H14       1.0  0.22786  0.94792  0.55168  1.0000
  H   H15       1.0  0.30953999999999987  0.02101  0.62642  1.0000
  H   H16       1.0  0.91558  0.16417  0.59449  1.0000
  H   H17       1.0  0.8951899999999998  0.40062  0.27664  1.0000
  H   H18       1.0  0.8742499999999997  0.41259  0.53201  1.0000
  H   H19       1.0  0.17373999999999995  0.39924  0.01552  1.0000
  H   H20       1.0  0.7713  0.55204  0.05143  1.0000
  H   H21       1.0  0.6887499999999998  0.47885  0.12594  1.0000
  H   H22       1.0  0.08322999999999997  0.33578  0.09407  1.0000
  H   H23       1.0  0.10378  0.10169  0.77597  1.0000
  H   H24       1.0  0.12571  0.08657  0.03133  1.0000
  H   H25       1.0  0.67407  0.10086  0.01567  1.0000
  H   H26       1.0  0.27215  0.94792  0.05168  1.0000
  H   H27       1.0  0.19046  0.02102  0.12642  1.0000
  H   H28       1.0  0.58442  0.16417  0.09449  1.0000
  H   H29       1.0  0.6048  0.40061  0.77664  1.0000
  H   H30       1.0  0.62574  0.4126  0.03201  1.0000
  H   H31       1.0  0.32626  0.39923  0.51552  1.0000
  H   H32       1.0  0.7286899999999997  0.55203  0.55143  1.0000
  H   H33       1.0  0.8112499999999998  0.47884000000000004  0.6259399999999999  1.0000
  H   H34       1.0  0.41676999999999986  0.33578  0.59407  1.0000
  H   H35       1.0  0.3962099999999999  0.1017  0.27597  1.0000
  H   H36       1.0  0.37429  0.08657  0.53133  1.0000
  H   H37       1.0  0.17407  0.89914  0.48433  1.0000
  H   H38       1.0  0.7721399999999998  0.05207  0.44832  1.0000
  H   H39       1.0  0.69046  0.97898  0.37358  1.0000
  H   H40       1.0  0.08441999999999997  0.8358200000000001  0.40551  1.0000
  H   H41       1.0  0.10480999999999997  0.59938  0.72336  1.0000
  H   H42       1.0  0.12574999999999995  0.5874  0.46798999999999996  1.0000
  H   H43       1.0  0.8262599999999998  0.60076  0.98448  1.0000
  H   H44       1.0  0.22869999999999993  0.44796  0.94857  1.0000
  H   H45       1.0  0.31125  0.52115  0.87406  1.0000
  H   H46       1.0  0.9167699999999998  0.66421  0.90593  1.0000
  H   H47       1.0  0.8962199999999998  0.8983000000000001  0.22402999999999998  1.0000
  H   H48       1.0  0.87429  0.91342  0.9686699999999999  1.0000
  C   C1        1.0  0.5221699999999998  0.98113  0.9756699999999998  1.0000
  C   C2        1.0  0.43361  0.91982  0.9613399999999999  1.0000
  C   C3        1.0  0.65497  0.00412  0.9414999999999999  1.0000
  C   C4        1.0  0.70062  0.96355  0.8984799999999998  1.0000
  C   C5        1.0  0.48376999999999987  0.8833  0.91692  1.0000
  C   C6        1.0  0.5856799999999998  0.71494  0.26957  1.0000
  C   C7        1.0  0.5660399999999998  0.68964  0.21564999999999998  1.0000
  C   C8        1.0  0.46799  0.63357  0.19749  1.0000
  C   C9        1.0  0.47235  0.62985  0.14247  1.0000
  C   C10       1.0  0.57517  0.68312  0.11949  1.0000
  C   C11       1.0  0.56996  0.68099  0.06424  1.0000
  C   C12       1.0  0.46178999999999987  0.62645  0.04548999999999999  1.0000
  C   C13       1.0  0.4492799999999999  0.62473  0.9906  1.0000
  C   C14       1.0  0.54655  0.67771  0.96778  1.0000
  C   C15       1.0  0.56591  0.69503  0.91213  1.0000
  C   C16       1.0  0.4774499999999999  0.51884  0.47575  1.0000
  C   C17       1.0  0.56598  0.58014  0.4615  1.0000
  C   C18       1.0  0.3442899999999999  0.49585999999999997  0.44172  1.0000
  C   C19       1.0  0.29802  0.53646  0.39887  1.0000
  C   C20       1.0  0.5151899999999998  0.61672  0.41725999999999996  1.0000
  C   C21       1.0  0.4144799999999999  0.7821  0.7693  1.0000
  C   C22       1.0  0.4342199999999999  0.80785  0.71554  1.0000
  C   C23       1.0  0.5315299999999998  0.8643400000000001  0.69784  1.0000
  C   C24       1.0  0.5268899999999997  0.8689000000000001  0.64288  1.0000
  C   C25       1.0  0.42459  0.81581  0.61942  1.0000
  C   C26       1.0  0.4301799999999999  0.8187  0.5642  1.0000
  C   C27       1.0  0.53749  0.87378  0.54595  1.0000
  C   C28       1.0  0.55083  0.8759000000000001  0.49107  1.0000
  C   C29       1.0  0.4550599999999999  0.82277  0.46782  1.0000
  C   C30       1.0  0.43768  0.80527  0.4121099999999999  1.0000
  C   C31       1.0  0.02217  0.01887  0.52433  1.0000
  C   C32       1.0  0.9335999999999998  0.08017  0.53867  1.0000
  C   C33       1.0  0.15496999999999994  0.99587  0.5585  1.0000
  C   C34       1.0  0.20062  0.03644  0.60152  1.0000
  C   C35       1.0  0.9837699999999998  0.1167  0.58308  1.0000
  C   C36       1.0  0.08567999999999998  0.28505  0.23043  1.0000
  C   C37       1.0  0.06604  0.31036  0.28435  1.0000
  C   C38       1.0  0.9679899999999998  0.36642  0.30251  1.0000
  C   C39       1.0  0.97235  0.37014  0.35753  1.0000
  C   C40       1.0  0.07517  0.31688  0.38051  1.0000
  C   C41       1.0  0.06996  0.319  0.43575999999999987  1.0000
  C   C42       1.0  0.9617899999999998  0.37355  0.4545099999999999  1.0000
  C   C43       1.0  0.94928  0.37526  0.5094  1.0000
  C   C44       1.0  0.04655  0.32228  0.53222  1.0000
  C   C45       1.0  0.06591  0.30496  0.58787  1.0000
  C   C46       1.0  0.9774499999999998  0.48116  0.02425  1.0000
  C   C47       1.0  0.06598  0.41985999999999996  0.0385  1.0000
  C   C48       1.0  0.8442899999999998  0.50413  0.05828  1.0000
  C   C49       1.0  0.79802  0.46354  0.10112999999999998  1.0000
  C   C50       1.0  0.01519  0.38328  0.08274  1.0000
  C   C51       1.0  0.91448  0.2179  0.7307  1.0000
  C   C52       1.0  0.93421  0.19214  0.78446  1.0000
  C   C53       1.0  0.031519999999999986  0.13566  0.80216  1.0000
  C   C54       1.0  0.026879999999999994  0.13109  0.8571199999999999  1.0000
  C   C55       1.0  0.9245799999999997  0.18418  0.88058  1.0000
  C   C56       1.0  0.93017  0.18129  0.9357999999999999  1.0000
  C   C57       1.0  0.03748999999999999  0.12621  0.95405  1.0000
  C   C58       1.0  0.05081999999999998  0.1241  0.00893  1.0000
  C   C59       1.0  0.95506  0.17723  0.03218  1.0000
  C   C60       1.0  0.9376799999999997  0.19472  0.08789  1.0000
  C   C61       1.0  0.47783  0.01887  0.02433  1.0000
  C   C62       1.0  0.56639  0.08017  0.03866  1.0000
  C   C63       1.0  0.34503  0.99587  0.058499999999999996  1.0000
  C   C64       1.0  0.29938  0.03644  0.10152  1.0000
  C   C65       1.0  0.51623  0.1167  0.08308  1.0000
  C   C66       1.0  0.41432  0.28505  0.73043  1.0000
  C   C67       1.0  0.43396  0.31036  0.7843499999999999  1.0000
  C   C68       1.0  0.53201  0.36642  0.8025099999999998  1.0000
  C   C69       1.0  0.52765  0.37014  0.8575399999999999  1.0000
  C   C70       1.0  0.4248299999999999  0.31688  0.8805099999999999  1.0000
  C   C71       1.0  0.43003999999999987  0.319  0.9357599999999999  1.0000
  C   C72       1.0  0.5382099999999999  0.37355  0.95452  1.0000
  C   C73       1.0  0.55072  0.37526  0.0094  1.0000
  C   C74       1.0  0.45344999999999996  0.32229  0.03222  1.0000
  C   C75       1.0  0.43409  0.30496  0.08787  1.0000
  C   C76       1.0  0.52255  0.48116  0.52425  1.0000
  C   C77       1.0  0.4340199999999999  0.41985999999999996  0.5385  1.0000
  C   C78       1.0  0.6557099999999998  0.50413  0.55828  1.0000
  C   C79       1.0  0.70198  0.46353  0.60113  1.0000
  C   C80       1.0  0.48481  0.38328  0.58274  1.0000
  C   C81       1.0  0.58552  0.2179  0.2307  1.0000
  C   C82       1.0  0.56578  0.19214  0.28446  1.0000
  C   C83       1.0  0.4684699999999999  0.13566  0.30216  1.0000
  C   C84       1.0  0.47312  0.13109  0.35712  1.0000
  C   C85       1.0  0.57541  0.18419  0.3805799999999999  1.0000
  C   C86       1.0  0.56982  0.18129  0.4358  1.0000
  C   C87       1.0  0.46250999999999987  0.12622  0.45405  1.0000
  C   C88       1.0  0.4491799999999999  0.12409  0.50893  1.0000
  C   C89       1.0  0.54494  0.17723  0.53218  1.0000
  C   C90       1.0  0.56232  0.19471999999999998  0.5879  1.0000
  C   C91       1.0  0.97783  0.98113  0.47567  1.0000
  C   C92       1.0  0.06639999999999997  0.91982  0.46134  1.0000
  C   C93       1.0  0.8450299999999997  0.00412  0.4415  1.0000
  C   C94       1.0  0.79938  0.9635600000000001  0.39848  1.0000
  C   C95       1.0  0.01623  0.8833  0.41692  1.0000
  C   C96       1.0  0.9143199999999998  0.71494  0.76957  1.0000
  C   C97       1.0  0.9339599999999998  0.68963  0.71565  1.0000
  C   C98       1.0  0.03201  0.63357  0.69749  1.0000
  C   C99       1.0  0.027649999999999994  0.62985  0.64247  1.0000
  C   C100      1.0  0.92483  0.68311  0.61949  1.0000
  C   C101      1.0  0.93004  0.68099  0.56424  1.0000
  C   C102      1.0  0.03820999999999999  0.62644  0.54549  1.0000
  C   C103      1.0  0.05071999999999999  0.62473  0.49059999999999987  1.0000
  C   C104      1.0  0.9534599999999999  0.67771  0.46778  1.0000
  C   C105      1.0  0.9340899999999998  0.69503  0.4121299999999999  1.0000
  C   C106      1.0  0.02255  0.51883  0.97575  1.0000
  C   C107      1.0  0.93402  0.58013  0.9614999999999999  1.0000
  C   C108      1.0  0.15571  0.49585999999999997  0.9417199999999999  1.0000
  C   C109      1.0  0.20197999999999994  0.53646  0.89887  1.0000
  C   C110      1.0  0.98481  0.61671  0.9172599999999999  1.0000
  C   C111      1.0  0.08552  0.7821  0.2693  1.0000
  C   C112      1.0  0.06578999999999997  0.80786  0.21553999999999998  1.0000
  C   C113      1.0  0.96848  0.8643400000000001  0.19783999999999993  1.0000
  C   C114      1.0  0.97312  0.8689000000000001  0.14288  1.0000
  C   C115      1.0  0.07542  0.81581  0.11942  1.0000
  C   C116      1.0  0.06983  0.8187  0.0642  1.0000
  C   C117      1.0  0.9625099999999999  0.87378  0.04594999999999999  1.0000
  C   C118      1.0  0.94918  0.8759000000000001  0.9910799999999998  1.0000
  C   C119      1.0  0.04493999999999999  0.82276  0.96782  1.0000
  C   C120      1.0  0.062319999999999987  0.80527  0.91211  1.0000
  S   S1        1.0  0.6658399999999998  0.73726  0.16581999999999997  1.0000
  S   S2        1.0  0.36806  0.57697  0.09584  1.0000
  S   S3        1.0  0.65649  0.72961  0.01372  1.0000
  S   S4        1.0  0.33464999999999995  0.76082  0.66526  1.0000
  S   S5        1.0  0.6304299999999998  0.92274  0.59684  1.0000
  S   S6        1.0  0.34513  0.77029  0.51329  1.0000
  S   S7        1.0  0.16583999999999993  0.26274  0.3341799999999999  1.0000
  S   S8        1.0  0.8680599999999998  0.42302999999999996  0.40416  1.0000
  S   S9        1.0  0.15648999999999993  0.27038  0.48628  1.0000
  S   S10       1.0  0.83465  0.23917  0.8347499999999999  1.0000
  S   S11       1.0  0.13042999999999993  0.07725  0.9031599999999997  1.0000
  S   S12       1.0  0.8451199999999998  0.22970999999999997  0.98671  1.0000
  S   S13       1.0  0.33416  0.26274  0.83418  1.0000
  S   S14       1.0  0.6319399999999997  0.42302  0.9041599999999999  1.0000
  S   S15       1.0  0.34351  0.27038  0.98628  1.0000
  S   S16       1.0  0.66535  0.23917  0.33475  1.0000
  S   S17       1.0  0.3695699999999999  0.07726  0.40316  1.0000
  S   S18       1.0  0.65487  0.22970999999999997  0.48671  1.0000
  S   S19       1.0  0.8341599999999998  0.73725  0.6658199999999999  1.0000
  S   S20       1.0  0.13193999999999995  0.57697  0.59584  1.0000
  S   S21       1.0  0.8435099999999999  0.72961  0.51372  1.0000
  S   S22       1.0  0.16535  0.76082  0.16525  1.0000
  S   S23       1.0  0.8695699999999997  0.92274  0.09684  1.0000
  S   S24       1.0  0.15488  0.77029  0.01329  1.0000
  N   N1        1.0  0.6195799999999998  0.90296  0.8864099999999999  1.0000
  N   N2        1.0  0.37887  0.5971  0.38694  1.0000
  N   N3        1.0  0.11957999999999998  0.09703  0.61359  1.0000
  N   N4        1.0  0.8788599999999998  0.40289  0.11306  1.0000
  N   N5        1.0  0.38042  0.09704  0.11359  1.0000
  N   N6        1.0  0.62113  0.40289  0.61306  1.0000
  N   N7        1.0  0.8804199999999998  0.90296  0.38641  1.0000
  N   N8        1.0  0.12114  0.5971  0.88694  1.0000
  O   O1        1.0  0.5165  0.68059  0.30676  1.0000
  O   O2        1.0  0.6752199999999998  0.77138  0.27498  1.0000
  O   O3        1.0  0.68092  0.74255  0.9022999999999998  1.0000
  O   O4        1.0  0.4740299999999999  0.66306  0.8782299999999998  1.0000
  O   O5        1.0  0.4833499999999999  0.81612  0.8068  1.0000
  O   O6        1.0  0.3248499999999999  0.72566  0.77458  1.0000
  O   O7        1.0  0.3242299999999999  0.7572  0.40215  1.0000
  O   O8        1.0  0.5296999999999997  0.83731  0.37834  1.0000
  O   O9        1.0  0.016499999999999994  0.31941  0.19323999999999997  1.0000
  O   O10       1.0  0.17522  0.22861999999999996  0.22502  1.0000
  O   O11       1.0  0.18091999999999994  0.25744  0.5977  1.0000
  O   O12       1.0  0.97403  0.33693  0.62177  1.0000
  O   O13       1.0  0.98335  0.18387  0.6931999999999999  1.0000
  O   O14       1.0  0.8248499999999998  0.27433  0.72542  1.0000
  O   O15       1.0  0.8242199999999997  0.2428  0.09785  1.0000
  O   O16       1.0  0.029699999999999994  0.16269  0.12166  1.0000
  O   O17       1.0  0.4834999999999999  0.3194  0.6932399999999999  1.0000
  O   O18       1.0  0.32478  0.22861000000000004  0.72502  1.0000
  O   O19       1.0  0.31908  0.25745  0.0977  1.0000
  O   O20       1.0  0.52597  0.33693  0.12176999999999999  1.0000
  O   O21       1.0  0.51665  0.18387  0.1932  1.0000
  O   O22       1.0  0.6751499999999998  0.27434  0.22542  1.0000
  O   O23       1.0  0.67577  0.2428  0.59785  1.0000
  O   O24       1.0  0.47029999999999994  0.16269  0.62166  1.0000
  O   O25       1.0  0.9834999999999998  0.68059  0.80676  1.0000
  O   O26       1.0  0.8247799999999997  0.77138  0.77498  1.0000
  O   O27       1.0  0.81908  0.74255  0.40229999999999994  1.0000
  O   O28       1.0  0.02597  0.66307  0.37823  1.0000
  O   O29       1.0  0.016649999999999995  0.81613  0.3068  1.0000
  O   O30       1.0  0.17514999999999994  0.72566  0.27458  1.0000
  O   O31       1.0  0.17578  0.7572  0.90215  1.0000
  O   O32       1.0  0.9702999999999998  0.8373000000000002  0.87834  1.0000
