data_image0
_chemical_formula_structural       Cd8H144C160N48
_chemical_formula_sum              "Cd8 H144 C160 N48"
_cell_length_a       15.96714
_cell_length_b       15.42069
_cell_length_c       18.27936
_cell_angle_alpha    90.01612
_cell_angle_beta     90.00806
_cell_angle_gamma    90.00135999999999

_space_group_name_H-M_alt    "P 1"
_space_group_IT_number       1

loop_
  _space_group_symop_operation_xyz
  'x, y, z'

loop_
  _atom_site_type_symbol
  _atom_site_label
  _atom_site_symmetry_multiplicity
  _atom_site_fract_x
  _atom_site_fract_y
  _atom_site_fract_z
  _atom_site_occupancy
  Cd  Cd1       1.0  0.07998  0.40239  0.84669  1.0000
  Cd  Cd2       1.0  0.4198  0.90258  0.15307  1.0000
  Cd  Cd3       1.0  0.08009  0.9024  0.65348  1.0000
  Cd  Cd4       1.0  0.42022  0.40241000000000005  0.34632  1.0000
  Cd  Cd5       1.0  0.91991  0.0976  0.34652000000000005  1.0000
  Cd  Cd6       1.0  0.57978  0.59758  0.65368  1.0000
  Cd  Cd7       1.0  0.92003  0.5976  0.15331  1.0000
  Cd  Cd8       1.0  0.5802  0.09742  0.84693  1.0000
  H   H1        1.0  0.01472  0.20162000000000005  0.06985  1.0000
  H   H2        1.0  0.95594  0.2029  0.19612  1.0000
  H   H3        1.0  0.73183  0.3169600000000001  0.10452  1.0000
  H   H4        1.0  0.80102  0.31233  0.98463  1.0000
  H   H5        1.0  0.60306  0.47381  0.23333999999999996  1.0000
  H   H6        1.0  0.73414  0.41252  0.18319  1.0000
  H   H7        1.0  0.71857  0.21389  0.34985  1.0000
  H   H8        1.0  0.59018  0.28717  0.39599  1.0000
  H   H9        1.0  0.97256  0.17637  0.77909  1.0000
  H   H10       1.0  0.04785  0.03769  0.75564  1.0000
  H   H11       1.0  0.20115  0.09467  0.9447900000000001  1.0000
  H   H12       1.0  0.1203  0.23166  0.95888  1.0000
  H   H13       1.0  0.28755  0.87969  0.045500000000000006  1.0000
  H   H14       1.0  0.17746  0.95909  0.97746  1.0000
  H   H15       1.0  0.31154  0.89754  0.77876  1.0000
  H   H16       1.0  0.41544  0.81958  0.85553  1.0000
  H   H17       1.0  0.83495  0.22025  0.26852  1.0000
  H   H18       1.0  0.17007  0.95982  0.77692  1.0000
  H   H19       1.0  0.48564  0.70079  0.9303200000000001  1.0000
  H   H20       1.0  0.54384  0.70326  0.80389  1.0000
  H   H21       1.0  0.76815  0.81704  0.89562  1.0000
  H   H22       1.0  0.69938  0.81121  0.015620000000000002  1.0000
  H   H23       1.0  0.89759  0.97338  0.7672  1.0000
  H   H24       1.0  0.76609  0.91272  0.81708  1.0000
  H   H25       1.0  0.78089  0.71427  0.65013  1.0000
  H   H26       1.0  0.90981  0.78688  0.60427  1.0000
  H   H27       1.0  0.52705  0.67768  0.22075  1.0000
  H   H28       1.0  0.45192  0.53914  0.24472  1.0000
  H   H29       1.0  0.29876  0.59484  0.05517  1.0000
  H   H30       1.0  0.37943  0.73179  0.04076  1.0000
  H   H31       1.0  0.21207  0.38016  0.95467  1.0000
  H   H32       1.0  0.32233  0.45975  0.0226  1.0000
  H   H33       1.0  0.18923  0.39738  0.22155  1.0000
  H   H34       1.0  0.08509  0.31949  0.14495  1.0000
  H   H35       1.0  0.66454  0.72114  0.73143  1.0000
  H   H36       1.0  0.3304800000000001  0.46021  0.2231  1.0000
  H   H37       1.0  0.01459  0.70116  0.43013  1.0000
  H   H38       1.0  0.95612  0.7032  0.30379  1.0000
  H   H39       1.0  0.73186  0.81691  0.39558  1.0000
  H   H40       1.0  0.80089  0.81158  0.51549  1.0000
  H   H41       1.0  0.60273  0.97354  0.26702  1.0000
  H   H42       1.0  0.73413  0.9126400000000001  0.31693000000000005  1.0000
  H   H43       1.0  0.7189  0.71413  0.15004  1.0000
  H   H44       1.0  0.58998  0.78683  0.10429  1.0000
  H   H45       1.0  0.97276  0.67694  0.72074  1.0000
  H   H46       1.0  0.04822  0.53856  0.74462  1.0000
  H   H47       1.0  0.20122  0.59491  0.5551  1.0000
  H   H48       1.0  0.12021  0.7317  0.54085  1.0000
  H   H49       1.0  0.28772  0.38018  0.4543400000000001  1.0000
  H   H50       1.0  0.17768  0.45981  0.52247  1.0000
  H   H51       1.0  0.31128  0.39735  0.72116  1.0000
  H   H52       1.0  0.41526  0.31954  0.64437  1.0000
  H   H53       1.0  0.8353  0.72086  0.23138  1.0000
  H   H54       1.0  0.17005  0.46018000000000003  0.72295  1.0000
  H   H55       1.0  0.48542  0.20157  0.56982  1.0000
  H   H56       1.0  0.54428  0.20254  0.69603  1.0000
  H   H57       1.0  0.7684300000000002  0.31655  0.60456  1.0000
  H   H58       1.0  0.69917  0.3124  0.48471999999999993  1.0000
  H   H59       1.0  0.8966700000000002  0.47388  0.73353  1.0000
  H   H60       1.0  0.76573  0.41222  0.68332  1.0000
  H   H61       1.0  0.78181  0.21356  0.84991  1.0000
  H   H62       1.0  0.9102  0.28702  0.89593  1.0000
  H   H63       1.0  0.5278  0.1759  0.27904  1.0000
  H   H64       1.0  0.45206  0.03746  0.25561  1.0000
  H   H65       1.0  0.29889  0.09509  0.44466  1.0000
  H   H66       1.0  0.38018  0.23179  0.45871999999999996  1.0000
  H   H67       1.0  0.21268  0.88021  0.54581  1.0000
  H   H68       1.0  0.32257  0.95963  0.4775400000000001  1.0000
  H   H69       1.0  0.188  0.89775  0.27913  1.0000
  H   H70       1.0  0.08424  0.82001  0.35615  1.0000
  H   H71       1.0  0.66526  0.21986000000000003  0.76853  1.0000
  H   H72       1.0  0.32962  0.95988  0.27705  1.0000
  H   H73       1.0  0.98541  0.29883  0.56987  1.0000
  H   H74       1.0  0.04388  0.29679  0.69621  1.0000
  H   H75       1.0  0.26814  0.18309000000000003  0.60442  1.0000
  H   H76       1.0  0.19911  0.18841  0.4845  1.0000
  H   H77       1.0  0.39728  0.02646  0.7329800000000001  1.0000
  H   H78       1.0  0.26587  0.08736  0.68306  1.0000
  H   H79       1.0  0.2811  0.28586  0.84996  1.0000
  H   H80       1.0  0.4100200000000001  0.21317  0.89571  1.0000
  H   H81       1.0  0.02724  0.32306  0.27925  1.0000
  H   H82       1.0  0.95178  0.46144  0.25538  1.0000
  H   H83       1.0  0.79879  0.40509  0.44489  1.0000
  H   H84       1.0  0.87979  0.2683  0.45914  1.0000
  H   H85       1.0  0.71228  0.61982  0.54566  1.0000
  H   H86       1.0  0.82232  0.54019  0.47753000000000007  1.0000
  H   H87       1.0  0.68872  0.60265  0.27884  1.0000
  H   H88       1.0  0.58474  0.68046  0.35563  1.0000
  H   H89       1.0  0.1647  0.27914  0.76861  1.0000
  H   H90       1.0  0.8299500000000002  0.53982  0.27704  1.0000
  H   H91       1.0  0.51458  0.79843  0.43018  1.0000
  H   H92       1.0  0.45572  0.79746  0.30396  1.0000
  H   H93       1.0  0.23157  0.68345  0.39544  1.0000
  H   H94       1.0  0.30083  0.6876  0.51528  1.0000
  H   H95       1.0  0.10333  0.52612  0.26647  1.0000
  H   H96       1.0  0.23427  0.58778  0.31667  1.0000
  H   H97       1.0  0.21819000000000005  0.78644  0.15008  1.0000
  H   H98       1.0  0.0898  0.71298  0.10407  1.0000
  H   H99       1.0  0.4722  0.8241  0.72096  1.0000
  H   H100      1.0  0.54795  0.96254  0.74439  1.0000
  H   H101      1.0  0.70111  0.90491  0.55534  1.0000
  H   H102      1.0  0.61983  0.76821  0.54127  1.0000
  H   H103      1.0  0.78732  0.11979  0.45419000000000004  1.0000
  H   H104      1.0  0.67743  0.04037  0.52245  1.0000
  H   H105      1.0  0.81201  0.10225  0.72087  1.0000
  H   H106      1.0  0.9157700000000002  0.17999  0.64385  1.0000
  H   H107      1.0  0.33474  0.78014  0.23145999999999997  1.0000
  H   H108      1.0  0.6703800000000002  0.04012  0.72295  1.0000
  H   H109      1.0  0.98528  0.79838  0.93014  1.0000
  H   H110      1.0  0.04406  0.7971000000000001  0.80388  1.0000
  H   H111      1.0  0.26817  0.68304  0.8954700000000001  1.0000
  H   H112      1.0  0.19899  0.68767  0.015370000000000002  1.0000
  H   H113      1.0  0.39694  0.52619  0.76665  1.0000
  H   H114      1.0  0.26586  0.58748  0.81681  1.0000
  H   H115      1.0  0.28143  0.78611  0.65015  1.0000
  H   H116      1.0  0.40982  0.71283  0.604  1.0000
  H   H117      1.0  0.02744  0.82362  0.22091000000000002  1.0000
  H   H118      1.0  0.95216  0.96231  0.24434999999999998  1.0000
  H   H119      1.0  0.79885  0.90533  0.05521  1.0000
  H   H120      1.0  0.8797  0.76834  0.04111  1.0000
  H   H121      1.0  0.71245  0.12031  0.95449  1.0000
  H   H122      1.0  0.82255  0.04091  0.02254  1.0000
  H   H123      1.0  0.68846  0.10246000000000001  0.22124  1.0000
  H   H124      1.0  0.58457  0.18041  0.14447  1.0000
  H   H125      1.0  0.16505  0.77974  0.73148  1.0000
  H   H126      1.0  0.82993  0.04018  0.22307  1.0000
  H   H127      1.0  0.51436  0.29921  0.06968  1.0000
  H   H128      1.0  0.45616  0.29674  0.19611  1.0000
  H   H129      1.0  0.23186  0.18296  0.10438  1.0000
  H   H130      1.0  0.3006200000000001  0.18879  0.9843799999999999  1.0000
  H   H131      1.0  0.10242  0.02662  0.23280000000000003  1.0000
  H   H132      1.0  0.23391  0.08727  0.18291  1.0000
  H   H133      1.0  0.21911  0.28573  0.34986  1.0000
  H   H134      1.0  0.09019  0.21312  0.39572  1.0000
  H   H135      1.0  0.47295  0.32232  0.77925  1.0000
  H   H136      1.0  0.54808  0.46086  0.75527  1.0000
  H   H137      1.0  0.70124  0.40516  0.9448300000000001  1.0000
  H   H138      1.0  0.6205700000000002  0.26821  0.95924  1.0000
  H   H139      1.0  0.78793  0.61984  0.045320000000000006  1.0000
  H   H140      1.0  0.67767  0.54025  0.9773999999999999  1.0000
  H   H141      1.0  0.81077  0.60261  0.77844  1.0000
  H   H142      1.0  0.91491  0.68051  0.85505  1.0000
  H   H143      1.0  0.33547  0.27886  0.26856  1.0000
  H   H144      1.0  0.66952  0.53978  0.77689  1.0000
  C   C1        1.0  0.9523000000000003  0.22756  0.07996  1.0000
  C   C2        1.0  0.91987  0.22908  0.15062  1.0000
  C   C3        1.0  0.8394  0.26377  0.16253  1.0000
  C   C4        1.0  0.79585  0.29409  0.10083  1.0000
  C   C5        1.0  0.83457  0.28946  0.03284  1.0000
  C   C6        1.0  0.63002  0.41576  0.258  1.0000
  C   C7        1.0  0.70249  0.38017  0.22817000000000004  1.0000
  C   C8        1.0  0.73542  0.30375  0.25917  1.0000
  C   C9        1.0  0.69475  0.27127  0.32192  1.0000
  C   C10       1.0  0.62344  0.31249  0.34831  1.0000
  C   C11       1.0  0.02361  0.15617  0.81493  1.0000
  C   C12       1.0  0.06459  0.0783  0.80227  1.0000
  C   C13       1.0  0.13128  0.05379  0.84828  1.0000
  C   C14       1.0  0.14997  0.10908  0.9075000000000001  1.0000
  C   C15       1.0  0.10534  0.18621  0.9147800000000001  1.0000
  C   C16       1.0  0.29163  0.88542  0.98603  1.0000
  C   C17       1.0  0.23059  0.93167  0.9484  1.0000
  C   C18       1.0  0.23682  0.93803  0.87199  1.0000
  C   C19       1.0  0.30446  0.89586  0.83794  1.0000
  C   C20       1.0  0.36209000000000013  0.85162  0.88112  1.0000
  C   C21       1.0  0.54794  0.72701  0.9202600000000001  1.0000
  C   C22       1.0  0.58001  0.72915  0.84949  1.0000
  C   C23       1.0  0.66043  0.76398  0.83754  1.0000
  C   C24       1.0  0.70418  0.79397  0.89926  1.0000
  C   C25       1.0  0.66577  0.78869  0.96733  1.0000
  C   C26       1.0  0.87037  0.9155  0.74244  1.0000
  C   C27       1.0  0.79765  0.88029  0.7721  1.0000
  C   C28       1.0  0.76436  0.80414  0.74089  1.0000
  C   C29       1.0  0.80496  0.77148  0.67816  1.0000
  C   C30       1.0  0.87656  0.81232  0.65194  1.0000
  C   C31       1.0  0.47606  0.6572  0.18498  1.0000
  C   C32       1.0  0.43519  0.57938  0.19789  1.0000
  C   C33       1.0  0.36873  0.55438  0.15179  1.0000
  C   C34       1.0  0.34986  0.60944  0.09248  1.0000
  C   C35       1.0  0.39436  0.68659  0.085  1.0000
  C   C36       1.0  0.20827  0.38583  0.014179999999999998  1.0000
  C   C37       1.0  0.26944  0.43202  0.05174  1.0000
  C   C38       1.0  0.26361  0.43814  0.12818  1.0000
  C   C39       1.0  0.19613  0.39584  0.16235  1.0000
  C   C40       1.0  0.13833  0.35167  0.11927  1.0000
  C   C41       1.0  0.95225  0.72727  0.42008000000000006  1.0000
  C   C42       1.0  0.92  0.72917  0.34937  1.0000
  C   C43       1.0  0.83954  0.76389  0.33746  1.0000
  C   C44       1.0  0.7958700000000002  0.79396  0.39919  1.0000
  C   C45       1.0  0.83445  0.78894  0.46722  1.0000
  C   C46       1.0  0.62979  0.91555  0.24232  1.0000
  C   C47       1.0  0.70246  0.8802300000000001  0.27198  1.0000
  C   C48       1.0  0.73558  0.80398  0.24082000000000003  1.0000
  C   C49       1.0  0.69491  0.77136  0.1781  1.0000
  C   C50       1.0  0.62332  0.81228  0.15191  1.0000
  C   C51       1.0  0.02374  0.65665  0.6849  1.0000
  C   C52       1.0  0.0648  0.57892  0.69781  1.0000
  C   C53       1.0  0.13134  0.55417  0.6517  1.0000
  C   C54       1.0  0.15007  0.6093100000000001  0.59243  1.0000
  C   C55       1.0  0.10538  0.68632  0.58496  1.0000
  C   C56       1.0  0.29166  0.38582  0.51382  1.0000
  C   C57       1.0  0.23063  0.43205  0.5515100000000001  1.0000
  C   C58       1.0  0.23664  0.43806000000000006  0.62794  1.0000
  C   C59       1.0  0.30426  0.3958  0.66196  1.0000
  C   C60       1.0  0.36194  0.35164  0.61874  1.0000
  C   C61       1.0  0.54787  0.22744  0.57993  1.0000
  C   C62       1.0  0.58037  0.22875  0.65058  1.0000
  C   C63       1.0  0.66085  0.26341  0.66253  1.0000
  C   C64       1.0  0.70439  0.29376  0.60085  1.0000
  C   C65       1.0  0.66561  0.28937  0.53287  1.0000
  C   C66       1.0  0.86993  0.41568  0.75811  1.0000
  C   C67       1.0  0.79753  0.37995  0.72827  1.0000
  C   C68       1.0  0.76476  0.30343  0.75925  1.0000
  C   C69       1.0  0.80552  0.27098  0.82196  1.0000
  C   C70       1.0  0.87681  0.31231  0.84831  1.0000
  C   C71       1.0  0.4766900000000001  0.15592  0.3149  1.0000
  C   C72       1.0  0.43547  0.07817  0.30221  1.0000
  C   C73       1.0  0.3687  0.05389  0.34821  1.0000
  C   C74       1.0  0.3501200000000001  0.10927  0.40738  1.0000
  C   C75       1.0  0.39499  0.18624  0.41469  1.0000
  C   C76       1.0  0.20849  0.8859  0.48635999999999996  1.0000
  C   C77       1.0  0.26941  0.93211  0.44858  1.0000
  C   C78       1.0  0.263  0.93829  0.37217  1.0000
  C   C79       1.0  0.1952  0.8961200000000002  0.33831  1.0000
  C   C80       1.0  0.13768  0.85198  0.38166  1.0000
  C   C81       1.0  0.04775  0.27273  0.57991  1.0000
  C   C82       1.0  0.08  0.27083  0.65063  1.0000
  C   C83       1.0  0.16046  0.23611  0.66254  1.0000
  C   C84       1.0  0.20413  0.20603  0.60081  1.0000
  C   C85       1.0  0.16555  0.21106  0.53278  1.0000
  C   C86       1.0  0.37021  0.08444  0.75767  1.0000
  C   C87       1.0  0.29754  0.11977  0.72801  1.0000
  C   C88       1.0  0.26442  0.19601  0.75918  1.0000
  C   C89       1.0  0.30509  0.22863  0.8219  1.0000
  C   C90       1.0  0.37668  0.18772  0.84808  1.0000
  C   C91       1.0  0.97626  0.34334  0.3151  1.0000
  C   C92       1.0  0.9352  0.42108  0.30219  1.0000
  C   C93       1.0  0.86866  0.44582000000000005  0.3483  1.0000
  C   C94       1.0  0.84993  0.39069  0.40757  1.0000
  C   C95       1.0  0.89463  0.31367  0.41503  1.0000
  C   C96       1.0  0.70834  0.61418  0.48617000000000005  1.0000
  C   C97       1.0  0.7693800000000002  0.56795  0.44849  1.0000
  C   C98       1.0  0.76336  0.56193  0.37205  1.0000
  C   C99       1.0  0.69575  0.6042  0.33803  1.0000
  C   C100      1.0  0.63806  0.64836  0.38125  1.0000
  C   C101      1.0  0.45213  0.77256  0.42006  1.0000
  C   C102      1.0  0.41963  0.77125  0.34942  1.0000
  C   C103      1.0  0.33915  0.73659  0.33746  1.0000
  C   C104      1.0  0.29562  0.70624  0.39915  1.0000
  C   C105      1.0  0.33439  0.71063  0.46713  1.0000
  C   C106      1.0  0.13007  0.58432  0.24188  1.0000
  C   C107      1.0  0.20247  0.62005  0.27173  1.0000
  C   C108      1.0  0.23524  0.69657  0.24075  1.0000
  C   C109      1.0  0.19448  0.72902  0.17804  1.0000
  C   C110      1.0  0.12319  0.68769  0.15168  1.0000
  C   C111      1.0  0.52332  0.8440800000000002  0.6851  1.0000
  C   C112      1.0  0.56453  0.92182  0.69778  1.0000
  C   C113      1.0  0.63131  0.94611  0.65178  1.0000
  C   C114      1.0  0.64988  0.89072  0.59262  1.0000
  C   C115      1.0  0.60501  0.81376  0.58531  1.0000
  C   C116      1.0  0.79151  0.1141  0.51363  1.0000
  C   C117      1.0  0.7305900000000002  0.06789  0.55142  1.0000
  C   C118      1.0  0.7370000000000002  0.06171  0.62783  1.0000
  C   C119      1.0  0.8048000000000002  0.10388  0.66169  1.0000
  C   C120      1.0  0.86232  0.14802  0.61833  1.0000
  C   C121      1.0  0.047700000000000006  0.77244  0.9200300000000001  1.0000
  C   C122      1.0  0.08013  0.77092  0.84937  1.0000
  C   C123      1.0  0.1606  0.73623  0.83747  1.0000
  C   C124      1.0  0.20415  0.70591  0.8991600000000001  1.0000
  C   C125      1.0  0.16544  0.71054  0.9671500000000001  1.0000
  C   C126      1.0  0.36998  0.58424  0.742  1.0000
  C   C127      1.0  0.29751  0.61983  0.77183  1.0000
  C   C128      1.0  0.26458  0.69625  0.74082  1.0000
  C   C129      1.0  0.30525  0.72873  0.67808  1.0000
  C   C130      1.0  0.37656  0.68751  0.65168  1.0000
  C   C131      1.0  0.97639  0.84383  0.18507  1.0000
  C   C132      1.0  0.93541  0.9217  0.19773  1.0000
  C   C133      1.0  0.86872  0.9462  0.15172  1.0000
  C   C134      1.0  0.8500300000000002  0.89092  0.0925  1.0000
  C   C135      1.0  0.89466  0.81379  0.08521  1.0000
  C   C136      1.0  0.70837  0.11458  0.01396  1.0000
  C   C137      1.0  0.76942  0.06833  0.05159  1.0000
  C   C138      1.0  0.76319  0.06197  0.12801  1.0000
  C   C139      1.0  0.69554  0.10414  0.16205  1.0000
  C   C140      1.0  0.63791  0.14837  0.11887  1.0000
  C   C141      1.0  0.45207  0.27299  0.07974  1.0000
  C   C142      1.0  0.41999  0.27085  0.1505  1.0000
  C   C143      1.0  0.33957  0.23602  0.16246  1.0000
  C   C144      1.0  0.29582  0.20602  0.10074  1.0000
  C   C145      1.0  0.33424  0.21131  0.03267  1.0000
  C   C146      1.0  0.12964  0.0845  0.25755  1.0000
  C   C147      1.0  0.20235  0.11971  0.2279  1.0000
  C   C148      1.0  0.23564  0.19586  0.2591  1.0000
  C   C149      1.0  0.19505  0.22851  0.32184  1.0000
  C   C150      1.0  0.12344  0.18768  0.34805  1.0000
  C   C151      1.0  0.52395  0.3428  0.81502  1.0000
  C   C152      1.0  0.56481  0.42062  0.8021  1.0000
  C   C153      1.0  0.63127  0.44561  0.84821  1.0000
  C   C154      1.0  0.65014  0.39055  0.9075199999999999  1.0000
  C   C155      1.0  0.60565  0.31341  0.9149999999999999  1.0000
  C   C156      1.0  0.79173  0.61417  0.98582  1.0000
  C   C157      1.0  0.73056  0.56798  0.94826  1.0000
  C   C158      1.0  0.73639  0.56186  0.87182  1.0000
  C   C159      1.0  0.80387  0.60415  0.83764  1.0000
  C   C160      1.0  0.86167  0.64832  0.88073  1.0000
  N   N1        1.0  0.91162  0.25765  0.02068  1.0000
  N   N2        1.0  0.80592  0.26178  0.23271000000000003  1.0000
  N   N3        1.0  0.58932  0.38331  0.31643  1.0000
  N   N4        1.0  0.04352  0.21156000000000003  0.86923  1.0000
  N   N5        1.0  0.17726  0.98074  0.8298600000000002  1.0000
  N   N6        1.0  0.3573800000000001  0.84557  0.9545200000000001  1.0000
  N   N7        1.0  0.58888  0.75657  0.97961  1.0000
  N   N8        1.0  0.69354  0.76269  0.76722  1.0000
  N   N9        1.0  0.91098  0.88289  0.68402  1.0000
  N   N10       1.0  0.45615  0.71225  0.13045  1.0000
  N   N11       1.0  0.32329  0.48094  0.17013  1.0000
  N   N12       1.0  0.14272  0.3458  0.04584  1.0000
  N   N13       1.0  0.9114200000000002  0.75699  0.47943  1.0000
  N   N14       1.0  0.80635  0.7624500000000001  0.26717  1.0000
  N   N15       1.0  0.58901  0.8829  0.184  1.0000
  N   N16       1.0  0.04354  0.7118  0.63043  1.0000
  N   N17       1.0  0.17706  0.48088  0.66998  1.0000
  N   N18       1.0  0.35732  0.34578  0.54532  1.0000
  N   N19       1.0  0.58851  0.25767  0.52068  1.0000
  N   N20       1.0  0.69435  0.26134  0.73272  1.0000
  N   N21       1.0  0.91081  0.3832  0.81644  1.0000
  N   N22       1.0  0.4569  0.2114  0.36917  1.0000
  N   N23       1.0  0.32253  0.98089  0.32994  1.0000
  N   N24       1.0  0.14264  0.84598  0.45505000000000007  1.0000
  N   N25       1.0  0.08859  0.24301  0.52057  1.0000
  N   N26       1.0  0.19365  0.23755  0.73283  1.0000
  N   N27       1.0  0.41099  0.1171  0.816  1.0000
  N   N28       1.0  0.95647  0.28820000000000007  0.36956  1.0000
  N   N29       1.0  0.82294  0.51912  0.33002  1.0000
  N   N30       1.0  0.64268  0.65422  0.45468  1.0000
  N   N31       1.0  0.4115  0.74233  0.47931  1.0000
  N   N32       1.0  0.30565  0.73866  0.26728  1.0000
  N   N33       1.0  0.08919  0.6168  0.18355000000000002  1.0000
  N   N34       1.0  0.5431  0.7886  0.63083  1.0000
  N   N35       1.0  0.67747  0.01911  0.67005  1.0000
  N   N36       1.0  0.85736  0.15402  0.54495  1.0000
  N   N37       1.0  0.08838  0.74234  0.9793100000000001  1.0000
  N   N38       1.0  0.19408  0.7382100000000001  0.76729  1.0000
  N   N39       1.0  0.41068  0.61669  0.68357  1.0000
  N   N40       1.0  0.95648  0.78844  0.13077  1.0000
  N   N41       1.0  0.82274  0.01926  0.17013  1.0000
  N   N42       1.0  0.64262  0.15443  0.04548  1.0000
  N   N43       1.0  0.41112  0.24343  0.02038  1.0000
  N   N44       1.0  0.30647  0.23731  0.23278  1.0000
  N   N45       1.0  0.08902  0.11711  0.31597  1.0000
  N   N46       1.0  0.54385  0.28775  0.86954  1.0000
  N   N47       1.0  0.67672  0.51905  0.82987  1.0000
  N   N48       1.0  0.85729  0.65419  0.95416  1.0000
