data_image0
_chemical_formula_structural       Zn12Co4H84C168N24O60
_chemical_formula_sum              "Zn12 Co4 H84 C168 N24 O60"
_cell_length_a       15.20554
_cell_length_b       18.32479
_cell_length_c       19.65827
_cell_angle_alpha    89.94858
_cell_angle_beta     104.68151
_cell_angle_gamma    90.00046

_space_group_name_H-M_alt    "P 1"
_space_group_IT_number       1

loop_
  _space_group_symop_operation_xyz
  'x, y, z'

loop_
  _atom_site_type_symbol
  _atom_site_label
  _atom_site_symmetry_multiplicity
  _atom_site_fract_x
  _atom_site_fract_y
  _atom_site_fract_z
  _atom_site_occupancy
  Zn  Zn1       1.0  0.07788999999999992  0.05312  0.8528099999999998  1.0000
  Zn  Zn2       1.0  0.4996999999999998  0.14056999999999997  0.4328  1.0000
  Zn  Zn3       1.0  0.6379299999999998  0.22777999999999998  0.4092  1.0000
  Zn  Zn4       1.0  0.4201899999999999  0.55128  0.64809  1.0000
  Zn  Zn5       1.0  0.0014899999999999944  0.64119  0.06512999999999998  1.0000
  Zn  Zn6       1.0  0.86167  0.72811  0.08955  1.0000
  Zn  Zn7       1.0  0.92182  0.94694  0.14698999999999995  1.0000
  Zn  Zn8       1.0  0.5000599999999997  0.85951  0.567  1.0000
  Zn  Zn9       1.0  0.36205  0.77219  0.59102  1.0000
  Zn  Zn10      1.0  0.57984  0.44880000000000003  0.35179  1.0000
  Zn  Zn11      1.0  0.9979599999999998  0.36046  0.93427  1.0000
  Zn  Zn12      1.0  0.13861999999999988  0.27341  0.91144  1.0000
  Co  Co1       1.0  0.55844  0.18266  0.80311  1.0000
  Co  Co2       1.0  0.9407900000000001  0.68307  0.69617  1.0000
  Co  Co3       1.0  0.44153  0.8177399999999999  0.19711  1.0000
  Co  Co4       1.0  0.05921  0.3176  0.30384  1.0000
  H   H1        1.0  0.4458699999999998  0.18267  0.9121899999999998  1.0000
  H   H2        1.0  0.3678899999999999  0.08222  0.96111  1.0000
  H   H3        1.0  0.40137999999999996  0.9534000000000001  0.9371399999999999  1.0000
  H   H4        1.0  0.51795  0.92896  0.86587  1.0000
  H   H5        1.0  0.5687499999999998  0.11455999999999998  0.64117  1.0000
  H   H6        1.0  0.8381699999999997  0.15133  0.6131  1.0000
  H   H7        1.0  0.80341  0.07982  0.8126  1.0000
  H   H8        1.0  0.37225  0.25438  0.7716  1.0000
  H   H9        1.0  0.30476  0.35082  0.83353  1.0000
  H   H10       1.0  0.40769  0.42121  0.9316799999999998  1.0000
  H   H11       1.0  0.57686  0.38973  0.96418  1.0000
  H   H12       1.0  0.6906899999999998  0.08625  0.95247  1.0000
  H   H13       1.0  0.98018  0.07967  0.9831199999999999  1.0000
  H   H14       1.0  0.82455  0.25751  0.8677299999999999  1.0000
  H   H15       1.0  0.71544  0.28456  0.79449  1.0000
  H   H16       1.0  0.74526  0.36764  0.70159  1.0000
  H   H17       1.0  0.6281699999999999  0.3756  0.5855499999999999  1.0000
  H   H18       1.0  0.48648  0.29619  0.56829  1.0000
  H   H19       1.0  0.30542  0.15378  0.77695  1.0000
  H   H20       1.0  0.2588899999999999  0.92648  0.73568  1.0000
  H   H21       1.0  0.46906  0.03811  0.66366  1.0000
  H   H22       1.0  0.05396000000000001  0.68236  0.58747  1.0000
  H   H23       1.0  0.13173999999999994  0.58148  0.53904  1.0000
  H   H24       1.0  0.09747999999999996  0.45293999999999995  0.5632299999999999  1.0000
  H   H25       1.0  0.98055  0.42902  0.63423  1.0000
  H   H26       1.0  0.9302899999999996  0.61677  0.85803  1.0000
  H   H27       1.0  0.6611699999999998  0.65044  0.88728  1.0000
  H   H28       1.0  0.69553  0.57834  0.68778  1.0000
  H   H29       1.0  0.12733999999999993  0.75472  0.7283899999999998  1.0000
  H   H30       1.0  0.19498  0.85123  0.66657  1.0000
  H   H31       1.0  0.09244  0.92163  0.56805  1.0000
  H   H32       1.0  0.92303  0.89024  0.5354  1.0000
  H   H33       1.0  0.8085799999999996  0.5867  0.54648  1.0000
  H   H34       1.0  0.5197899999999998  0.57845  0.5194599999999999  1.0000
  H   H35       1.0  0.6757  0.75702  0.63324  1.0000
  H   H36       1.0  0.78416  0.78605  0.70477  1.0000
  H   H37       1.0  0.7543799999999999  0.86843  0.7981  1.0000
  H   H38       1.0  0.8713499999999996  0.8754099999999999  0.9143199999999999  1.0000
  H   H39       1.0  0.012839999999999905  0.79554  0.9311999999999998  1.0000
  H   H40       1.0  0.19275  0.65253  0.7215  1.0000
  H   H41       1.0  0.23657999999999996  0.42515  0.7645599999999998  1.0000
  H   H42       1.0  0.028889999999999923  0.53972  0.8367099999999998  1.0000
  H   H43       1.0  0.55379  0.81754  0.08771  1.0000
  H   H44       1.0  0.6319899999999998  0.91792  0.0389  1.0000
  H   H45       1.0  0.59867  0.04674  0.06283  1.0000
  H   H46       1.0  0.48309999999999986  0.07129  0.13504  1.0000
  H   H47       1.0  0.43084999999999996  0.88584  0.35908  1.0000
  H   H48       1.0  0.16192999999999994  0.84673  0.38681999999999994  1.0000
  H   H49       1.0  0.19618999999999998  0.9213799999999999  0.18791  1.0000
  H   H50       1.0  0.6274099999999999  0.74584  0.22896999999999995  1.0000
  H   H51       1.0  0.6949799999999998  0.64966  0.16690999999999995  1.0000
  H   H52       1.0  0.59207  0.57931  0.0686  1.0000
  H   H53       1.0  0.42293999999999987  0.61092  0.03593  1.0000
  H   H54       1.0  0.3090599999999999  0.91469  0.04685  1.0000
  H   H55       1.0  0.01974  0.92105  0.01768  1.0000
  H   H56       1.0  0.17645999999999995  0.74397  0.13347  1.0000
  H   H57       1.0  0.28446  0.71553  0.20553  1.0000
  H   H58       1.0  0.2543899999999999  0.63266  0.29837999999999987  1.0000
  H   H59       1.0  0.3714499999999999  0.62473  0.41459999999999997  1.0000
  H   H60       1.0  0.5131799999999997  0.70415  0.43184999999999996  1.0000
  H   H61       1.0  0.69349  0.84667  0.22199  1.0000
  H   H62       1.0  0.74204  0.07336  0.26624  1.0000
  H   H63       1.0  0.53222  0.9612800000000001  0.338  1.0000
  H   H64       1.0  0.9478399999999998  0.31761  0.41402  1.0000
  H   H65       1.0  0.8689499999999998  0.41797  0.46220999999999995  1.0000
  H   H66       1.0  0.9005699999999998  0.5468  0.4366999999999999  1.0000
  H   H67       1.0  0.01565999999999999  0.5714  0.36414  1.0000
  H   H68       1.0  0.06908999999999998  0.38521  0.14170999999999997  1.0000
  H   H69       1.0  0.33787  0.34993  0.11268999999999998  1.0000
  H   H70       1.0  0.30403  0.4222  0.31239  1.0000
  H   H71       1.0  0.8727  0.2459  0.27159  1.0000
  H   H72       1.0  0.8049499999999999  0.1495  0.33345  1.0000
  H   H73       1.0  0.9074399999999998  0.07889  0.43184999999999996  1.0000
  H   H74       1.0  0.07694000000000001  0.11008  0.46443  1.0000
  H   H75       1.0  0.19079  0.41303  0.45299  1.0000
  H   H76       1.0  0.47952  0.42224  0.47976  1.0000
  H   H77       1.0  0.32412  0.24312999999999999  0.36639  1.0000
  H   H78       1.0  0.21589999999999995  0.21434  0.29546  1.0000
  H   H79       1.0  0.24561999999999995  0.13176  0.20240999999999995  1.0000
  H   H80       1.0  0.12862999999999997  0.12462999999999999  0.08608  1.0000
  H   H81       1.0  0.98733  0.20469  0.06904999999999997  1.0000
  H   H82       1.0  0.8077999999999999  0.34821  0.2791  1.0000
  H   H83       1.0  0.76242  0.57521  0.23427999999999996  1.0000
  H   H84       1.0  0.9692099999999998  0.46036  0.16145  1.0000
  C   C1        1.0  0.45919  0.12582  0.90313  1.0000
  C   C2        1.0  0.41709  0.06989  0.931  1.0000
  C   C3        1.0  0.43578999999999996  0.99753  0.91723  1.0000
  C   C4        1.0  0.4984699999999999  0.98366  0.8779899999999999  1.0000
  C   C5        1.0  0.53708  0.04216  0.8507099999999999  1.0000
  C   C6        1.0  0.6017899999999998  0.03185  0.80547  1.0000
  C   C7        1.0  0.67833  0.10071  0.73359  1.0000
  C   C8        1.0  0.6417399999999998  0.11515000000000002  0.66251  1.0000
  C   C9        1.0  0.69778  0.13443  0.61848  1.0000
  C   C10       1.0  0.7926799999999998  0.13525  0.64516  1.0000
  C   C11       1.0  0.8299499999999996  0.11309999999999999  0.7147499999999999  1.0000
  C   C12       1.0  0.77302  0.09596  0.75862  1.0000
  C   C13       1.0  0.6507899999999999  0.15436  0.5456  1.0000
  C   C14       1.0  0.9320999999999998  0.10884  0.74312  1.0000
  C   C15       1.0  0.41316999999999987  0.28504  0.81558  1.0000
  C   C16       1.0  0.37729999999999997  0.33974  0.8495399999999999  1.0000
  C   C17       1.0  0.43483999999999995  0.37857  0.9042899999999999  1.0000
  C   C18       1.0  0.52723  0.36177  0.92275  1.0000
  C   C19       1.0  0.55814  0.30468  0.8881499999999999  1.0000
  C   C20       1.0  0.65455  0.27926  0.90855  1.0000
  C   C21       1.0  0.7460099999999998  0.17599  0.90479  1.0000
  C   C22       1.0  0.7515099999999998  0.11066  0.9427399999999999  1.0000
  C   C23       1.0  0.8354699999999998  0.0772  0.9721899999999999  1.0000
  C   C24       1.0  0.9155799999999997  0.10684  0.9614999999999999  1.0000
  C   C25       1.0  0.9104799999999997  0.17181999999999997  0.92281  1.0000
  C   C26       1.0  0.8263099999999995  0.20652  0.89589  1.0000
  C   C27       1.0  0.9902199999999997  0.20784  0.9106499999999998  1.0000
  C   C28       1.0  0.6672  0.28941  0.74371  1.0000
  C   C29       1.0  0.6830099999999999  0.33538  0.69148  1.0000
  C   C30       1.0  0.61784  0.33974  0.62707  1.0000
  C   C31       1.0  0.5400099999999997  0.29672  0.6170199999999999  1.0000
  C   C32       1.0  0.52935  0.25129  0.6711399999999998  1.0000
  C   C33       1.0  0.45279  0.19807  0.6614199999999999  1.0000
  C   C34       1.0  0.39548999999999995  0.10369  0.7208999999999999  1.0000
  C   C35       1.0  0.32398999999999994  0.10429  0.7536199999999998  1.0000
  C   C36       1.0  0.27507  0.04068  0.75833  1.0000
  C   C37       1.0  0.29604  0.9754299999999999  0.7291299999999998  1.0000
  C   C38       1.0  0.4141899999999999  0.03924  0.68964  1.0000
  C   C39       1.0  0.20099999999999993  0.04391  0.7954399999999998  1.0000
  C   C40       1.0  0.36486  0.97513  0.69318  1.0000
  C   C41       1.0  0.38921999999999995  0.9106  0.6569  1.0000
  C   C42       1.0  0.83765  0.01326  0.02097  1.0000
  C   C43       1.0  0.04018999999999995  0.6256  0.5965799999999999  1.0000
  C   C44       1.0  0.08224  0.56949  0.56899  1.0000
  C   C45       1.0  0.06312999999999998  0.49724  0.58291  1.0000
  C   C46       1.0  0.0002099999999999633  0.4836599999999999  0.6220299999999999  1.0000
  C   C47       1.0  0.9617099999999996  0.54234  0.6490799999999999  1.0000
  C   C48       1.0  0.8968999999999998  0.53253  0.69435  1.0000
  C   C49       1.0  0.82055  0.60144  0.76602  1.0000
  C   C50       1.0  0.8572699999999998  0.6165899999999999  0.83688  1.0000
  C   C51       1.0  0.8012699999999998  0.63518  0.8811099999999997  1.0000
  C   C52       1.0  0.7062999999999999  0.63464  0.8548699999999998  1.0000
  C   C53       1.0  0.6689399999999999  0.61168  0.78556  1.0000
  C   C54       1.0  0.72589  0.59524  0.74151  1.0000
  C   C55       1.0  0.84846  0.65581  0.9536999999999999  1.0000
  C   C56       1.0  0.5667299999999997  0.60638  0.75735  1.0000
  C   C57       1.0  0.08658000000000002  0.78539  0.68425  1.0000
  C   C58       1.0  0.12247  0.84021  0.65038  1.0000
  C   C59       1.0  0.0651  0.8790299999999999  0.59545  1.0000
  C   C60       1.0  0.9726899999999999  0.86222  0.5768399999999999  1.0000
  C   C61       1.0  0.9417499999999996  0.80498  0.6113099999999998  1.0000
  C   C62       1.0  0.8452499999999997  0.77959  0.59078  1.0000
  C   C63       1.0  0.7537499999999998  0.67612  0.5950499999999999  1.0000
  C   C64       1.0  0.74809  0.61089  0.55701  1.0000
  C   C65       1.0  0.66431  0.57688  0.52854  1.0000
  C   C66       1.0  0.5844299999999999  0.60581  0.5404299999999999  1.0000
  C   C67       1.0  0.5895699999999998  0.67068  0.5793  1.0000
  C   C68       1.0  0.67363  0.70611  0.6049599999999999  1.0000
  C   C69       1.0  0.5097199999999997  0.70608  0.5921  1.0000
  C   C70       1.0  0.83236  0.79045  0.75562  1.0000
  C   C71       1.0  0.81662  0.8361  0.80805  1.0000
  C   C72       1.0  0.88167  0.83992  0.87257  1.0000
  C   C73       1.0  0.95935  0.79673  0.8824599999999999  1.0000
  C   C74       1.0  0.9698199999999998  0.7516  0.82817  1.0000
  C   C75       1.0  0.045689999999999946  0.69781  0.8379799999999998  1.0000
  C   C76       1.0  0.10259  0.60389  0.77831  1.0000
  C   C77       1.0  0.17385999999999996  0.60355  0.74544  1.0000
  C   C78       1.0  0.22213999999999998  0.53955  0.7412  1.0000
  C   C79       1.0  0.20035999999999995  0.47472  0.77076  1.0000
  C   C80       1.0  0.08327999999999991  0.54005  0.8102099999999998  1.0000
  C   C81       1.0  0.29708  0.54241  0.70507  1.0000
  C   C82       1.0  0.13163999999999992  0.47553  0.8068199999999998  1.0000
  C   C83       1.0  0.10729  0.41175  0.84409  1.0000
  C   C84       1.0  0.6623899999999998  0.51331  0.47932  1.0000
  C   C85       1.0  0.54074  0.8743900000000001  0.097  1.0000
  C   C86       1.0  0.58294  0.93025  0.06913  1.0000
  C   C87       1.0  0.56445  0.00264  0.08297  1.0000
  C   C88       1.0  0.50235  0.0166  0.12269  1.0000
  C   C89       1.0  0.4639399999999999  0.95817  0.15022  1.0000
  C   C90       1.0  0.40016  0.9686299999999999  0.19623  1.0000
  C   C91       1.0  0.32138  0.8997699999999998  0.26664  1.0000
  C   C92       1.0  0.35787  0.8852199999999999  0.3376599999999999  1.0000
  C   C93       1.0  0.30179  0.86556  0.3815  1.0000
  C   C94       1.0  0.2068  0.86396  0.35466  1.0000
  C   C95       1.0  0.16943  0.8864399999999999  0.28513  1.0000
  C   C96       1.0  0.22666999999999995  0.90469  0.24171999999999996  1.0000
  C   C97       1.0  0.34918  0.84558  0.45427  1.0000
  C   C98       1.0  0.06719999999999998  0.88882  0.25479  1.0000
  C   C99       1.0  0.58658  0.7152899999999999  0.18485999999999994  1.0000
  C   C100      1.0  0.6224399999999998  0.66066  0.15084  1.0000
  C   C101      1.0  0.5649299999999998  0.62192  0.09600999999999998  1.0000
  C   C102      1.0  0.47253  0.63879  0.07746  1.0000
  C   C103      1.0  0.44165  0.69588  0.11204999999999998  1.0000
  C   C104      1.0  0.3453899999999999  0.72166  0.09149999999999997  1.0000
  C   C105      1.0  0.25444  0.82519  0.09547  1.0000
  C   C106      1.0  0.2485  0.89027  0.05707999999999999  1.0000
  C   C107      1.0  0.16427999999999998  0.92353  0.0279  1.0000
  C   C108      1.0  0.08446  0.89402  0.03925  1.0000
  C   C109      1.0  0.09005999999999997  0.82926  0.07836999999999997  1.0000
  C   C110      1.0  0.17440999999999995  0.79474  0.10494999999999997  1.0000
  C   C111      1.0  0.010880000000000003  0.79277  0.09099  1.0000
  C   C112      1.0  0.33259  0.71083  0.25638  1.0000
  C   C113      1.0  0.31669  0.66491  0.3086099999999999  1.0000
  C   C114      1.0  0.3817699999999999  0.66057  0.37307  1.0000
  C   C115      1.0  0.4596  0.70361  0.38315  1.0000
  C   C116      1.0  0.47029  0.74902  0.32903  1.0000
  C   C117      1.0  0.54703  0.80204  0.33876  1.0000
  C   C118      1.0  0.6046899999999997  0.8962399999999999  0.27943  1.0000
  C   C119      1.0  0.6757899999999997  0.89586  0.24626999999999993  1.0000
  C   C120      1.0  0.7253  0.9593299999999999  0.24224999999999997  1.0000
  C   C121      1.0  0.7047699999999998  0.02429  0.27214999999999995  1.0000
  C   C122      1.0  0.58663  0.9603199999999998  0.31154  1.0000
  C   C123      1.0  0.79952  0.9562100000000001  0.20524  1.0000
  C   C124      1.0  0.6358  0.02444  0.30792  1.0000
  C   C125      1.0  0.61066  0.08916999999999999  0.3434599999999999  1.0000
  C   C126      1.0  0.1615099999999999  0.9872000000000001  0.9787499999999999  1.0000
  C   C127      1.0  0.9602799999999998  0.37447  0.40417  1.0000
  C   C128      1.0  0.9176599999999998  0.43031  0.43166  1.0000
  C   C129      1.0  0.93527  0.5027  0.41705  1.0000
  C   C130      1.0  0.9970699999999999  0.5167  0.37707999999999997  1.0000
  C   C131      1.0  0.03589  0.4582899999999999  0.34993  1.0000
  C   C132      1.0  0.09900999999999996  0.46893999999999997  0.30340999999999996  1.0000
  C   C133      1.0  0.17888  0.40006  0.23394  1.0000
  C   C134      1.0  0.14210999999999996  0.38524  0.16301999999999994  1.0000
  C   C135      1.0  0.19829  0.3664  0.11907  1.0000
  C   C136      1.0  0.29321  0.36612  0.14535999999999996  1.0000
  C   C137      1.0  0.33075  0.38885  0.21467  1.0000
  C   C138      1.0  0.27364  0.40561  0.25856999999999997  1.0000
  C   C139      1.0  0.15183999999999997  0.34594  0.04641999999999999  1.0000
  C   C140      1.0  0.43307000000000007  0.39359  0.24284  1.0000
  C   C141      1.0  0.9134399999999999  0.21514  0.31567  1.0000
  C   C142      1.0  0.8774999999999997  0.16039  0.34958  1.0000
  C   C143      1.0  0.93485  0.12142999999999998  0.40443  1.0000
  C   C144      1.0  0.027300000000000026  0.13812  0.42298  1.0000
  C   C145      1.0  0.05828  0.19533  0.38848  1.0000
  C   C146      1.0  0.15478999999999993  0.2206  0.4088699999999999  1.0000
  C   C147      1.0  0.24601999999999993  0.32409  0.40443  1.0000
  C   C148      1.0  0.25149  0.38922  0.44248  1.0000
  C   C149      1.0  0.33531  0.42311  0.47107  1.0000
  C   C150      1.0  0.41516  0.39444  0.4589699999999999  1.0000
  C   C151      1.0  0.41014  0.32949  0.4202599999999999  1.0000
  C   C152      1.0  0.32610999999999996  0.2941  0.39453  1.0000
  C   C153      1.0  0.49014999999999986  0.29381  0.40805  1.0000
  C   C154      1.0  0.16777999999999996  0.21004  0.24457999999999996  1.0000
  C   C155      1.0  0.18345  0.16419  0.19227  1.0000
  C   C156      1.0  0.11844  0.1603  0.12774  1.0000
  C   C157      1.0  0.04088999999999999  0.20366  0.11773999999999998  1.0000
  C   C158      1.0  0.030469999999999987  0.24898000000000003  0.17190999999999995  1.0000
  C   C159      1.0  0.95443  0.30263  0.16197  1.0000
  C   C160      1.0  0.89697  0.39655  0.22125999999999998  1.0000
  C   C161      1.0  0.82618  0.39703  0.25464  1.0000
  C   C162      1.0  0.77765  0.46095  0.25863  1.0000
  C   C163      1.0  0.7988199999999998  0.52563  0.22842999999999997  1.0000
  C   C164      1.0  0.91531  0.46013000000000004  0.18844  1.0000
  C   C165      1.0  0.70289  0.45798000000000005  0.29495  1.0000
  C   C166      1.0  0.86681  0.52465  0.19168  1.0000
  C   C167      1.0  0.89043  0.58846  0.15393  1.0000
  C   C168      1.0  0.3370999999999999  0.48605999999999994  0.52083  1.0000
  N   N1        1.0  0.51602  0.11238999999999999  0.86166  1.0000
  N   N2        1.0  0.6194899999999999  0.09693  0.7788499999999998  1.0000
  N   N3        1.0  0.5016899999999999  0.26614  0.8363199999999997  1.0000
  N   N4        1.0  0.6619499999999998  0.2123  0.88  1.0000
  N   N5        1.0  0.59154  0.24812999999999996  0.73417  1.0000
  N   N6        1.0  0.45227  0.16522  0.72354  1.0000
  N   N7        1.0  0.9830899999999998  0.61246  0.6379199999999998  1.0000
  N   N8        1.0  0.8793299999999996  0.59777  0.72067  1.0000
  N   N9        1.0  0.99812  0.76639  0.66321  1.0000
  N   N10       1.0  0.83779  0.71256  0.61919  1.0000
  N   N11       1.0  0.9077899999999998  0.7489  0.7650399999999998  1.0000
  N   N12       1.0  0.04673999999999996  0.66583  0.77566  1.0000
  N   N13       1.0  0.4843099999999999  0.8879199999999999  0.13877  1.0000
  N   N14       1.0  0.38034999999999997  0.9034199999999999  0.22140999999999994  1.0000
  N   N15       1.0  0.49810999999999994  0.7342599999999999  0.16400999999999996  1.0000
  N   N16       1.0  0.33839  0.78868  0.12004  1.0000
  N   N17       1.0  0.4081799999999999  0.7522  0.2659699999999999  1.0000
  N   N18       1.0  0.54765  0.83487  0.27666  1.0000
  N   N19       1.0  0.01634999999999998  0.38798  0.36205999999999994  1.0000
  N   N20       1.0  0.12023999999999993  0.40354999999999996  0.2794499999999999  1.0000
  N   N21       1.0  0.0019400000000000114  0.23405  0.33665  1.0000
  N   N22       1.0  0.16205  0.28766  0.38046  1.0000
  N   N23       1.0  0.09249  0.25179  0.23502999999999996  1.0000
  N   N24       1.0  0.95324  0.33479  0.22417999999999996  1.0000
  O   O1        1.0  0.6314499999999998  0.9706899999999999  0.7947799999999998  1.0000
  O   O2        1.0  0.14921  0.98891  0.79383  1.0000
  O   O3        1.0  0.19051999999999986  0.10257  0.8282899999999997  1.0000
  O   O4        1.0  0.9190599999999998  0.99916  0.06045999999999999  1.0000
  O   O5        1.0  0.9559799999999997  0.08335  0.8077799999999998  1.0000
  O   O6        1.0  0.07176  0.18287  0.92896  1.0000
  O   O7        1.0  0.76608  0.98147  0.02293999999999999  1.0000
  O   O8        1.0  0.45681999999999995  0.92034  0.62942  1.0000
  O   O9        1.0  0.34288999999999986  0.85079  0.65309  1.0000
  O   O10       1.0  0.9833299999999998  0.12817  0.70671  1.0000
  O   O11       1.0  0.6929799999999998  0.18563  0.5047799999999999  1.0000
  O   O12       1.0  0.56442  0.13835  0.52773  1.0000
  O   O13       1.0  0.7153699999999997  0.31603  0.94789  1.0000
  O   O14       1.0  0.9793499999999999  0.27242  0.8795699999999999  1.0000
  O   O15       1.0  0.4004199999999999  0.18587  0.60285  1.0000
  O   O16       1.0  0.86681  0.47164  0.70537  1.0000
  O   O17       1.0  0.3475899999999998  0.48671999999999993  0.7065899999999998  1.0000
  O   O18       1.0  0.3099899999999999  0.60154  0.67353  1.0000
  O   O19       1.0  0.5816499999999998  0.50098  0.43815999999999994  1.0000
  O   O20       1.0  0.54299  0.57805  0.69386  1.0000
  O   O21       1.0  0.42842  0.68044  0.57543  1.0000
  O   O22       1.0  0.7335599999999998  0.4803799999999999  0.47832  1.0000
  O   O23       1.0  0.04032000000000001  0.42222  0.87213  1.0000
  O   O24       1.0  0.15378999999999995  0.35207  0.84829  1.0000
  O   O25       1.0  0.51528  0.62787  0.79278  1.0000
  O   O26       1.0  0.8053499999999998  0.68401  0.9956099999999999  1.0000
  O   O27       1.0  0.9357599999999998  0.6439  0.9702099999999999  1.0000
  O   O28       1.0  0.7845199999999998  0.8165799999999999  0.5516  1.0000
  O   O29       1.0  0.5198199999999997  0.7713  0.62196  1.0000
  O   O30       1.0  0.09706000000000005  0.68436  0.89668  1.0000
  O   O31       1.0  0.37283  0.030069999999999996  0.2086  1.0000
  O   O32       1.0  0.8519599999999998  0.01095  0.20768  1.0000
  O   O33       1.0  0.80954  0.8977999999999999  0.17178999999999994  1.0000
  O   O34       1.0  0.08005999999999996  0.0009199999999999999  0.9392599999999999  1.0000
  O   O35       1.0  0.04469999999999998  0.92045  0.19269  1.0000
  O   O36       1.0  0.9292399999999997  0.81787  0.07389  1.0000
  O   O37       1.0  0.23286  0.01909  0.9765299999999999  1.0000
  O   O38       1.0  0.54257  0.07961  0.37038  1.0000
  O   O39       1.0  0.6568499999999998  0.14903  0.34714  1.0000
  O   O40       1.0  0.014520000000000007  0.86211  0.28672  1.0000
  O   O41       1.0  0.3072299999999999  0.8143  0.49526  1.0000
  O   O42       1.0  0.43555  0.86165  0.4719499999999999  1.0000
  O   O43       1.0  0.28440999999999994  0.68514  0.05206999999999999  1.0000
  O   O44       1.0  0.022119999999999983  0.72776  0.12112999999999999  1.0000
  O   O45       1.0  0.5995  0.81411  0.39731  1.0000
  O   O46       1.0  0.12472999999999997  0.5306  0.28977  1.0000
  O   O47       1.0  0.6524099999999998  0.51362  0.2937  1.0000
  O   O48       1.0  0.69001  0.39884  0.32648  1.0000
  O   O49       1.0  0.41786999999999996  0.49899  0.56171  1.0000
  O   O50       1.0  0.4569799999999999  0.42198  0.30627  1.0000
  O   O51       1.0  0.5715  0.3192  0.42547999999999997  1.0000
  O   O52       1.0  0.26539  0.51786  0.52226  1.0000
  O   O53       1.0  0.95203  0.57607  0.12079  1.0000
  O   O54       1.0  0.84868  0.64994  0.15422  1.0000
  O   O55       1.0  0.4844299999999999  0.37174  0.20748  1.0000
  O   O56       1.0  0.19531999999999994  0.31593  0.005869999999999999  1.0000
  O   O57       1.0  0.06505  0.36  0.028489999999999998  1.0000
  O   O58       1.0  0.21569999999999995  0.18371  0.44800999999999996  1.0000
  O   O59       1.0  0.48003999999999986  0.22875  0.37786999999999993  1.0000
  O   O60       1.0  0.9029999999999998  0.3157  0.10319  1.0000
