data_image0
_chemical_formula_structural       Zn8H128C200N16O32
_chemical_formula_sum              "Zn8 H128 C200 N16 O32"
_cell_length_a       16.41971
_cell_length_b       18.27294
_cell_length_c       22.032850000000003
_cell_angle_alpha    89.99965
_cell_angle_beta     108.69630999999998
_cell_angle_gamma    90.02375

_space_group_name_H-M_alt    "P 1"
_space_group_IT_number       1

loop_
  _space_group_symop_operation_xyz
  'x, y, z'

loop_
  _atom_site_type_symbol
  _atom_site_label
  _atom_site_symmetry_multiplicity
  _atom_site_fract_x
  _atom_site_fract_y
  _atom_site_fract_z
  _atom_site_occupancy
  Zn  Zn1       1.0  0.4423500000000001  0.5500499999999999  0.71967  1.0000
  Zn  Zn2       1.0  0.53979  0.46005  0.66081  1.0000
  Zn  Zn3       1.0  0.94195  0.9497500000000001  0.21912  1.0000
  Zn  Zn4       1.0  0.03924  0.0395  0.15993  1.0000
  Zn  Zn5       1.0  0.05804999999999994  0.05025  0.78088  1.0000
  Zn  Zn6       1.0  0.96076  0.9605  0.8400799999999999  1.0000
  Zn  Zn7       1.0  0.55765  0.44994  0.28034  1.0000
  Zn  Zn8       1.0  0.46021  0.53994  0.33919  1.0000
  H   H1        1.0  0.54841  0.60662  0.51269  1.0000
  H   H2        1.0  0.52978  0.6975  0.42656999999999995  1.0000
  H   H3        1.0  0.41052  0.84585  0.52469  1.0000
  H   H4        1.0  0.4251899999999999  0.7508199999999999  0.61007  1.0000
  H   H5        1.0  0.15931  0.8250599999999998  0.36394  1.0000
  H   H6        1.0  0.30377  0.77568  0.4237699999999999  1.0000
  H   H7        1.0  0.42087  0.94639  0.34504  1.0000
  H   H8        1.0  0.27542  0.9912899999999999  0.28161  1.0000
  H   H9        1.0  0.94129  0.87242  0.34069  1.0000
  H   H10       1.0  0.83203  0.83401  0.39114999999999994  1.0000
  H   H11       1.0  0.63594  0.89501  0.21477  1.0000
  H   H12       1.0  0.75371  0.92901  0.17165  1.0000
  H   H13       1.0  0.5575  0.81695  0.24793  1.0000
  H   H14       1.0  0.4413  0.80607  0.2954  1.0000
  H   H15       1.0  0.6177299999999999  0.8611799999999997  0.48063  1.0000
  H   H16       1.0  0.73428  0.87615  0.4333  1.0000
  H   H17       1.0  0.33215  0.30577  0.56435  1.0000
  H   H18       1.0  0.19561  0.24145999999999998  0.50762  1.0000
  H   H19       1.0  0.05378  0.43631  0.51937  1.0000
  H   H20       1.0  0.19097000000000006  0.49966000000000005  0.57689  1.0000
  H   H21       1.0  0.92393  0.09554  0.35667  1.0000
  H   H22       1.0  0.9380300000000001  0.17884  0.44937  1.0000
  H   H23       1.0  0.11525  0.31293  0.39059  1.0000
  H   H24       1.0  0.10223  0.22735  0.29943  1.0000
  H   H25       1.0  0.58139  0.47925  0.53792  1.0000
  H   H26       1.0  0.69317  0.44038  0.49201  1.0000
  H   H27       1.0  0.80912  0.31682  0.66635  1.0000
  H   H28       1.0  0.69167  0.36168  0.70474  1.0000
  H   H29       1.0  0.75439  0.35899  0.44944  1.0000
  H   H30       1.0  0.8722199999999998  0.3258  0.40801  1.0000
  H   H31       1.0  0.04268  0.29812  0.60083  1.0000
  H   H32       1.0  0.92576  0.33123  0.64296  1.0000
  H   H33       1.0  0.0486  0.89327  0.012360000000000001  1.0000
  H   H34       1.0  0.029949999999999942  0.80226  0.9262199999999999  1.0000
  H   H35       1.0  0.91069  0.65389  0.0246  1.0000
  H   H36       1.0  0.92534  0.74921  0.10981  1.0000
  H   H37       1.0  0.65941  0.67439  0.86428  1.0000
  H   H38       1.0  0.80382  0.72445  0.92344  1.0000
  H   H39       1.0  0.9209199999999998  0.5537599999999999  0.84473  1.0000
  H   H40       1.0  0.77542  0.50843  0.78165  1.0000
  H   H41       1.0  0.44142  0.62717  0.84084  1.0000
  H   H42       1.0  0.33219000000000004  0.66599  0.8911700000000001  1.0000
  H   H43       1.0  0.13606  0.60494  0.71461  1.0000
  H   H44       1.0  0.25394  0.5706899999999999  0.67169  1.0000
  H   H45       1.0  0.05768000000000002  0.683  0.74782  1.0000
  H   H46       1.0  0.94145  0.69384  0.79525  1.0000
  H   H47       1.0  0.11780000000000003  0.6387799999999999  0.9804900000000001  1.0000
  H   H48       1.0  0.23432  0.62385  0.9331799999999999  1.0000
  H   H49       1.0  0.83186  0.19416  0.06408  1.0000
  H   H50       1.0  0.6952999999999998  0.25862  0.00765  1.0000
  H   H51       1.0  0.55328  0.06386  0.01924  1.0000
  H   H52       1.0  0.69036  0.00031  0.07667  1.0000
  H   H53       1.0  0.4240199999999999  0.40413  0.85645  1.0000
  H   H54       1.0  0.4382199999999999  0.32105  0.94957  1.0000
  H   H55       1.0  0.61532  0.18675  0.8908500000000001  1.0000
  H   H56       1.0  0.60239  0.27226  0.7996099999999999  1.0000
  H   H57       1.0  0.08122  0.02077  0.0378  1.0000
  H   H58       1.0  0.19316000000000005  0.05955  0.99202  1.0000
  H   H59       1.0  0.30915  0.18309999999999998  0.16638  1.0000
  H   H60       1.0  0.19157  0.13832  0.20471  1.0000
  H   H61       1.0  0.25434  0.14099  0.94945  1.0000
  H   H62       1.0  0.3723099999999999  0.17425999999999997  0.9080899999999998  1.0000
  H   H63       1.0  0.5427  0.2019  0.10091  1.0000
  H   H64       1.0  0.42573  0.16869  0.14302  1.0000
  H   H65       1.0  0.9514000000000001  0.10673  0.9876400000000001  1.0000
  H   H66       1.0  0.97005  0.19773  0.07379  1.0000
  H   H67       1.0  0.08931000000000003  0.34611  0.97541  1.0000
  H   H68       1.0  0.07466  0.25079  0.89019  1.0000
  H   H69       1.0  0.34059  0.3256  0.13572  1.0000
  H   H70       1.0  0.19617999999999997  0.27555  0.07656  1.0000
  H   H71       1.0  0.07908  0.44624  0.15528  1.0000
  H   H72       1.0  0.22457999999999995  0.49157  0.21836  1.0000
  H   H73       1.0  0.55858  0.37282999999999994  0.15917  1.0000
  H   H74       1.0  0.66781  0.3340099999999999  0.10883999999999999  1.0000
  H   H75       1.0  0.86394  0.39505  0.28539  1.0000
  H   H76       1.0  0.74606  0.4293  0.32831  1.0000
  H   H77       1.0  0.94232  0.317  0.25218  1.0000
  H   H78       1.0  0.05855  0.30616  0.20475999999999997  1.0000
  H   H79       1.0  0.88221  0.36122  0.01951  1.0000
  H   H80       1.0  0.76568  0.37615  0.06683  1.0000
  H   H81       1.0  0.16814  0.80583  0.9359300000000002  1.0000
  H   H82       1.0  0.3047  0.74137  0.99236  1.0000
  H   H83       1.0  0.44672000000000006  0.9361399999999999  0.9807700000000001  1.0000
  H   H84       1.0  0.30964  0.9996899999999999  0.92333  1.0000
  H   H85       1.0  0.57598  0.59587  0.14355  1.0000
  H   H86       1.0  0.56178  0.67895  0.05043  1.0000
  H   H87       1.0  0.38467999999999997  0.8132499999999999  0.10915  1.0000
  H   H88       1.0  0.39760999999999996  0.72774  0.20039  1.0000
  H   H89       1.0  0.9187800000000002  0.9792200000000001  0.9622000000000002  1.0000
  H   H90       1.0  0.80684  0.94045  0.00798  1.0000
  H   H91       1.0  0.69085  0.81689  0.83363  1.0000
  H   H92       1.0  0.80843  0.8616799999999998  0.7952900000000002  1.0000
  H   H93       1.0  0.74566  0.85901  0.050550000000000005  1.0000
  H   H94       1.0  0.62769  0.8257399999999998  0.09192  1.0000
  H   H95       1.0  0.45730000000000004  0.79809  0.8991  1.0000
  H   H96       1.0  0.57427  0.8313  0.85698  1.0000
  H   H97       1.0  0.45159  0.3933799999999999  0.48730999999999997  1.0000
  H   H98       1.0  0.47022  0.3025  0.57343  1.0000
  H   H99       1.0  0.58948  0.15415  0.47532  1.0000
  H   H100      1.0  0.57481  0.24917999999999998  0.38993  1.0000
  H   H101      1.0  0.84069  0.17493999999999998  0.63606  1.0000
  H   H102      1.0  0.69623  0.22432  0.57623  1.0000
  H   H103      1.0  0.57913  0.05361  0.65496  1.0000
  H   H104      1.0  0.72458  0.00871  0.71839  1.0000
  H   H105      1.0  0.05871  0.12757  0.65931  1.0000
  H   H106      1.0  0.16797000000000006  0.16599  0.60886  1.0000
  H   H107      1.0  0.3640599999999999  0.10499  0.78523  1.0000
  H   H108      1.0  0.24629000000000004  0.07097999999999999  0.82835  1.0000
  H   H109      1.0  0.4425  0.18305  0.75208  1.0000
  H   H110      1.0  0.5587  0.19392999999999996  0.7046  1.0000
  H   H111      1.0  0.38227  0.13882  0.51938  1.0000
  H   H112      1.0  0.26572  0.12384999999999999  0.56671  1.0000
  H   H113      1.0  0.66785  0.69422  0.4356499999999999  1.0000
  H   H114      1.0  0.80439  0.75854  0.49237999999999993  1.0000
  H   H115      1.0  0.9462199999999998  0.56368  0.48063999999999996  1.0000
  H   H116      1.0  0.80903  0.5003399999999999  0.42310999999999993  1.0000
  H   H117      1.0  0.07607000000000001  0.9044599999999999  0.64333  1.0000
  H   H118      1.0  0.06197999999999999  0.82116  0.55063  1.0000
  H   H119      1.0  0.88475  0.68707  0.60941  1.0000
  H   H120      1.0  0.8977699999999998  0.77265  0.70058  1.0000
  H   H121      1.0  0.41860999999999987  0.52075  0.46208  1.0000
  H   H122      1.0  0.30683  0.55962  0.50799  1.0000
  H   H123      1.0  0.19088  0.68318  0.33366  1.0000
  H   H124      1.0  0.30832999999999994  0.63832  0.29526  1.0000
  H   H125      1.0  0.24561  0.64101  0.55056  1.0000
  H   H126      1.0  0.12778000000000006  0.6742  0.59199  1.0000
  H   H127      1.0  0.95733  0.7018799999999998  0.3991700000000001  1.0000
  H   H128      1.0  0.07424  0.66877  0.35705  1.0000
  C   C1        1.0  0.48711  0.61308  0.61281  1.0000
  C   C2        1.0  0.48656  0.67261  0.56631  1.0000
  C   C3        1.0  0.51881  0.65909  0.51564  1.0000
  C   C4        1.0  0.5093  0.71065  0.46759  1.0000
  C   C5        1.0  0.46895  0.7775699999999998  0.4704  1.0000
  C   C6        1.0  0.44046999999999986  0.79324  0.52268  1.0000
  C   C7        1.0  0.44865  0.74061  0.56995  1.0000
  C   C8        1.0  0.12217000000000006  0.93628  0.2763  1.0000
  C   C9        1.0  0.20807  0.91044  0.31787  1.0000
  C   C10       1.0  0.21693  0.85094  0.35963  1.0000
  C   C11       1.0  0.29786  0.82356  0.39353  1.0000
  C   C12       1.0  0.37238  0.8565699999999998  0.38743  1.0000
  C   C13       1.0  0.36371  0.91909  0.34845  1.0000
  C   C14       1.0  0.28266  0.94446  0.31334  1.0000
  C   C15       1.0  0.87271  0.876  0.3147  1.0000
  C   C16       1.0  0.81122  0.85537  0.34249  1.0000
  C   C17       1.0  0.72301  0.86249  0.30789  1.0000
  C   C18       1.0  0.70257  0.88736  0.24424  1.0000
  C   C19       1.0  0.76745  0.90669  0.21967  1.0000
  C   C20       1.0  0.65509  0.84884  0.33667  1.0000
  C   C21       1.0  0.57121  0.8291799999999998  0.29859  1.0000
  C   C22       1.0  0.5054199999999998  0.8221599999999998  0.32511  1.0000
  C   C23       1.0  0.5213800000000001  0.83463  0.39081000000000005  1.0000
  C   C24       1.0  0.60526  0.8520399999999998  0.42967000000000005  1.0000
  C   C25       1.0  0.67078  0.85926  0.40284  1.0000
  C   C26       1.0  0.3523  0.44519  0.61095  1.0000
  C   C27       1.0  0.27057  0.40702  0.57447  1.0000
  C   C28       1.0  0.27114  0.33432  0.55399  1.0000
  C   C29       1.0  0.19459  0.29808  0.52259  1.0000
  C   C30       1.0  0.11549  0.33443  0.51018  1.0000
  C   C31       1.0  0.11475999999999997  0.40775  0.52949  1.0000
  C   C32       1.0  0.19141  0.44307  0.56174  1.0000
  C   C33       1.0  0.004599999999999994  0.10482  0.26788  1.0000
  C   C34       1.0  0.0118  0.15651  0.3221  1.0000
  C   C35       1.0  0.96517  0.14357  0.36448  1.0000
  C   C36       1.0  0.97309  0.19002  0.41609  1.0000
  C   C37       1.0  0.02755999999999996  0.25145  0.42606999999999995  1.0000
  C   C38       1.0  0.07353  0.26529  0.38319  1.0000
  C   C39       1.0  0.06609000000000002  0.21775  0.33232  1.0000
  C   C40       1.0  0.63291  0.44303999999999993  0.5646  1.0000
  C   C41       1.0  0.69615  0.42071  0.5393  1.0000
  C   C42       1.0  0.76268  0.37436  0.57496  1.0000
  C   C43       1.0  0.76097  0.3536  0.63618  1.0000
  C   C44       1.0  0.6952399999999999  0.37781  0.65807  1.0000
  C   C45       1.0  0.83105  0.3497  0.5497  1.0000
  C   C46       1.0  0.8175  0.34636  0.48319000000000006  1.0000
  C   C47       1.0  0.88369  0.32751  0.45944  1.0000
  C   C48       1.0  0.96617  0.31166  0.5017  1.0000
  C   C49       1.0  0.9793900000000001  0.31166999999999995  0.56798  1.0000
  C   C50       1.0  0.9129800000000001  0.33031  0.59136  1.0000
  C   C51       1.0  0.9865  0.8869399999999998  0.11196000000000002  1.0000
  C   C52       1.0  0.9865399999999999  0.82732  0.06583  1.0000
  C   C53       1.0  0.018999999999999993  0.84076  0.0153  1.0000
  C   C54       1.0  0.009579999999999995  0.78914  0.96731  1.0000
  C   C55       1.0  0.9691299999999998  0.72223  0.97022  1.0000
  C   C56       1.0  0.94067  0.70652  0.02251  1.0000
  C   C57       1.0  0.94875  0.7592799999999997  0.06965  1.0000
  C   C58       1.0  0.6222699999999997  0.56226  0.7775199999999999  1.0000
  C   C59       1.0  0.70816  0.58872  0.81852  1.0000
  C   C60       1.0  0.7170199999999999  0.6485099999999999  0.85999  1.0000
  C   C61       1.0  0.7979399999999998  0.67639  0.8933799999999998  1.0000
  C   C62       1.0  0.87239  0.64342  0.88718  1.0000
  C   C63       1.0  0.86373  0.58086  0.84824  1.0000
  C   C64       1.0  0.78269  0.55512  0.8135299999999999  1.0000
  C   C65       1.0  0.3728299999999999  0.62378  0.8148099999999999  1.0000
  C   C66       1.0  0.31132999999999994  0.64452  0.8425299999999999  1.0000
  C   C67       1.0  0.22311999999999996  0.63745  0.80783  1.0000
  C   C68       1.0  0.20268999999999998  0.6125199999999998  0.74418  1.0000
  C   C69       1.0  0.26758  0.59311  0.71968  1.0000
  C   C70       1.0  0.15520000000000006  0.6511399999999999  0.83657  1.0000
  C   C71       1.0  0.07135000000000002  0.67076  0.7984600000000001  1.0000
  C   C72       1.0  0.005549999999999941  0.67776  0.8249499999999999  1.0000
  C   C73       1.0  0.021480000000000048  0.6652599999999999  0.89064  1.0000
  C   C74       1.0  0.10534000000000002  0.64791  0.92954  1.0000
  C   C75       1.0  0.17084999999999997  0.64073  0.9027199999999999  1.0000
  C   C76       1.0  0.85204  0.05510999999999999  0.11027000000000002  1.0000
  C   C77       1.0  0.7701100000000001  0.09301  0.07416  1.0000
  C   C78       1.0  0.77078  0.16572  0.05381  1.0000
  C   C79       1.0  0.69433  0.20199999999999999  0.02258  1.0000
  C   C80       1.0  0.61529  0.16557999999999998  0.01025  1.0000
  C   C81       1.0  0.61438  0.09228  0.02944  1.0000
  C   C82       1.0  0.69095  0.05691  0.06162999999999999  1.0000
  C   C83       1.0  0.50468  0.39468  0.76793  1.0000
  C   C84       1.0  0.5117  0.34304  0.82211  1.0000
  C   C85       1.0  0.46513999999999994  0.35607  0.8644699999999998  1.0000
  C   C86       1.0  0.47318  0.30981  0.91621  1.0000
  C   C87       1.0  0.52758  0.2484  0.9261800000000001  1.0000
  C   C88       1.0  0.57361  0.23442  0.88335  1.0000
  C   C89       1.0  0.56616  0.28188  0.83244  1.0000
  C   C90       1.0  0.13279  0.05697  0.06451  1.0000
  C   C91       1.0  0.19608  0.07927  0.03927  1.0000
  C   C92       1.0  0.26262  0.12563  0.07497  1.0000
  C   C93       1.0  0.26091  0.14637  0.13619  1.0000
  C   C94       1.0  0.19512999999999994  0.12218  0.15804  1.0000
  C   C95       1.0  0.33101  0.15029999999999996  0.04974  1.0000
  C   C96       1.0  0.31745  0.15363  0.9832300000000002  1.0000
  C   C97       1.0  0.3836499999999999  0.17253999999999997  0.9594999999999999  1.0000
  C   C98       1.0  0.4661  0.18842  0.0018  1.0000
  C   C99       1.0  0.47938  0.18838  0.06807  1.0000
  C   C100      1.0  0.41295  0.16967  0.09143  1.0000
  C   C101      1.0  0.013500000000000028  0.11304999999999998  0.88804  1.0000
  C   C102      1.0  0.01346000000000001  0.17268  0.93418  1.0000
  C   C103      1.0  0.981  0.15922999999999995  0.9847  1.0000
  C   C104      1.0  0.99042  0.21084999999999998  0.03269  1.0000
  C   C105      1.0  0.030869999999999998  0.27777  0.02979  1.0000
  C   C106      1.0  0.059329999999999994  0.29348  0.9775  1.0000
  C   C107      1.0  0.051250000000000046  0.24072  0.93035  1.0000
  C   C108      1.0  0.37773  0.43773  0.22248  1.0000
  C   C109      1.0  0.29184  0.41127  0.18148  1.0000
  C   C110      1.0  0.28298  0.35149  0.14001  1.0000
  C   C111      1.0  0.20207  0.32361  0.10662  1.0000
  C   C112      1.0  0.12761  0.35658  0.11282  1.0000
  C   C113      1.0  0.13627  0.41913  0.15177  1.0000
  C   C114      1.0  0.21731  0.44488  0.18648  1.0000
  C   C115      1.0  0.62717  0.37622  0.18519  1.0000
  C   C116      1.0  0.68867  0.35546999999999995  0.15748  1.0000
  C   C117      1.0  0.77688  0.3625499999999999  0.19218  1.0000
  C   C118      1.0  0.79731  0.38748  0.25583  1.0000
  C   C119      1.0  0.7324199999999997  0.40689  0.28032  1.0000
  C   C120      1.0  0.8448  0.34885999999999995  0.16344  1.0000
  C   C121      1.0  0.9286500000000001  0.32923  0.20154000000000002  1.0000
  C   C122      1.0  0.99445  0.32223  0.17505  1.0000
  C   C123      1.0  0.9785200000000001  0.33473  0.10937  1.0000
  C   C124      1.0  0.89467  0.35209  0.07046  1.0000
  C   C125      1.0  0.82915  0.3592699999999999  0.09729  1.0000
  C   C126      1.0  0.14795999999999995  0.94489  0.8897399999999999  1.0000
  C   C127      1.0  0.22989  0.90698  0.92584  1.0000
  C   C128      1.0  0.22922  0.83428  0.94619  1.0000
  C   C129      1.0  0.30566999999999994  0.7979899999999999  0.97742  1.0000
  C   C130      1.0  0.38470999999999994  0.83441  0.98975  1.0000
  C   C131      1.0  0.38561999999999996  0.90772  0.9705599999999999  1.0000
  C   C132      1.0  0.30905  0.9430799999999999  0.93837  1.0000
  C   C133      1.0  0.49533  0.60531  0.23208000000000004  1.0000
  C   C134      1.0  0.4883  0.65696  0.17789  1.0000
  C   C135      1.0  0.53486  0.64393  0.13553  1.0000
  C   C136      1.0  0.52682  0.69019  0.0838  1.0000
  C   C137      1.0  0.47242  0.7516  0.07383  1.0000
  C   C138      1.0  0.42639  0.7655799999999999  0.11666000000000001  1.0000
  C   C139      1.0  0.4338399999999999  0.71811  0.16757  1.0000
  C   C140      1.0  0.86721  0.9430199999999999  0.93549  1.0000
  C   C141      1.0  0.80392  0.92073  0.9607400000000001  1.0000
  C   C142      1.0  0.73738  0.8743599999999998  0.92503  1.0000
  C   C143      1.0  0.73909  0.8536299999999999  0.86381  1.0000
  C   C144      1.0  0.80487  0.8778200000000002  0.84196  1.0000
  C   C145      1.0  0.66899  0.8497  0.95027  1.0000
  C   C146      1.0  0.68255  0.84636  0.01678  1.0000
  C   C147      1.0  0.61635  0.82745  0.0405  1.0000
  C   C148      1.0  0.5339100000000001  0.81158  0.9982000000000001  1.0000
  C   C149      1.0  0.5206199999999999  0.8116199999999999  0.93193  1.0000
  C   C150      1.0  0.58705  0.83032  0.90857  1.0000
  C   C151      1.0  0.51289  0.38692  0.38719000000000003  1.0000
  C   C152      1.0  0.51345  0.32737999999999995  0.4337  1.0000
  C   C153      1.0  0.4812  0.34091  0.48436  1.0000
  C   C154      1.0  0.4907  0.28935  0.53241  1.0000
  C   C155      1.0  0.53105  0.22243000000000002  0.5296  1.0000
  C   C156      1.0  0.55953  0.20676  0.4773200000000001  1.0000
  C   C157      1.0  0.55135  0.25939  0.43006  1.0000
  C   C158      1.0  0.8778300000000001  0.06372  0.72371  1.0000
  C   C159      1.0  0.79193  0.08956  0.68213  1.0000
  C   C160      1.0  0.78307  0.14906  0.64038  1.0000
  C   C161      1.0  0.70214  0.17644  0.60647  1.0000
  C   C162      1.0  0.6276199999999997  0.14343  0.61257  1.0000
  C   C163      1.0  0.63629  0.08091  0.65156  1.0000
  C   C164      1.0  0.71734  0.055529999999999996  0.68667  1.0000
  C   C165      1.0  0.12728999999999993  0.12399999999999999  0.6853  1.0000
  C   C166      1.0  0.18878  0.14461999999999997  0.65751  1.0000
  C   C167      1.0  0.27699  0.13751  0.69212  1.0000
  C   C168      1.0  0.2974299999999999  0.11264  0.75576  1.0000
  C   C169      1.0  0.23254999999999995  0.09331  0.78033  1.0000
  C   C170      1.0  0.34491  0.15115999999999996  0.66333  1.0000
  C   C171      1.0  0.42879  0.17081  0.70142  1.0000
  C   C172      1.0  0.4945800000000001  0.17784  0.67489  1.0000
  C   C173      1.0  0.47861999999999993  0.16536  0.60919  1.0000
  C   C174      1.0  0.39474  0.14796  0.57033  1.0000
  C   C175      1.0  0.32922  0.14074  0.59717  1.0000
  C   C176      1.0  0.6477  0.5547999999999998  0.38905  1.0000
  C   C177      1.0  0.7294300000000001  0.59297  0.42554  1.0000
  C   C178      1.0  0.72886  0.66568  0.44601  1.0000
  C   C179      1.0  0.8054099999999998  0.70192  0.47741000000000006  1.0000
  C   C180      1.0  0.88451  0.66557  0.48982  1.0000
  C   C181      1.0  0.8852399999999998  0.59225  0.47051000000000004  1.0000
  C   C182      1.0  0.80859  0.5569299999999999  0.43826  1.0000
  C   C183      1.0  0.9953999999999998  0.8951799999999999  0.73213  1.0000
  C   C184      1.0  0.9881999999999999  0.84349  0.67791  1.0000
  C   C185      1.0  0.03482999999999999  0.85642  0.63552  1.0000
  C   C186      1.0  0.026909999999999948  0.80997  0.58392  1.0000
  C   C187      1.0  0.9724399999999997  0.74855  0.57394  1.0000
  C   C188      1.0  0.92647  0.7347  0.61682  1.0000
  C   C189      1.0  0.93391  0.7822399999999999  0.66769  1.0000
  C   C190      1.0  0.36709  0.55696  0.4354  1.0000
  C   C191      1.0  0.3038600000000001  0.57928  0.46070000000000005  1.0000
  C   C192      1.0  0.23731999999999998  0.62564  0.4250399999999999  1.0000
  C   C193      1.0  0.23903  0.6464  0.36382  1.0000
  C   C194      1.0  0.30476  0.62219  0.34193  1.0000
  C   C195      1.0  0.16895  0.6503  0.4503  1.0000
  C   C196      1.0  0.18251  0.6536299999999999  0.51681  1.0000
  C   C197      1.0  0.11631  0.67249  0.54056  1.0000
  C   C198      1.0  0.03383  0.68834  0.4983  1.0000
  C   C199      1.0  0.020609999999999993  0.68832  0.43202  1.0000
  C   C200      1.0  0.08702  0.66968  0.40864  1.0000
  N   N1        1.0  0.45511  0.82794  0.41889999999999994  1.0000
  N   N2        1.0  0.85172  0.9026099999999999  0.2544  1.0000
  N   N3        1.0  0.03648000000000002  0.29817  0.47906  1.0000
  N   N4        1.0  0.63144  0.42178999999999994  0.62294  1.0000
  N   N5        1.0  0.9551899999999999  0.67191  0.91868  1.0000
  N   N6        1.0  0.35183  0.59716  0.75451  1.0000
  N   N7        1.0  0.5363800000000001  0.20181  0.9791700000000001  1.0000
  N   N8        1.0  0.1313  0.07821  0.12283  1.0000
  N   N9        1.0  0.04481  0.32809  0.08133  1.0000
  N   N10       1.0  0.64817  0.40283  0.24549000000000004  1.0000
  N   N11       1.0  0.46362  0.79818  0.02083  1.0000
  N   N12       1.0  0.8687  0.92178  0.87717  1.0000
  N   N13       1.0  0.5449  0.17206  0.5811  1.0000
  N   N14       1.0  0.14828999999999995  0.09739  0.7456  1.0000
  N   N15       1.0  0.96353  0.70183  0.52094  1.0000
  N   N16       1.0  0.36856  0.5782  0.37706  1.0000
  O   O1        1.0  0.51099  0.54998  0.60025  1.0000
  O   O2        1.0  0.46139  0.62921  0.66008  1.0000
  O   O3        1.0  0.05474  0.9148099999999999  0.28811  1.0000
  O   O4        1.0  0.12329999999999999  0.978  0.23016  1.0000
  O   O5        1.0  0.3454599999999999  0.50547  0.63815  1.0000
  O   O6        1.0  0.42263  0.41452  0.61217  1.0000
  O   O7        1.0  0.95398  0.0504  0.26317  1.0000
  O   O8        1.0  0.048769999999999994  0.11837  0.23094999999999996  1.0000
  O   O9        1.0  0.01121  0.9499099999999999  0.09976  1.0000
  O   O10       1.0  0.95962  0.87091  0.15862  1.0000
  O   O11       1.0  0.55509  0.58159  0.7908  1.0000
  O   O12       1.0  0.6231799999999998  0.52242  0.73021  1.0000
  O   O13       1.0  0.84565  0.99538  0.13837  1.0000
  O   O14       1.0  0.92214  0.08535  0.11035  1.0000
  O   O15       1.0  0.45201  0.44793  0.76118  1.0000
  O   O16       1.0  0.55158  0.3818599999999999  0.73284  1.0000
  O   O17       1.0  0.9887899999999998  0.05008  0.90024  1.0000
  O   O18       1.0  0.04038000000000003  0.12909  0.84138  1.0000
  O   O19       1.0  0.44491  0.41841  0.20921  1.0000
  O   O20       1.0  0.37682  0.47757999999999995  0.26979  1.0000
  O   O21       1.0  0.15435000000000004  0.00462  0.86163  1.0000
  O   O22       1.0  0.07786999999999998  0.91465  0.88965  1.0000
  O   O23       1.0  0.5479899999999998  0.55206  0.23882  1.0000
  O   O24       1.0  0.44842  0.6181299999999998  0.26716  1.0000
  O   O25       1.0  0.48901  0.45002  0.39975  1.0000
  O   O26       1.0  0.53861  0.37079  0.33992  1.0000
  O   O27       1.0  0.94526  0.08519  0.71189  1.0000
  O   O28       1.0  0.8766999999999999  0.022  0.76985  1.0000
  O   O29       1.0  0.65454  0.49452  0.36185  1.0000
  O   O30       1.0  0.57737  0.58548  0.38783000000000006  1.0000
  O   O31       1.0  0.046019999999999985  0.9496  0.73684  1.0000
  O   O32       1.0  0.95123  0.88162  0.7690499999999999  1.0000
