data_image0
_chemical_formula_structural       Zn8H56C112N16O36
_chemical_formula_sum              "Zn8 H56 C112 N16 O36"
_cell_length_a       13.34693
_cell_length_b       13.90379
_cell_length_c       21.48248
_cell_angle_alpha    94.0351
_cell_angle_beta     90.0
_cell_angle_gamma    90.0

_space_group_name_H-M_alt    "P 1"
_space_group_IT_number       1

loop_
  _space_group_symop_operation_xyz
  'x, y, z'

loop_
  _atom_site_type_symbol
  _atom_site_label
  _atom_site_symmetry_multiplicity
  _atom_site_fract_x
  _atom_site_fract_y
  _atom_site_fract_z
  _atom_site_occupancy
  Zn  Zn1       1.0  0.26098  0.44811  0.16764  1.0000
  Zn  Zn2       1.0  0.60355  0.0031699999999999953  0.22005999999999995  1.0000
  Zn  Zn3       1.0  0.7609799999999998  0.05189  0.33236  1.0000
  Zn  Zn4       1.0  0.10354999999999998  0.49681999999999993  0.27994  1.0000
  Zn  Zn5       1.0  0.73902  0.55189  0.8323599999999999  1.0000
  Zn  Zn6       1.0  0.39645  0.9968200000000003  0.7799399999999999  1.0000
  Zn  Zn7       1.0  0.23901999999999995  0.94811  0.66764  1.0000
  Zn  Zn8       1.0  0.8964499999999999  0.5031699999999999  0.7200599999999999  1.0000
  H   H1        1.0  0.3494399999999999  0.77862  0.26129  1.0000
  H   H2        1.0  0.36643  0.88954  0.08006999999999999  1.0000
  H   H3        1.0  0.15723  0.6615200000000002  0.11380999999999998  1.0000
  H   H4        1.0  0.98962  0.67566  0.94844  1.0000
  H   H5        1.0  0.06321  0.7622499999999999  0.7652199999999998  1.0000
  H   H6        1.0  0.24606  0.8567300000000002  0.92299  1.0000
  H   H7        1.0  0.17021  0.41354  0.03235999999999999  1.0000
  H   H8        1.0  0.19534  0.48743000000000014  0.9297399999999999  1.0000
  H   H9        1.0  0.3392399999999999  0.60109  0.9188  1.0000
  H   H10       1.0  0.4900299999999999  0.6869600000000001  0.9686599999999997  1.0000
  H   H11       1.0  0.59462  0.72468  0.0626  1.0000
  H   H12       1.0  0.6291599999999998  0.7041900000000001  0.17715  1.0000
  H   H13       1.0  0.5830199999999999  0.6228500000000002  0.27311  1.0000
  H   H14       1.0  0.43825  0.50646  0.26908  1.0000
  H   H15       1.0  0.8494399999999998  0.7213700000000002  0.23871  1.0000
  H   H16       1.0  0.8664299999999998  0.61046  0.41993  1.0000
  H   H17       1.0  0.6572299999999998  0.83848  0.3861899999999999  1.0000
  H   H18       1.0  0.48961999999999994  0.82433  0.55156  1.0000
  H   H19       1.0  0.56321  0.73774  0.73478  1.0000
  H   H20       1.0  0.74606  0.64326  0.57701  1.0000
  H   H21       1.0  0.67021  0.08645999999999998  0.4676399999999999  1.0000
  H   H22       1.0  0.6953399999999998  0.01257  0.57026  1.0000
  H   H23       1.0  0.83924  0.8989  0.58121  1.0000
  H   H24       1.0  0.9900299999999997  0.81303  0.53134  1.0000
  H   H25       1.0  0.09462  0.77532  0.43739999999999996  1.0000
  H   H26       1.0  0.12916  0.79581  0.32285  1.0000
  H   H27       1.0  0.08302  0.87715  0.22689  1.0000
  H   H28       1.0  0.93825  0.99354  0.23092  1.0000
  H   H29       1.0  0.65056  0.22137000000000007  0.73871  1.0000
  H   H30       1.0  0.63357  0.11046  0.91993  1.0000
  H   H31       1.0  0.84277  0.33848  0.88619  1.0000
  H   H32       1.0  0.01038  0.32434000000000013  0.05156  1.0000
  H   H33       1.0  0.9368  0.23774000000000003  0.23477999999999996  1.0000
  H   H34       1.0  0.7539399999999999  0.14327  0.07701  1.0000
  H   H35       1.0  0.8297899999999999  0.58646  0.9676399999999998  1.0000
  H   H36       1.0  0.80466  0.51257  0.07026  1.0000
  H   H37       1.0  0.6607599999999999  0.3989  0.0812  1.0000
  H   H38       1.0  0.50997  0.31303  0.03134  1.0000
  H   H39       1.0  0.4053799999999999  0.27532  0.9373999999999998  1.0000
  H   H40       1.0  0.37083999999999995  0.29581000000000013  0.82285  1.0000
  H   H41       1.0  0.41698  0.37715  0.7268899999999999  1.0000
  H   H42       1.0  0.56175  0.4935400000000001  0.73092  1.0000
  H   H43       1.0  0.15055999999999997  0.27862  0.76129  1.0000
  H   H44       1.0  0.13357  0.3895400000000001  0.5800699999999999  1.0000
  H   H45       1.0  0.34276999999999996  0.16152  0.61381  1.0000
  H   H46       1.0  0.51038  0.17566000000000004  0.44844  1.0000
  H   H47       1.0  0.4367899999999999  0.26226  0.26522  1.0000
  H   H48       1.0  0.25394  0.35673  0.4229899999999999  1.0000
  H   H49       1.0  0.32979  0.9135300000000001  0.53236  1.0000
  H   H50       1.0  0.3046599999999999  0.98743  0.42974  1.0000
  H   H51       1.0  0.16076  0.10109  0.4188  1.0000
  H   H52       1.0  0.00997  0.18696  0.46866  1.0000
  H   H53       1.0  0.90538  0.22468  0.5626  1.0000
  H   H54       1.0  0.87084  0.20419  0.67715  1.0000
  H   H55       1.0  0.9169799999999998  0.12283999999999999  0.7731099999999999  1.0000
  H   H56       1.0  0.06175  0.006459999999999999  0.76908  1.0000
  C   C1        1.0  0.20897  0.64188  0.23384999999999997  1.0000
  C   C2        1.0  0.25046  0.71134  0.191  1.0000
  C   C3        1.0  0.32326  0.7771  0.21331  1.0000
  C   C4        1.0  0.36614  0.84031  0.17300999999999997  1.0000
  C   C5        1.0  0.3326599999999999  0.8407400000000003  0.11147  1.0000
  C   C6        1.0  0.25411  0.77907  0.08972  1.0000
  C   C7        1.0  0.21501999999999996  0.7119400000000001  0.12974  1.0000
  C   C8        1.0  0.12074999999999998  0.76357  0.94127  1.0000
  C   C9        1.0  0.03657  0.71421  0.9174199999999998  1.0000
  C   C10       1.0  0.0162  0.7130000000000002  0.85371  1.0000
  C   C11       1.0  0.07779  0.7642000000000002  0.8150499999999999  1.0000
  C   C12       1.0  0.15842999999999993  0.8181900000000002  0.84019  1.0000
  C   C13       1.0  0.18183  0.81688  0.90382  1.0000
  C   C14       1.0  0.44956  0.9035400000000002  0.19817  1.0000
  C   C15       1.0  0.22003  0.8775200000000001  0.79856  1.0000
  C   C16       1.0  0.9328199999999999  0.6519600000000002  0.82584  1.0000
  C   C17       1.0  0.23221  0.46243  0.02519  1.0000
  C   C18       1.0  0.24708999999999995  0.50418  0.96814  1.0000
  C   C19       1.0  0.32684999999999986  0.56667  0.96216  1.0000
  C   C20       1.0  0.3921399999999999  0.58726  0.013189999999999999  1.0000
  C   C21       1.0  0.47515999999999997  0.6526000000000001  0.011709999999999998  1.0000
  C   C22       1.0  0.53308  0.67337  0.06348  1.0000
  C   C23       1.0  0.5129399999999998  0.63005  0.12083  1.0000
  C   C24       1.0  0.5683  0.65149  0.17624  1.0000
  C   C25       1.0  0.5422  0.60711  0.2297  1.0000
  C   C26       1.0  0.46106999999999987  0.54231  0.22791  1.0000
  C   C27       1.0  0.43214  0.56409  0.12349999999999998  1.0000
  C   C28       1.0  0.37096  0.54234  0.06905  1.0000
  C   C29       1.0  0.7089699999999999  0.8581200000000001  0.26616  1.0000
  C   C30       1.0  0.7504599999999998  0.78865  0.309  1.0000
  C   C31       1.0  0.82325  0.7229  0.28669  1.0000
  C   C32       1.0  0.86614  0.65969  0.32699  1.0000
  C   C33       1.0  0.8326599999999997  0.65926  0.38852999999999993  1.0000
  C   C34       1.0  0.75411  0.7209300000000002  0.4102799999999999  1.0000
  C   C35       1.0  0.7150199999999999  0.78806  0.37026  1.0000
  C   C36       1.0  0.62075  0.7364300000000003  0.55873  1.0000
  C   C37       1.0  0.53657  0.78578  0.58258  1.0000
  C   C38       1.0  0.5162  0.78699  0.64629  1.0000
  C   C39       1.0  0.57779  0.73579  0.6849499999999998  1.0000
  C   C40       1.0  0.65843  0.6818  0.65981  1.0000
  C   C41       1.0  0.68183  0.6831100000000001  0.59618  1.0000
  C   C42       1.0  0.9495599999999998  0.59646  0.30183  1.0000
  C   C43       1.0  0.72003  0.62248  0.7014399999999998  1.0000
  C   C44       1.0  0.43280999999999986  0.84803  0.67415  1.0000
  C   C45       1.0  0.73221  0.037570000000000006  0.47481  1.0000
  C   C46       1.0  0.7470899999999998  0.9958100000000002  0.53186  1.0000
  C   C47       1.0  0.82685  0.93333  0.53784  1.0000
  C   C48       1.0  0.8921399999999999  0.9127300000000002  0.48681  1.0000
  C   C49       1.0  0.9751599999999998  0.8474  0.48829999999999996  1.0000
  C   C50       1.0  0.03308  0.8266300000000001  0.43652  1.0000
  C   C51       1.0  0.01294  0.8699500000000001  0.37917  1.0000
  C   C52       1.0  0.0683  0.8485100000000001  0.32377  1.0000
  C   C53       1.0  0.04219999999999999  0.8928900000000001  0.2703  1.0000
  C   C54       1.0  0.9610699999999998  0.95769  0.27209  1.0000
  C   C55       1.0  0.9321399999999999  0.93591  0.3765  1.0000
  C   C56       1.0  0.87096  0.9576500000000001  0.4309499999999999  1.0000
  C   C57       1.0  0.79103  0.35812  0.76615  1.0000
  C   C58       1.0  0.74954  0.28865  0.809  1.0000
  C   C59       1.0  0.67674  0.22290000000000004  0.78669  1.0000
  C   C60       1.0  0.63386  0.15969000000000005  0.8269899999999999  1.0000
  C   C61       1.0  0.66734  0.15926  0.88853  1.0000
  C   C62       1.0  0.7458899999999999  0.22093000000000002  0.91028  1.0000
  C   C63       1.0  0.78498  0.28806  0.87026  1.0000
  C   C64       1.0  0.8792499999999998  0.23643000000000006  0.05873  1.0000
  C   C65       1.0  0.96343  0.28578  0.08258  1.0000
  C   C66       1.0  0.9837999999999999  0.287  0.14629  1.0000
  C   C67       1.0  0.92221  0.23579999999999998  0.18494999999999998  1.0000
  C   C68       1.0  0.84157  0.1818  0.15981  1.0000
  C   C69       1.0  0.8181699999999998  0.18311  0.09618  1.0000
  C   C70       1.0  0.55044  0.09645999999999999  0.8018299999999999  1.0000
  C   C71       1.0  0.7799699999999998  0.12248000000000002  0.20144  1.0000
  C   C72       1.0  0.06718  0.34804000000000007  0.17416  1.0000
  C   C73       1.0  0.7677899999999998  0.53756  0.9748099999999998  1.0000
  C   C74       1.0  0.75291  0.4958100000000001  0.03185999999999999  1.0000
  C   C75       1.0  0.6731499999999999  0.43333  0.03784  1.0000
  C   C76       1.0  0.60786  0.41273  0.98681  1.0000
  C   C77       1.0  0.52484  0.3474  0.9883  1.0000
  C   C78       1.0  0.46691999999999995  0.32663  0.93652  1.0000
  C   C79       1.0  0.48706  0.36995  0.87917  1.0000
  C   C80       1.0  0.43171  0.34851  0.8237699999999998  1.0000
  C   C81       1.0  0.4578  0.39289  0.7702999999999999  1.0000
  C   C82       1.0  0.53893  0.45769  0.77209  1.0000
  C   C83       1.0  0.56786  0.4359  0.8765  1.0000
  C   C84       1.0  0.62904  0.45765  0.9309499999999999  1.0000
  C   C85       1.0  0.29102999999999996  0.14187000000000002  0.73385  1.0000
  C   C86       1.0  0.24953999999999996  0.21134000000000003  0.691  1.0000
  C   C87       1.0  0.17675  0.2771  0.71331  1.0000
  C   C88       1.0  0.13386  0.34031  0.6730099999999999  1.0000
  C   C89       1.0  0.16733999999999996  0.34074  0.61147  1.0000
  C   C90       1.0  0.24589  0.27906  0.58972  1.0000
  C   C91       1.0  0.28498  0.21194000000000002  0.62974  1.0000
  C   C92       1.0  0.3792499999999999  0.26357  0.44126999999999994  1.0000
  C   C93       1.0  0.4634299999999999  0.21422000000000002  0.41741999999999996  1.0000
  C   C94       1.0  0.4838  0.21300000000000005  0.35371  1.0000
  C   C95       1.0  0.42220999999999986  0.2642000000000001  0.31505  1.0000
  C   C96       1.0  0.34157  0.31819000000000003  0.34019  1.0000
  C   C97       1.0  0.31817  0.31688  0.40381999999999996  1.0000
  C   C98       1.0  0.05044  0.4035400000000002  0.69817  1.0000
  C   C99       1.0  0.27997  0.37752  0.29856  1.0000
  C   C100      1.0  0.56719  0.15196000000000007  0.32585  1.0000
  C   C101      1.0  0.26779  0.9624300000000001  0.52519  1.0000
  C   C102      1.0  0.25291  0.004179999999999995  0.46813999999999995  1.0000
  C   C103      1.0  0.17315  0.06667  0.46216  1.0000
  C   C104      1.0  0.10786  0.08726  0.51319  1.0000
  C   C105      1.0  0.024839999999999994  0.15260000000000007  0.51171  1.0000
  C   C106      1.0  0.96692  0.17337  0.56348  1.0000
  C   C107      1.0  0.98706  0.13005  0.62083  1.0000
  C   C108      1.0  0.9317  0.15149  0.6762399999999998  1.0000
  C   C109      1.0  0.9578  0.10711000000000001  0.7296999999999999  1.0000
  C   C110      1.0  0.03893  0.04231  0.72791  1.0000
  C   C111      1.0  0.06786  0.06409  0.6235  1.0000
  C   C112      1.0  0.12904  0.04234  0.56905  1.0000
  N   N1        1.0  0.29241  0.48111000000000004  0.07432  1.0000
  N   N2        1.0  0.40709  0.52162  0.17631  1.0000
  N   N3        1.0  0.22750999999999993  0.7885600000000003  0.02729  1.0000
  N   N4        1.0  0.14188  0.7547  0.00748  1.0000
  N   N5        1.0  0.7924099999999997  0.01889  0.42568  1.0000
  N   N6        1.0  0.90709  0.97838  0.32369  1.0000
  N   N7        1.0  0.72751  0.71144  0.47271  1.0000
  N   N8        1.0  0.64188  0.7453  0.49251999999999996  1.0000
  N   N9        1.0  0.70759  0.51889  0.9256799999999998  1.0000
  N   N10       1.0  0.59291  0.47838  0.82369  1.0000
  N   N11       1.0  0.77249  0.21144  0.97271  1.0000
  N   N12       1.0  0.8581199999999999  0.24529999999999996  0.9925199999999998  1.0000
  N   N13       1.0  0.20758999999999994  0.9811100000000003  0.57432  1.0000
  N   N14       1.0  0.09291  0.021620000000000014  0.67631  1.0000
  N   N15       1.0  0.27249  0.28856000000000004  0.52729  1.0000
  N   N16       1.0  0.35812  0.2547  0.50748  1.0000
  O   O1        1.0  0.17764  0.55818  0.20785  1.0000
  O   O2        1.0  0.20197  0.66192  0.29094  1.0000
  O   O3        1.0  0.46985  0.9055800000000003  0.25545  1.0000
  O   O4        1.0  0.4999499999999999  0.95211  0.15929  1.0000
  O   O5        1.0  0.28785  0.92974  0.82517  1.0000
  O   O6        1.0  0.19704  0.87121  0.7406  1.0000
  O   O7        1.0  0.8599999999999998  0.63249  0.8618299999999999  1.0000
  O   O8        1.0  0.9438899999999999  0.62441  0.76878  1.0000
  O   O9        1.0  0.07521  0.71365  0.038169999999999996  1.0000
  O   O10       1.0  0.67764  0.9418200000000002  0.29215  1.0000
  O   O11       1.0  0.70197  0.8380800000000003  0.20906  1.0000
  O   O12       1.0  0.96985  0.59441  0.24454999999999996  1.0000
  O   O13       1.0  0.9999499999999999  0.54789  0.34072  1.0000
  O   O14       1.0  0.7878499999999998  0.57026  0.67484  1.0000
  O   O15       1.0  0.69704  0.6287900000000002  0.75941  1.0000
  O   O16       1.0  0.35999999999999993  0.8675000000000002  0.63817  1.0000
  O   O17       1.0  0.44389  0.87559  0.73123  1.0000
  O   O18       1.0  0.57521  0.7863400000000003  0.46183  1.0000
  O   O19       1.0  0.82236  0.44182  0.7921499999999999  1.0000
  O   O20       1.0  0.7980299999999998  0.33808000000000005  0.70906  1.0000
  O   O21       1.0  0.53015  0.09441  0.7445499999999999  1.0000
  O   O22       1.0  0.50005  0.04789  0.8407199999999998  1.0000
  O   O23       1.0  0.71215  0.07026  0.17484  1.0000
  O   O24       1.0  0.8029599999999999  0.12879  0.2594  1.0000
  O   O25       1.0  0.14  0.3675  0.13817  1.0000
  O   O26       1.0  0.05611  0.37559000000000015  0.23123  1.0000
  O   O27       1.0  0.92479  0.28633999999999993  0.9618299999999997  1.0000
  O   O28       1.0  0.32236  0.05818  0.70785  1.0000
  O   O29       1.0  0.29803  0.16191999999999998  0.7909399999999999  1.0000
  O   O30       1.0  0.03015  0.4055800000000001  0.75545  1.0000
  O   O31       1.0  4.999999999999999e-05  0.45211  0.65929  1.0000
  O   O32       1.0  0.21215  0.42974  0.32516  1.0000
  O   O33       1.0  0.30296  0.37121000000000004  0.24059999999999998  1.0000
  O   O34       1.0  0.64  0.1325  0.36183  1.0000
  O   O35       1.0  0.55611  0.12441  0.26876999999999995  1.0000
  O   O36       1.0  0.42479  0.21365  0.53817  1.0000
