data_image0
_chemical_formula_structural       Cd8H96C96O32
_chemical_formula_sum              "Cd8 H96 C96 O32"
_cell_length_a       6.34977
_cell_length_b       22.016999999999996
_cell_length_c       21.99856
_cell_angle_alpha    90.00301
_cell_angle_beta     88.96613
_cell_angle_gamma    89.94001

_space_group_name_H-M_alt    "P 1"
_space_group_IT_number       1

loop_
  _space_group_symop_operation_xyz
  'x, y, z'

loop_
  _atom_site_type_symbol
  _atom_site_label
  _atom_site_symmetry_multiplicity
  _atom_site_fract_x
  _atom_site_fract_y
  _atom_site_fract_z
  _atom_site_occupancy
  Cd  Cd1       1.0  0.81488  0.16547  0.51665  1.0000
  Cd  Cd2       1.0  0.80152  0.6650399999999999  0.98434  1.0000
  Cd  Cd3       1.0  0.18556  0.16748  0.01496  1.0000
  Cd  Cd4       1.0  0.59564  0.66273  0.57264  1.0000
  Cd  Cd5       1.0  0.19426  0.66529  0.48356999999999994  1.0000
  Cd  Cd6       1.0  0.59597  0.16358  0.92748  1.0000
  Cd  Cd7       1.0  0.41091  0.16315999999999997  0.42904  1.0000
  Cd  Cd8       1.0  0.3912  0.6639399999999999  0.07364  1.0000
  H   H1        1.0  0.29972000000000004  0.31293  0.23183999999999994  1.0000
  H   H2        1.0  0.64584  0.82601  0.12574999999999997  1.0000
  H   H3        1.0  0.95998  0.3099  0.70309  1.0000
  H   H4        1.0  0.18140000000000003  0.50738  0.9118499999999999  1.0000
  H   H5        1.0  0.97104  0.02757  0.6975799999999999  1.0000
  H   H6        1.0  0.80216  0.50304  0.40048999999999996  1.0000
  H   H7        1.0  0.33947  0.5031  0.61992  1.0000
  H   H8        1.0  0.79036  0.02266  0.8256899999999999  1.0000
  H   H9        1.0  0.66975  0.00381  0.3822299999999999  1.0000
  H   H10       1.0  0.60536  0.43141  0.15096  1.0000
  H   H11       1.0  0.59389  0.27777  0.07370999999999998  1.0000
  H   H12       1.0  0.42335  0.8943  0.66066  1.0000
  H   H13       1.0  0.7906699999999999  0.80268  0.66367  1.0000
  H   H14       1.0  0.41271  0.55182  0.91913  1.0000
  H   H15       1.0  0.001140000000000009  0.7698099999999999  0.6224199999999999  1.0000
  H   H16       1.0  0.21048  0.52346  0.17277  1.0000
  H   H17       1.0  0.7378699999999999  0.77341  0.84156  1.0000
  H   H18       1.0  0.012539999999999999  0.525  0.30078  1.0000
  H   H19       1.0  0.95561  0.8036899999999999  0.80038  1.0000
  H   H20       1.0  0.04763999999999999  0.80543  0.6934  1.0000
  H   H21       1.0  0.25612  0.27947  0.15969999999999998  1.0000
  H   H22       1.0  0.85168  0.44072  0.11322999999999998  1.0000
  H   H23       1.0  0.94228  0.51951  0.19544999999999996  1.0000
  H   H24       1.0  0.95589  0.30833  0.30906  1.0000
  H   H25       1.0  0.59077  0.3338  0.131  1.0000
  H   H26       1.0  0.99167  0.2731  0.87893  1.0000
  H   H27       1.0  0.32186  0.003749999999999999  0.8822799999999998  1.0000
  H   H28       1.0  0.30102  0.02301  0.21771999999999997  1.0000
  H   H29       1.0  0.0056700000000000006  0.8069299999999999  0.29941  1.0000
  H   H30       1.0  0.39637  0.27798999999999996  0.57465  1.0000
  H   H31       1.0  0.69894  0.31195  0.7325499999999999  1.0000
  H   H32       1.0  0.36252000000000006  0.77878  0.92904  1.0000
  H   H33       1.0  0.76895  0.06001  0.6527  1.0000
  H   H34       1.0  0.40115  0.49510999999999994  0.8627799999999999  1.0000
  H   H35       1.0  0.41773  0.99256  0.6420599999999999  1.0000
  H   H36       1.0  0.78534  0.51905  0.67301  1.0000
  H   H37       1.0  0.8191599999999999  0.32351  0.08495  1.0000
  H   H38       1.0  0.21228000000000002  0.30417  0.33909999999999996  1.0000
  H   H39       1.0  0.64863  0.32489  0.37151  1.0000
  H   H40       1.0  0.41516000000000003  0.43254  0.65156  1.0000
  H   H41       1.0  0.76072  0.5552899999999998  0.84791  1.0000
  H   H42       1.0  0.24818000000000004  0.06205999999999999  0.14912999999999998  1.0000
  H   H43       1.0  0.16114  0.83109  0.9111199999999999  1.0000
  H   H44       1.0  0.13495000000000001  0.9440199999999999  0.8887099999999998  1.0000
  H   H45       1.0  0.56974  0.49283999999999994  0.35857999999999995  1.0000
  H   H46       1.0  0.21621  0.77714  0.34198  1.0000
  H   H47       1.0  0.0392  0.029199999999999993  0.19252999999999998  1.0000
  H   H48       1.0  0.40369  0.8321699999999999  0.87024  1.0000
  H   H49       1.0  0.34698  0.82442  0.6280499999999999  1.0000
  H   H50       1.0  0.0167  0.5537399999999999  0.12515  1.0000
  H   H51       1.0  0.6724300000000001  0.5025  0.11826999999999997  1.0000
  H   H52       1.0  0.42804000000000003  0.33314  0.6319899999999999  1.0000
  H   H53       1.0  0.4147600000000001  0.04954  0.58577  1.0000
  H   H54       1.0  0.9783399999999999  0.05486  0.87389  1.0000
  H   H55       1.0  0.029030000000000004  0.05226999999999999  0.37209999999999993  1.0000
  H   H56       1.0  0.04565  0.31017999999999996  0.8085999999999999  1.0000
  H   H57       1.0  0.82202  0.83226  0.40405999999999986  1.0000
  H   H58       1.0  0.63176  0.77847  0.42813  1.0000
  H   H59       1.0  0.69998  0.80849  0.7698399999999999  1.0000
  H   H60       1.0  0.5878  0.9956  0.13752999999999999  1.0000
  H   H61       1.0  0.1909  0.80473  0.16396  1.0000
  H   H62       1.0  0.57069  0.8310099999999999  0.37049999999999994  1.0000
  H   H63       1.0  0.5812  0.8975299999999998  0.1578  1.0000
  H   H64       1.0  0.70541  0.02355  0.7224599999999999  1.0000
  H   H65       1.0  0.15714000000000006  0.38896  0.87902  1.0000
  H   H66       1.0  0.04155  0.30884  0.20331  1.0000
  H   H67       1.0  0.4054500000000001  0.39854  0.8425599999999998  1.0000
  H   H68       1.0  0.28159  0.52277  0.27898  1.0000
  H   H69       1.0  0.16336  0.44053  0.61949  1.0000
  H   H70       1.0  0.051630000000000016  0.51854  0.6952199999999998  1.0000
  H   H71       1.0  0.21892  0.02082  0.3217499999999999  1.0000
  H   H72       1.0  0.33748000000000006  0.32737  0.8747999999999999  1.0000
  H   H73       1.0  0.05920000000000001  0.022809999999999993  0.80309  1.0000
  H   H74       1.0  0.968  0.52379  0.8024  1.0000
  H   H75       1.0  0.95066  0.02153  0.30144  1.0000
  H   H76       1.0  0.70446  0.51805  0.77869  1.0000
  H   H77       1.0  0.82907  0.8868599999999998  0.12144999999999997  1.0000
  H   H78       1.0  0.9999499999999999  0.27096  0.37927  1.0000
  H   H79       1.0  0.18655  0.3278  0.59348  1.0000
  H   H80       1.0  0.57883  0.5498  0.41473  1.0000
  H   H81       1.0  0.56252  0.39432  0.3398399999999999  1.0000
  H   H82       1.0  0.60131  0.05088  0.07956  1.0000
  H   H83       1.0  0.37779  0.93162  0.85012  1.0000
  H   H84       1.0  0.78479  0.3055  0.8378599999999998  1.0000
  H   H85       1.0  0.7526599999999999  0.27887  0.66014  1.0000
  H   H86       1.0  0.26636  0.8115399999999999  0.27002  1.0000
  H   H87       1.0  0.17226  0.8874899999999999  0.6278699999999999  1.0000
  H   H88       1.0  0.9793400000000001  0.55139  0.62486  1.0000
  H   H89       1.0  0.92959  0.80857  0.19317  1.0000
  H   H90       1.0  0.98566  0.77219  0.12255  1.0000
  H   H91       1.0  0.20537000000000002  0.55826  0.34822  1.0000
  H   H92       1.0  0.61192  0.93194  0.3503899999999999  1.0000
  H   H93       1.0  0.19080999999999998  0.00256  0.59763  1.0000
  H   H94       1.0  0.85646  0.94387  0.38558  1.0000
  H   H95       1.0  0.81725  0.00127  0.09099999999999998  1.0000
  H   H96       1.0  0.81875  0.38888999999999996  0.36958  1.0000
  C   C1        1.0  0.16274000000000002  0.11169  0.23144999999999993  1.0000
  C   C2        1.0  0.42853  0.89456  0.56245  1.0000
  C   C3        1.0  0.8411300000000002  0.60721  0.76663  1.0000
  C   C4        1.0  0.4159500000000001  0.87147  0.9605499999999998  1.0000
  C   C5        1.0  0.66103  0.8751199999999999  0.11908999999999999  1.0000
  C   C6        1.0  0.18953000000000003  0.05374  0.19553  1.0000
  C   C7        1.0  0.4167  0.39665  0.94068  1.0000
  C   C8        1.0  0.4913  0.8528599999999998  0.51722  1.0000
  C   C9        1.0  0.90466  0.10992  0.79482  1.0000
  C   C10       1.0  0.43469  0.37071  0.54084  1.0000
  C   C11       1.0  0.58856  0.4331999999999999  0.052889999999999986  1.0000
  C   C12       1.0  0.65452  0.3743299999999999  0.37673  1.0000
  C   C13       1.0  0.44528  0.04298  0.9796499999999999  1.0000
  C   C14       1.0  0.93616  0.6612  0.67417  1.0000
  C   C15       1.0  0.55237  0.54247  0.02156  1.0000
  C   C16       1.0  0.0819  0.60856  0.20502  1.0000
  C   C17       1.0  0.06337000000000001  0.16303  0.8833299999999997  1.0000
  C   C18       1.0  0.80521  0.17073  0.63702  1.0000
  C   C19       1.0  0.92297  0.66175  0.11644999999999997  1.0000
  C   C20       1.0  0.13439  0.61022  0.26689  1.0000
  C   C21       1.0  0.9413899999999998  0.16506  0.82533  1.0000
  C   C22       1.0  0.042480000000000004  0.7792499999999999  0.16872999999999996  1.0000
  C   C23       1.0  0.19183  0.28414  0.20604999999999996  1.0000
  C   C24       1.0  0.43581  0.45899999999999996  0.9537699999999998  1.0000
  C   C25       1.0  0.52301  0.47579  0.0096  1.0000
  C   C26       1.0  0.10478  0.10872999999999998  0.29341  1.0000
  C   C27       1.0  0.8210599999999999  0.66393  0.7956999999999999  1.0000
  C   C28       1.0  0.35487  0.50588  0.9099199999999997  1.0000
  C   C29       1.0  0.84689  0.11179999999999998  0.73337  1.0000
  C   C30       1.0  0.06045  0.54855  0.17283  1.0000
  C   C31       1.0  0.30417  0.9547599999999999  0.8893799999999997  1.0000
  C   C32       1.0  0.1624  0.22333  0.23667999999999995  1.0000
  C   C33       1.0  0.80586  0.77915  0.7957699999999999  1.0000
  C   C34       1.0  0.68399  0.45325  0.11176  1.0000
  C   C35       1.0  0.44564  0.9571899999999999  0.5502299999999999  1.0000
  C   C36       1.0  0.57533  0.87109  0.4605  1.0000
  C   C37       1.0  0.46201  0.7859799999999999  0.52788  1.0000
  C   C38       1.0  0.4804  0.35406  0.98419  1.0000
  C   C39       1.0  0.18024000000000004  0.6688399999999999  0.36334999999999995  1.0000
  C   C40       1.0  0.55648  0.9581699999999999  0.046869999999999995  1.0000
  C   C41       1.0  0.56775  0.37083  0.04001  1.0000
  C   C42       1.0  0.55924  0.0422  0.48252  1.0000
  C   C43       1.0  0.33258000000000004  0.82591  0.9157799999999998  1.0000
  C   C44       1.0  0.79383  0.66578  0.86357  1.0000
  C   C45       1.0  0.15994  0.55124  0.30093999999999993  1.0000
  C   C46       1.0  0.1293  0.7220999999999999  0.26427  1.0000
  C   C47       1.0  0.46924  0.97603  0.99136  1.0000
  C   C48       1.0  0.81695  0.54826  0.8010799999999999  1.0000
  C   C49       1.0  0.64573  0.32399  0.08436  1.0000
  C   C50       1.0  0.14939  0.66701  0.29593  1.0000
  C   C51       1.0  0.15649999999999997  0.78239  0.29583  1.0000
  C   C52       1.0  0.9374399999999999  0.7766799999999999  0.66853  1.0000
  C   C53       1.0  0.59437  0.93371  0.44857999999999987  1.0000
  C   C54       1.0  0.10275  0.22068  0.29861999999999994  1.0000
  C   C55       1.0  0.55439  0.45737999999999995  0.45056999999999997  1.0000
  C   C56       1.0  0.47656  0.47516  0.50811  1.0000
  C   C57       1.0  0.68739  0.9547399999999998  0.3887499999999999  1.0000
  C   C58       1.0  0.84543  0.22365999999999994  0.73696  1.0000
  C   C59       1.0  0.9030900000000001  0.22202  0.7984  1.0000
  C   C60       1.0  0.06717  0.1633  0.32534  1.0000
  C   C61       1.0  0.9340000000000002  0.28037  0.83284  1.0000
  C   C62       1.0  0.93135  0.54594  0.6726399999999999  1.0000
  C   C63       1.0  0.45003  0.54192  0.52007  1.0000
  C   C64       1.0  0.3587699999999999  0.32494  0.5873  1.0000
  C   C65       1.0  0.32473  0.37659  0.8813499999999997  1.0000
  C   C66       1.0  0.65298  0.8257399999999999  0.41378  1.0000
  C   C67       1.0  0.53054  0.9753399999999999  0.49366999999999994  1.0000
  C   C68       1.0  0.33827  0.87379  0.6227  1.0000
  C   C69       1.0  0.41706  0.43325  0.55337  1.0000
  C   C70       1.0  0.89941  0.71798  0.70205  1.0000
  C   C71       1.0  0.57134  0.39482999999999996  0.43793999999999994  1.0000
  C   C72       1.0  0.20587  0.17176  0.13548999999999997  1.0000
  C   C73       1.0  0.51424  0.3529  0.4834699999999999  1.0000
  C   C74       1.0  0.50167  0.85356  0.016309999999999998  1.0000
  C   C75       1.0  0.93577  0.04978  0.8261099999999999  1.0000
  C   C76       1.0  0.8119300000000002  0.28409  0.7063  1.0000
  C   C77       1.0  0.06489000000000003  0.2787  0.33344  1.0000
  C   C78       1.0  0.64399  0.00398  0.09073  1.0000
  C   C79       1.0  0.36433  0.0029799999999999996  0.59599  1.0000
  C   C80       1.0  0.18239  0.169  0.20361  1.0000
  C   C81       1.0  0.44791  0.28747  0.97252  1.0000
  C   C82       1.0  0.07353  0.04803  0.32391  1.0000
  C   C83       1.0  0.82158  0.05289  0.69927  1.0000
  C   C84       1.0  0.32966  0.45377  0.61407  1.0000
  C   C85       1.0  0.94493  0.1603  0.38452  1.0000
  C   C86       1.0  0.3998999999999999  0.9340499999999999  0.9479899999999999  1.0000
  C   C87       1.0  0.56983  0.89561  0.05982  1.0000
  C   C88       1.0  0.83943  0.7191099999999999  0.76392  1.0000
  C   C89       1.0  0.07533  0.7206599999999999  0.20252  1.0000
  C   C90       1.0  0.05927999999999999  0.65972  0.61523  1.0000
  C   C91       1.0  0.82796  0.16875  0.70479  1.0000
  C   C92       1.0  0.52801  0.7866  0.0276  1.0000
  C   C93       1.0  0.04367  0.66377  0.17467999999999997  1.0000
  C   C94       1.0  0.8991699999999999  0.60581  0.70461  1.0000
  C   C95       1.0  0.54349  0.28614  0.47225  1.0000
  C   C96       1.0  0.6289  0.5033  0.4040399999999999  1.0000
  O   O1        1.0  0.02102  0.68456  0.39680999999999994  1.0000
  O   O2        1.0  0.58703  0.0671  0.94483  1.0000
  O   O3        1.0  0.61979  0.65116  0.8884899999999999  1.0000
  O   O4        1.0  0.6347400000000001  0.15438  0.6126  1.0000
  O   O5        1.0  0.03164  0.17544  0.10657999999999997  1.0000
  O   O6        1.0  0.96001  0.16358  0.9353099999999999  1.0000
  O   O7        1.0  0.29204  0.06961  0.005719999999999999  1.0000
  O   O8        1.0  0.9686300000000001  0.18768  0.60604  1.0000
  O   O9        1.0  0.26023  0.16073999999999997  0.8786499999999999  1.0000
  O   O10       1.0  0.28155  0.26383999999999996  0.9941099999999999  1.0000
  O   O11       1.0  0.7265  0.65793  0.12136999999999999  1.0000
  O   O12       1.0  0.4050500000000001  0.26037  0.43897  1.0000
  O   O13       1.0  0.40209000000000006  0.56875  0.05164  1.0000
  O   O14       1.0  0.74888  0.15471  0.38140999999999997  1.0000
  O   O15       1.0  0.6981200000000001  0.26064  0.49708  1.0000
  O   O16       1.0  0.5955  0.26034  0.94225  1.0000
  O   O17       1.0  0.25552  0.65478  0.61852  1.0000
  O   O18       1.0  0.71804  0.56665  0.00015  1.0000
  O   O19       1.0  0.96003  0.66365  0.56388  1.0000
  O   O20       1.0  0.31341  0.7605  0.5001499999999999  1.0000
  O   O21       1.0  0.38494  0.1693  0.10941  1.0000
  O   O22       1.0  0.04419  0.16364  0.43592  1.0000
  O   O23       1.0  0.59432  0.56695  0.55189  1.0000
  O   O24       1.0  0.3569600000000001  0.654  0.38489999999999996  1.0000
  O   O25       1.0  0.71879  0.06688  0.50538  1.0000
  O   O26       1.0  0.29158  0.56726  0.49713999999999997  1.0000
  O   O27       1.0  0.02536  0.66405  0.06442  1.0000
  O   O28       1.0  0.9571500000000001  0.68167  0.89367  1.0000
  O   O29       1.0  0.5936100000000002  0.76033  0.5635799999999999  1.0000
  O   O30       1.0  0.39277  0.7613  0.0637  1.0000
  O   O31       1.0  0.4146599999999999  0.06787  0.45119  1.0000
  O   O32       1.0  0.67849  0.7605  0.99974  1.0000
