data_image0
_chemical_formula_structural       Ag6P8H178C166S6
_chemical_formula_sum              "Ag6 P8 H178 C166 S6"
_cell_length_a       16.27169
_cell_length_b       16.6324
_cell_length_c       17.32561
_cell_angle_alpha    85.92478000000001
_cell_angle_beta     87.41956
_cell_angle_gamma    66.74169

_symmetry_space_group_name_H-M    'P 1'
_symmetry_Int_Tables_number       1

loop_
  _symmetry_equiv_pos_as_xyz
  'x,y,z'

loop_
  _atom_site_type_symbol
  _atom_site_label
  _atom_site_symmetry_multiplicity
  _atom_site_fract_x
  _atom_site_fract_y
  _atom_site_fract_z
  _atom_site_occupancy
  Ag  Ag1       1.0  0.77577  0.07419999999999999  0.15061  1.0000
  Ag  Ag2       1.0  0.60501  0.29825  0.20314000000000004  1.0000
  Ag  Ag3       1.0  0.73244  0.1006  0.39148  1.0000
  Ag  Ag4       1.0  0.22423000000000015  0.9257999999999997  0.84939  1.0000
  Ag  Ag5       1.0  0.39498999999999995  0.70176  0.79686  1.0000
  Ag  Ag6       1.0  0.26756000000000013  0.8993999999999998  0.60852  1.0000
  P   P1        1.0  0.7725899999999998  0.12143  0.52053  1.0000
  P   P2        1.0  0.7138100000000001  0.9553199999999997  0.42067  1.0000
  P   P3        1.0  0.81544  0.9556899999999998  0.062060000000000004  1.0000
  P   P4        1.0  0.49946  0.44930999999999993  0.19709  1.0000
  P   P5        1.0  0.22740999999999997  0.87857  0.47947  1.0000
  P   P6        1.0  0.28619  0.04468  0.57933  1.0000
  P   P7        1.0  0.18456  0.04430999999999997  0.9379500000000001  1.0000
  P   P8        1.0  0.5005400000000001  0.5506999999999997  0.80291  1.0000
  H   H1        1.0  0.58108  0.19446  0.52181  1.0000
  H   H2        1.0  0.46498999999999996  0.17400999999999997  0.6091  1.0000
  H   H3        1.0  0.50895  0.06688000000000001  0.72219  1.0000
  H   H4        1.0  0.6704000000000001  0.98248  0.7503400000000002  1.0000
  H   H5        1.0  0.7867799999999998  0.004789999999999996  0.6654  1.0000
  H   H6        1.0  0.76771  0.28499  0.44255  1.0000
  H   H7        1.0  0.77512  0.4200699999999999  0.48914  1.0000
  H   H8        1.0  0.79125  0.4315999999999999  0.62999  1.0000
  H   H9        1.0  0.79883  0.30855  0.72328  1.0000
  H   H10       1.0  0.7885999999999997  0.17488  0.67698  1.0000
  H   H11       1.0  0.89886  0.04093  0.60631  1.0000
  H   H12       1.0  0.87284  0.97219  0.54678  1.0000
  H   H13       1.0  0.93662  0.02387999999999998  0.4308600000000001  1.0000
  H   H14       1.0  0.95814  0.09977000000000001  0.48357  1.0000
  H   H15       1.0  0.64951  0.02948999999999999  0.26844  1.0000
  H   H16       1.0  0.6181400000000001  0.9689499999999998  0.15111000000000002  1.0000
  H   H17       1.0  0.6403100000000003  0.8119899999999998  0.15311  1.0000
  H   H18       1.0  0.6966699999999999  0.7149899999999998  0.2719600000000001  1.0000
  H   H19       1.0  0.7317700000000001  0.77451  0.38799  1.0000
  H   H20       1.0  0.7643499999999999  0.85445  0.57249  1.0000
  H   H21       1.0  0.9100899999999997  0.75428  0.6253900000000002  1.0000
  H   H22       1.0  0.04808000000000008  0.7138699999999998  0.54224  1.0000
  H   H23       1.0  0.03863999999999999  0.7754  0.4067  1.0000
  H   H24       1.0  0.8929000000000001  0.87991  0.35451  1.0000
  H   H25       1.0  0.63758  0.87839  0.50126  1.0000
  H   H26       1.0  0.6445100000000001  0.9676399999999997  0.5469100000000001  1.0000
  H   H27       1.0  0.5188399999999996  0.98867  0.4132100000000001  1.0000
  H   H28       1.0  0.52501  0.07453000000000001  0.46286  1.0000
  H   H29       1.0  0.68451  0.07532999999999995  0.9580500000000001  1.0000
  H   H30       1.0  0.5725  0.06275999999999997  0.87426  1.0000
  H   H31       1.0  0.55696  0.9195599999999999  0.86895  1.0000
  H   H32       1.0  0.65693  0.78925  0.9480400000000001  1.0000
  H   H33       1.0  0.76929  0.8020299999999998  0.03294  1.0000
  H   H34       1.0  0.8342299999999998  0.8822199999999997  0.21857000000000004  1.0000
  H   H35       1.0  0.9241000000000001  0.7362999999999997  0.28073000000000004  1.0000
  H   H36       1.0  0.026490000000000014  0.61747  0.20033  1.0000
  H   H37       1.0  0.03680000000000007  0.6448899999999997  0.0575  1.0000
  H   H38       1.0  0.9459  0.7902399999999998  0.99562  1.0000
  H   H39       1.0  0.91575  0.9285899999999998  0.94737  1.0000
  H   H40       1.0  0.8500399999999998  0.040739999999999985  0.9580100000000001  1.0000
  H   H41       1.0  0.94206  0.0415  0.07093  1.0000
  H   H42       1.0  0.006570000000000087  0.9291599999999998  0.06397  1.0000
  H   H43       1.0  0.37289  0.55063  0.31999  1.0000
  H   H44       1.0  0.39010000000000006  0.6418699999999998  0.4195900000000001  1.0000
  H   H45       1.0  0.53425  0.6591099999999998  0.43027  1.0000
  H   H46       1.0  0.66341  0.57885  0.34432  1.0000
  H   H47       1.0  0.6465  0.4860699999999999  0.24499  1.0000
  H   H48       1.0  0.4126699999999999  0.33133  0.23864  1.0000
  H   H49       1.0  0.25638  0.34295  0.23223  1.0000
  H   H50       1.0  0.13655000000000006  0.4836199999999999  0.1843  1.0000
  H   H51       1.0  0.17440000000000003  0.61242  0.14542  1.0000
  H   H52       1.0  0.3301100000000001  0.6003899999999998  0.15167  1.0000
  H   H53       1.0  0.4654099999999998  0.58203  0.11152  1.0000
  H   H54       1.0  0.57989  0.51162  0.10984  1.0000
  H   H55       1.0  0.43460999999999994  0.46463  0.04089  1.0000
  H   H56       1.0  0.5508  0.40554  0.03325  1.0000
  H   H57       1.0  0.48795999999999995  0.23319000000000004  0.92587  1.0000
  H   H58       1.0  0.7285499999999999  0.23836999999999994  0.8186600000000003  1.0000
  H   H59       1.0  0.57812  0.16053  0.11222  1.0000
  H   H60       1.0  0.47949  0.20062  0.05542  1.0000
  H   H61       1.0  0.50856  0.2729899999999999  0.10858  1.0000
  H   H62       1.0  0.51768  0.21179999999999996  0.7843500000000002  1.0000
  H   H63       1.0  0.61399  0.22023  0.73914  1.0000
  H   H64       1.0  0.5227900000000001  0.3155099999999999  0.76625  1.0000
  H   H65       1.0  0.81382  0.29396999999999995  0.97523  1.0000
  H   H66       1.0  0.8482300000000002  0.23289999999999994  0.8904500000000002  1.0000
  H   H67       1.0  0.85986  0.17945  0.98469  1.0000
  H   H68       1.0  0.9786499999999999  0.26164  0.2516700000000001  1.0000
  H   H69       1.0  0.15536000000000003  0.99838  0.20584  1.0000
  H   H70       1.0  0.78059  0.24198999999999996  0.24039000000000002  1.0000
  H   H71       1.0  0.83237  0.29799  0.29169  1.0000
  H   H72       1.0  0.80162  0.21392999999999995  0.3386700000000001  1.0000
  H   H73       1.0  0.12577000000000002  0.23395999999999997  0.19078  1.0000
  H   H74       1.0  0.19802999999999998  0.1272  0.16517  1.0000
  H   H75       1.0  0.1915599999999999  0.15667  0.26214  1.0000
  H   H76       1.0  0.03255999999999999  0.89012  0.29331  1.0000
  H   H77       1.0  0.10908000000000007  0.8846199999999997  0.2149  1.0000
  H   H78       1.0  0.9938499999999998  0.90995  0.19825  1.0000
  H   H79       1.0  0.39098999999999995  0.41958  0.46636  1.0000
  H   H80       1.0  0.28844  0.24347  0.3791600000000001  1.0000
  H   H81       1.0  0.6161399999999998  0.2922499999999999  0.44266  1.0000
  H   H82       1.0  0.53852  0.40408  0.44479  1.0000
  H   H83       1.0  0.58938  0.35727  0.3564  1.0000
  H   H84       1.0  0.24696999999999997  0.41517  0.5192800000000001  1.0000
  H   H85       1.0  0.20342  0.34339  0.48184000000000005  1.0000
  H   H86       1.0  0.19633999999999996  0.4398999999999999  0.4275  1.0000
  H   H87       1.0  0.44913000000000014  0.16521  0.23598999999999998  1.0000
  H   H88       1.0  0.3717399999999999  0.13609  0.29606  1.0000
  H   H89       1.0  0.48907  0.08559  0.31232  1.0000
  H   H90       1.0  0.41892000000000007  0.80555  0.47819000000000006  1.0000
  H   H91       1.0  0.5350100000000001  0.8259999999999997  0.39091  1.0000
  H   H92       1.0  0.49105  0.93312  0.27781  1.0000
  H   H93       1.0  0.3296  0.017529999999999997  0.24967000000000003  1.0000
  H   H94       1.0  0.21323000000000003  0.99522  0.3346  1.0000
  H   H95       1.0  0.23229  0.71501  0.55745  1.0000
  H   H96       1.0  0.22488  0.57993  0.51086  1.0000
  H   H97       1.0  0.20875000000000005  0.5684099999999997  0.37001  1.0000
  H   H98       1.0  0.20117000000000002  0.69145  0.27672  1.0000
  H   H99       1.0  0.2114  0.82512  0.32302  1.0000
  H   H100      1.0  0.10114000000000012  0.9590799999999998  0.39369  1.0000
  H   H101      1.0  0.12716  0.02780999999999999  0.45322  1.0000
  H   H102      1.0  0.06338  0.97612  0.5691500000000002  1.0000
  H   H103      1.0  0.04185999999999999  0.90023  0.51643  1.0000
  H   H104      1.0  0.3505  0.97051  0.73156  1.0000
  H   H105      1.0  0.38187  0.03105  0.84889  1.0000
  H   H106      1.0  0.35968999999999995  0.18802  0.84689  1.0000
  H   H107      1.0  0.3033399999999998  0.28501  0.72804  1.0000
  H   H108      1.0  0.26824  0.22548999999999997  0.61201  1.0000
  H   H109      1.0  0.23565  0.14555999999999994  0.42751  1.0000
  H   H110      1.0  0.08991000000000005  0.2457299999999999  0.37461  1.0000
  H   H111      1.0  0.95192  0.28613  0.45776  1.0000
  H   H112      1.0  0.96136  0.22460999999999995  0.5933  1.0000
  H   H113      1.0  0.10710000000000001  0.1201  0.64549  1.0000
  H   H114      1.0  0.36242  0.12162  0.49874  1.0000
  H   H115      1.0  0.35549  0.03236  0.45309  1.0000
  H   H116      1.0  0.48116  0.01133  0.58679  1.0000
  H   H117      1.0  0.47498999999999997  0.92548  0.5371400000000002  1.0000
  H   H118      1.0  0.31549000000000016  0.9246699999999998  0.04196000000000001  1.0000
  H   H119      1.0  0.42750000000000005  0.93725  0.12575  1.0000
  H   H120      1.0  0.4430499999999999  0.08044  0.13105  1.0000
  H   H121      1.0  0.34307000000000004  0.21074999999999994  0.05196  1.0000
  H   H122      1.0  0.23071  0.19797  0.96706  1.0000
  H   H123      1.0  0.1657699999999999  0.11778999999999999  0.78143  1.0000
  H   H124      1.0  0.0759  0.2637  0.71927  1.0000
  H   H125      1.0  0.9735100000000001  0.38252999999999987  0.79967  1.0000
  H   H126      1.0  0.9632  0.35511  0.9425000000000001  1.0000
  H   H127      1.0  0.054100000000000016  0.20976999999999996  0.00439  1.0000
  H   H128      1.0  0.08425  0.07142  0.05264  1.0000
  H   H129      1.0  0.14996  0.9592599999999998  0.042  1.0000
  H   H130      1.0  0.057940000000000054  0.9584999999999998  0.92908  1.0000
  H   H131      1.0  0.99343  0.07083999999999999  0.9360400000000001  1.0000
  H   H132      1.0  0.62711  0.44937  0.68001  1.0000
  H   H133      1.0  0.6098999999999999  0.3581399999999999  0.5804100000000001  1.0000
  H   H134      1.0  0.46575  0.34089  0.56973  1.0000
  H   H135      1.0  0.33659999999999995  0.42116  0.65569  1.0000
  H   H136      1.0  0.3535  0.51393  0.7550100000000001  1.0000
  H   H137      1.0  0.58733  0.66867  0.76136  1.0000
  H   H138      1.0  0.7436200000000001  0.6570499999999998  0.76777  1.0000
  H   H139      1.0  0.86345  0.51638  0.81571  1.0000
  H   H140      1.0  0.8256000000000001  0.38758  0.85458  1.0000
  H   H141      1.0  0.66989  0.3996099999999999  0.84833  1.0000
  H   H142      1.0  0.5346  0.41797  0.88848  1.0000
  H   H143      1.0  0.42011000000000004  0.4883799999999998  0.89017  1.0000
  H   H144      1.0  0.5654000000000001  0.5353699999999998  0.95912  1.0000
  H   H145      1.0  0.4492  0.59447  0.9667500000000001  1.0000
  H   H146      1.0  0.51204  0.76682  0.07413  1.0000
  H   H147      1.0  0.2714500000000001  0.76163  0.18134  1.0000
  H   H148      1.0  0.42189  0.83948  0.88779  1.0000
  H   H149      1.0  0.52051  0.7993899999999998  0.9445900000000002  1.0000
  H   H150      1.0  0.49144000000000004  0.7270099999999998  0.8914300000000002  1.0000
  H   H151      1.0  0.48232000000000014  0.7881999999999998  0.21566  1.0000
  H   H152      1.0  0.38601000000000013  0.7797799999999998  0.26086  1.0000
  H   H153      1.0  0.4772100000000001  0.6844899999999998  0.23375  1.0000
  H   H154      1.0  0.18619  0.70604  0.02477  1.0000
  H   H155      1.0  0.15178000000000014  0.7670999999999998  0.10955  1.0000
  H   H156      1.0  0.14015000000000008  0.8205599999999997  0.015320000000000002  1.0000
  H   H157      1.0  0.021349999999999977  0.73836  0.7483400000000001  1.0000
  H   H158      1.0  0.84465  0.001629999999999996  0.79416  1.0000
  H   H159      1.0  0.21941  0.7580099999999999  0.7596100000000002  1.0000
  H   H160      1.0  0.16763  0.70201  0.70831  1.0000
  H   H161      1.0  0.19837999999999997  0.78607  0.66133  1.0000
  H   H162      1.0  0.8742299999999998  0.76605  0.80922  1.0000
  H   H163      1.0  0.8019800000000001  0.8728  0.83483  1.0000
  H   H164      1.0  0.8084400000000002  0.8433299999999998  0.7378600000000001  1.0000
  H   H165      1.0  0.9674499999999999  0.10987999999999996  0.70669  1.0000
  H   H166      1.0  0.8909199999999998  0.11538  0.78511  1.0000
  H   H167      1.0  0.006160000000000014  0.09004999999999996  0.80175  1.0000
  H   H168      1.0  0.6090099999999999  0.58043  0.53364  1.0000
  H   H169      1.0  0.71156  0.75654  0.62084  1.0000
  H   H170      1.0  0.38386  0.70775  0.55734  1.0000
  H   H171      1.0  0.46148000000000006  0.5959199999999998  0.55521  1.0000
  H   H172      1.0  0.4106199999999998  0.64273  0.6436  1.0000
  H   H173      1.0  0.7530299999999999  0.58483  0.48072000000000004  1.0000
  H   H174      1.0  0.79658  0.6566099999999999  0.51817  1.0000
  H   H175      1.0  0.80366  0.56011  0.5725  1.0000
  H   H176      1.0  0.5508700000000001  0.8347899999999998  0.76401  1.0000
  H   H177      1.0  0.62826  0.86391  0.70395  1.0000
  H   H178      1.0  0.5109300000000001  0.9144099999999997  0.68768  1.0000
  C   C1        1.0  0.692  0.10284000000000001  0.58863  1.0000
  C   C2        1.0  0.60069  0.14967999999999995  0.57305  1.0000
  C   C3        1.0  0.53542  0.13732  0.62146  1.0000
  C   C4        1.0  0.5603399999999997  0.07676  0.68515  1.0000
  C   C5        1.0  0.6507999999999998  0.029289999999999986  0.7005900000000003  1.0000
  C   C6        1.0  0.71657  0.04231000000000001  0.65274  1.0000
  C   C7        1.0  0.77907  0.22037999999999994  0.55626  1.0000
  C   C8        1.0  0.7751899999999998  0.29006  0.5039400000000003  1.0000
  C   C9        1.0  0.77941  0.36598999999999987  0.53028  1.0000
  C   C10       1.0  0.78854  0.37241999999999986  0.60918  1.0000
  C   C11       1.0  0.7924900000000001  0.30309999999999987  0.66177  1.0000
  C   C12       1.0  0.7871300000000001  0.2278899999999999  0.63565  1.0000
  C   C13       1.0  0.8811499999999998  0.03463999999999999  0.54719  1.0000
  C   C14       1.0  0.9543500000000001  0.035050000000000005  0.48855  1.0000
  C   C15       1.0  0.69274  0.9061399999999997  0.33591  1.0000
  C   C16       1.0  0.6604300000000001  0.9603699999999997  0.26878  1.0000
  C   C17       1.0  0.6417600000000001  0.9264699999999998  0.20319000000000007  1.0000
  C   C18       1.0  0.6547  0.83825  0.20427  1.0000
  C   C19       1.0  0.6866900000000001  0.7837199999999998  0.27103  1.0000
  C   C20       1.0  0.7060299999999999  0.81725  0.33641  1.0000
  C   C21       1.0  0.81756  0.8719199999999998  0.45884000000000014  1.0000
  C   C22       1.0  0.82382  0.8366399999999998  0.5355400000000001  1.0000
  C   C23       1.0  0.9063099999999998  0.77989  0.5655  1.0000
  C   C24       1.0  0.9836099999999999  0.75725  0.5191  1.0000
  C   C25       1.0  0.9782100000000001  0.7921399999999997  0.44262  1.0000
  C   C26       1.0  0.89618  0.84958  0.41281000000000007  1.0000
  C   C27       1.0  0.62948  0.9472399999999997  0.4921  1.0000
  C   C28       1.0  0.5335  0.005439999999999999  0.46967000000000003  1.0000
  C   C29       1.0  0.7355999999999997  0.93915  0.00073  1.0000
  C   C30       1.0  0.6793000000000001  0.012289999999999995  0.95567  1.0000
  C   C31       1.0  0.61541  0.005219999999999995  0.90853  1.0000
  C   C32       1.0  0.6068100000000003  0.9250599999999997  0.9057100000000002  1.0000
  C   C33       1.0  0.66249  0.8521299999999998  0.9504700000000001  1.0000
  C   C34       1.0  0.7263300000000001  0.85896  0.9981500000000001  1.0000
  C   C35       1.0  0.88316  0.84601  0.10317  1.0000
  C   C36       1.0  0.87785  0.8297199999999998  0.18348  1.0000
  C   C37       1.0  0.9289999999999999  0.7476499999999998  0.21834  1.0000
  C   C38       1.0  0.98629  0.68119  0.17308  1.0000
  C   C39       1.0  0.9922199999999999  0.6966499999999998  0.09287000000000002  1.0000
  C   C40       1.0  0.9410000000000002  0.7786699999999998  0.05799000000000001  1.0000
  C   C41       1.0  0.8912400000000001  0.97928  0.9898600000000001  1.0000
  C   C42       1.0  0.96858  0.98955  0.029370000000000004  1.0000
  C   C43       1.0  0.50737  0.51486  0.27395  1.0000
  C   C44       1.0  0.43635000000000007  0.5569  0.32492  1.0000
  C   C45       1.0  0.44633  0.60814  0.38138  1.0000
  C   C46       1.0  0.52733  0.61749  0.38758000000000004  1.0000
  C   C47       1.0  0.5996799999999999  0.57284  0.33889  1.0000
  C   C48       1.0  0.5900900000000001  0.52127  0.28267  1.0000
  C   C49       1.0  0.3821399999999999  0.46444  0.19553  1.0000
  C   C50       1.0  0.36026  0.39254  0.21786  1.0000
  C   C51       1.0  0.27205  0.3994199999999999  0.21436000000000005  1.0000
  C   C52       1.0  0.20510999999999988  0.47843  0.18801000000000007  1.0000
  C   C53       1.0  0.2263000000000001  0.5506999999999997  0.16585  1.0000
  C   C54       1.0  0.3143800000000001  0.54391  0.16945  1.0000
  C   C55       1.0  0.51182  0.51299  0.10924  1.0000
  C   C56       1.0  0.49882999999999994  0.4721299999999999  0.03674  1.0000
  C   C57       1.0  0.6734699999999998  0.23218999999999995  0.01098  1.0000
  C   C58       1.0  0.5883000000000002  0.22900999999999994  0.00413  1.0000
  C   C59       1.0  0.55397  0.23471999999999993  0.9302800000000001  1.0000
  C   C60       1.0  0.6022399999999998  0.23927  0.86239  1.0000
  C   C61       1.0  0.6882400000000001  0.23754999999999996  0.87046  1.0000
  C   C62       1.0  0.72428  0.23532999999999996  0.9429100000000001  1.0000
  C   C63       1.0  0.5356699999999998  0.21506  0.07340000000000002  1.0000
  C   C64       1.0  0.56253  0.24670999999999998  0.7842  1.0000
  C   C65       1.0  0.81635  0.23535999999999999  0.94787  1.0000
  C   C66       1.0  0.9347499999999997  0.0769  0.26157  1.0000
  C   C67       1.0  0.9199200000000001  0.16643  0.2654  1.0000
  C   C68       1.0  0.99115  0.19255  0.24876  1.0000
  C   C69       1.0  0.07658000000000002  0.13374999999999995  0.22738  1.0000
  C   C70       1.0  0.08992000000000003  0.045609999999999984  0.22353  1.0000
  C   C71       1.0  0.02128  0.015959999999999988  0.24092000000000002  1.0000
  C   C72       1.0  0.82953  0.23403  0.28528  1.0000
  C   C73       1.0  0.15171999999999997  0.16429999999999995  0.21028  1.0000
  C   C74       1.0  0.040550000000000114  0.9201799999999998  0.23637000000000002  1.0000
  C   C75       1.0  0.49776  0.24419999999999997  0.35655  1.0000
  C   C76       1.0  0.4853  0.3165  0.40118  1.0000
  C   C77       1.0  0.4009200000000001  0.3620599999999999  0.43477  1.0000
  C   C78       1.0  0.32942999999999995  0.3362699999999999  0.42892000000000013  1.0000
  C   C79       1.0  0.3434400000000001  0.26406  0.38551  1.0000
  C   C80       1.0  0.4252500000000001  0.21874999999999997  0.34805000000000014  1.0000
  C   C81       1.0  0.56056  0.34479000000000004  0.4123  1.0000
  C   C82       1.0  0.23960999999999996  0.3859799999999999  0.46645  1.0000
  C   C83       1.0  0.43366  0.14752999999999994  0.29573  1.0000
  C   C84       1.0  0.30800000000000005  0.8971599999999997  0.4113700000000001  1.0000
  C   C85       1.0  0.39930999999999994  0.85032  0.42696  1.0000
  C   C86       1.0  0.46458000000000005  0.86268  0.37854  1.0000
  C   C87       1.0  0.43965999999999994  0.92324  0.31485  1.0000
  C   C88       1.0  0.34920000000000007  0.97072  0.29941  1.0000
  C   C89       1.0  0.28343000000000007  0.9576999999999998  0.34726  1.0000
  C   C90       1.0  0.2209300000000001  0.7796199999999998  0.44374  1.0000
  C   C91       1.0  0.22482000000000002  0.7099399999999998  0.49606  1.0000
  C   C92       1.0  0.22059  0.6340099999999997  0.4697200000000001  1.0000
  C   C93       1.0  0.21146  0.62758  0.39082000000000006  1.0000
  C   C94       1.0  0.20751000000000003  0.69691  0.33823  1.0000
  C   C95       1.0  0.21287000000000011  0.7721199999999998  0.3643500000000001  1.0000
  C   C96       1.0  0.11885000000000011  0.9653599999999998  0.45281  1.0000
  C   C97       1.0  0.04564999999999998  0.96495  0.51145  1.0000
  C   C98       1.0  0.30726  0.09386000000000001  0.66409  1.0000
  C   C99       1.0  0.33957  0.039630000000000006  0.73122  1.0000
  C   C100      1.0  0.3582399999999999  0.07352999999999996  0.7968100000000002  1.0000
  C   C101      1.0  0.3453  0.16175999999999996  0.79573  1.0000
  C   C102      1.0  0.31330999999999987  0.21627999999999997  0.72898  1.0000
  C   C103      1.0  0.29398  0.18274999999999994  0.6635900000000002  1.0000
  C   C104      1.0  0.18244  0.12807999999999994  0.54116  1.0000
  C   C105      1.0  0.17618999999999999  0.16336  0.46446  1.0000
  C   C106      1.0  0.09368999999999995  0.22012  0.4345000000000001  1.0000
  C   C107      1.0  0.01640000000000003  0.2427499999999999  0.48090000000000005  1.0000
  C   C108      1.0  0.02179000000000005  0.20785999999999988  0.5573800000000001  1.0000
  C   C109      1.0  0.10382000000000001  0.15041999999999994  0.5871900000000001  1.0000
  C   C110      1.0  0.3705199999999999  0.05276000000000001  0.5079  1.0000
  C   C111      1.0  0.4665000000000001  0.9945599999999998  0.53033  1.0000
  C   C112      1.0  0.2644  0.060849999999999994  0.99927  1.0000
  C   C113      1.0  0.3207  0.98771  0.04433  1.0000
  C   C114      1.0  0.38459  0.99479  0.09147  1.0000
  C   C115      1.0  0.3931899999999999  0.07495  0.09429000000000001  1.0000
  C   C116      1.0  0.33751  0.14788  0.04953  1.0000
  C   C117      1.0  0.27368  0.14105  0.0018500000000000003  1.0000
  C   C118      1.0  0.11684000000000001  0.15399999999999997  0.8968300000000002  1.0000
  C   C119      1.0  0.12216  0.17029000000000002  0.81652  1.0000
  C   C120      1.0  0.07099999999999994  0.25236  0.7816600000000002  1.0000
  C   C121      1.0  0.013710000000000005  0.31881  0.8269200000000002  1.0000
  C   C122      1.0  0.0077900000000000235  0.30335999999999996  0.90713  1.0000
  C   C123      1.0  0.059  0.22133  0.9420100000000001  1.0000
  C   C124      1.0  0.10876  0.02072  0.01014  1.0000
  C   C125      1.0  0.03143  0.010459999999999994  0.9706300000000001  1.0000
  C   C126      1.0  0.4926300000000001  0.48514  0.72605  1.0000
  C   C127      1.0  0.56365  0.4431  0.67508  1.0000
  C   C128      1.0  0.55367  0.3918599999999999  0.61862  1.0000
  C   C129      1.0  0.47266999999999987  0.3825099999999999  0.6124200000000001  1.0000
  C   C130      1.0  0.40032  0.42716  0.66112  1.0000
  C   C131      1.0  0.4099099999999998  0.47873  0.71734  1.0000
  C   C132      1.0  0.61786  0.53557  0.80447  1.0000
  C   C133      1.0  0.6397400000000001  0.6074599999999999  0.7821400000000002  1.0000
  C   C134      1.0  0.7279599999999998  0.6005799999999997  0.7856400000000002  1.0000
  C   C135      1.0  0.79489  0.52157  0.81199  1.0000
  C   C136      1.0  0.7736999999999998  0.44930999999999993  0.83416  1.0000
  C   C137      1.0  0.68562  0.4561  0.83056  1.0000
  C   C138      1.0  0.48817999999999984  0.48701  0.89076  1.0000
  C   C139      1.0  0.5011700000000001  0.5278699999999997  0.96326  1.0000
  C   C140      1.0  0.32654000000000005  0.7678199999999997  0.98902  1.0000
  C   C141      1.0  0.4117000000000001  0.7709999999999998  0.9958700000000001  1.0000
  C   C142      1.0  0.4460299999999999  0.76528  0.06972  1.0000
  C   C143      1.0  0.39776000000000006  0.7607299999999998  0.13761  1.0000
  C   C144      1.0  0.3117600000000001  0.7624499999999997  0.12954  1.0000
  C   C145      1.0  0.2757300000000001  0.7646699999999997  0.05709  1.0000
  C   C146      1.0  0.46432999999999996  0.78494  0.9266000000000001  1.0000
  C   C147      1.0  0.4374700000000001  0.7532899999999998  0.21581  1.0000
  C   C148      1.0  0.18365000000000004  0.7646399999999998  0.05213  1.0000
  C   C149      1.0  0.06526000000000003  0.9230999999999999  0.73843  1.0000
  C   C150      1.0  0.08007999999999998  0.83357  0.73461  1.0000
  C   C151      1.0  0.008850000000000125  0.8074499999999998  0.7512400000000002  1.0000
  C   C152      1.0  0.92342  0.86626  0.77262  1.0000
  C   C153      1.0  0.9100799999999999  0.9543899999999997  0.7764700000000002  1.0000
  C   C154      1.0  0.97872  0.9840499999999998  0.75908  1.0000
  C   C155      1.0  0.1704700000000001  0.7659799999999998  0.71472  1.0000
  C   C156      1.0  0.84828  0.8356999999999998  0.7897200000000001  1.0000
  C   C157      1.0  0.9594500000000001  0.07981999999999999  0.76363  1.0000
  C   C158      1.0  0.50225  0.7558  0.64346  1.0000
  C   C159      1.0  0.5147099999999999  0.68351  0.59882  1.0000
  C   C160      1.0  0.5990800000000001  0.6379499999999998  0.56523  1.0000
  C   C161      1.0  0.6705800000000001  0.6637399999999998  0.57108  1.0000
  C   C162      1.0  0.6565600000000001  0.73595  0.61449  1.0000
  C   C163      1.0  0.5747499999999998  0.78125  0.65196  1.0000
  C   C164      1.0  0.43943999999999983  0.65521  0.5877000000000002  1.0000
  C   C165      1.0  0.7603900000000002  0.6140299999999997  0.53356  1.0000
  C   C166      1.0  0.5663400000000001  0.8524699999999997  0.7042700000000002  1.0000
  S   S1        1.0  0.72214  0.22957999999999995  0.10136000000000003  1.0000
  S   S2        1.0  0.84785  0.03817  0.27981  1.0000
  S   S3        1.0  0.59965  0.18889  0.30594  1.0000
  S   S4        1.0  0.27787000000000006  0.7704299999999997  0.89864  1.0000
  S   S5        1.0  0.15216000000000005  0.9618299999999997  0.72019  1.0000
  S   S6        1.0  0.40035  0.81111  0.69406  1.0000
