data_image0
_chemical_formula_structural       Nd12H72C144O72
_chemical_formula_sum              "Nd12 H72 C144 O72"
_cell_length_a       10.97199
_cell_length_b       17.54462
_cell_length_c       29.20584
_cell_angle_alpha    87.30848
_cell_angle_beta     79.99352000000002
_cell_angle_gamma    73.31679

_symmetry_space_group_name_H-M    'P 1'
_symmetry_Int_Tables_number       1

loop_
  _symmetry_equiv_pos_as_xyz
  'x,y,z'

loop_
  _atom_site_type_symbol
  _atom_site_label
  _atom_site_symmetry_multiplicity
  _atom_site_fract_x
  _atom_site_fract_y
  _atom_site_fract_z
  _atom_site_occupancy
  Nd  Nd1       1.0  0.24011000000000002  0.28773  0.62784  1.0000
  Nd  Nd2       1.0  0.5577700000000001  0.3955200000000001  0.96995  1.0000
  Nd  Nd3       1.0  0.12130999999999999  0.49982000000000004  0.68729  1.0000
  Nd  Nd4       1.0  0.5464999999999999  0.10399  0.96736  1.0000
  Nd  Nd5       1.0  0.10947999999999995  0.7973600000000002  0.70589  1.0000
  Nd  Nd6       1.0  0.19973999999999995  0.0079  0.64469  1.0000
  Nd  Nd7       1.0  0.76021  0.7153900000000002  0.37139  1.0000
  Nd  Nd8       1.0  0.44054999999999983  0.6046900000000002  0.03108  1.0000
  Nd  Nd9       1.0  0.8786400000000001  0.5000600000000002  0.31477  1.0000
  Nd  Nd10      1.0  0.45727000000000007  0.89553  0.03206  1.0000
  Nd  Nd11      1.0  0.88811  0.20293  0.29435  1.0000
  Nd  Nd12      1.0  0.8006700000000001  0.99249  0.35425  1.0000
  H   H1        1.0  0.9859300000000002  0.26892  0.94328  1.0000
  H   H2        1.0  0.19636999999999996  0.21244000000000002  0.97251  1.0000
  H   H3        1.0  0.04787000000000001  0.03156  0.04624  1.0000
  H   H4        1.0  0.83882  0.08707  0.01627  1.0000
  H   H5        1.0  0.47962  0.0007300000000000003  0.69663  1.0000
  H   H6        1.0  0.6828899999999999  0.9426100000000002  0.72996  1.0000
  H   H7        1.0  0.86816  0.09334000000000002  0.64093  1.0000
  H   H8        1.0  0.66546  0.15074000000000007  0.6074199999999998  1.0000
  H   H9        1.0  0.69187  0.61735  0.71437  1.0000
  H   H10       1.0  0.47694000000000003  0.67835  0.6891099999999999  1.0000
  H   H11       1.0  0.60079  0.88192  0.63747  1.0000
  H   H12       1.0  0.8121099999999999  0.82328  0.66473  1.0000
  H   H13       1.0  0.76885  0.16157  0.17045  1.0000
  H   H14       1.0  0.69462  0.14597  0.09568  1.0000
  H   H15       1.0  0.57162  0.94477  0.15258  1.0000
  H   H16       1.0  0.64715  0.9596100000000001  0.22711  1.0000
  H   H17       1.0  0.04631999999999997  0.23498000000000005  0.41863  1.0000
  H   H18       1.0  0.12554999999999988  0.25317  0.49168  1.0000
  H   H19       1.0  0.9626200000000001  0.0728  0.55866  1.0000
  H   H20       1.0  0.8822100000000002  0.05553  0.48587  1.0000
  H   H21       1.0  0.61555  0.27629  0.63721  1.0000
  H   H22       1.0  0.8363899999999997  0.2585300000000001  0.65671  1.0000
  H   H23       1.0  0.7457  0.5109  0.67628  1.0000
  H   H24       1.0  0.52441  0.52842  0.65715  1.0000
  H   H25       1.0  0.4139799999999999  0.7109100000000003  0.86672  1.0000
  H   H26       1.0  0.31228000000000006  0.49335  0.9005599999999999  1.0000
  H   H27       1.0  0.3406300000000001  0.71427  0.78975  1.0000
  H   H28       1.0  0.23088999999999987  0.5000700000000002  0.82515  1.0000
  H   H29       1.0  0.4517699999999998  0.3887500000000001  0.8359  1.0000
  H   H30       1.0  0.3721799999999999  0.3984600000000001  0.75995  1.0000
  H   H31       1.0  0.24863000000000002  0.18787  0.79396  1.0000
  H   H32       1.0  0.31975  0.18237  0.87169  1.0000
  H   H33       1.0  0.03517999999999995  0.61852  0.53352  1.0000
  H   H34       1.0  0.95733  0.62869  0.4572  1.0000
  H   H35       1.0  0.9381700000000001  0.38401  0.9771999999999998  1.0000
  H   H36       1.0  0.15767000000000003  0.3668  0.99756  1.0000
  H   H37       1.0  0.014679999999999877  0.7323700000000002  0.05734  1.0000
  H   H38       1.0  0.8061499999999999  0.78814  0.027  1.0000
  H   H39       1.0  0.9559899999999993  0.9683400000000001  0.95329  1.0000
  H   H40       1.0  0.1635799999999999  0.91355  0.98415  1.0000
  H   H41       1.0  0.52143  0.00039999999999999986  0.3031  1.0000
  H   H42       1.0  0.31895999999999997  0.05939  0.26955  1.0000
  H   H43       1.0  0.13096999999999992  0.9096700000000002  0.35828  1.0000
  H   H44       1.0  0.33292999999999995  0.85139  0.39214999999999994  1.0000
  H   H45       1.0  0.30735  0.38299  0.2855499999999999  1.0000
  H   H46       1.0  0.5221200000000003  0.32196  0.31097  1.0000
  H   H47       1.0  0.39796  0.11839  0.36238  1.0000
  H   H48       1.0  0.18658  0.17725000000000005  0.33524  1.0000
  H   H49       1.0  0.23033999999999982  0.8395600000000002  0.82884  1.0000
  H   H50       1.0  0.30620000000000014  0.85414  0.90342  1.0000
  H   H51       1.0  0.4288499999999999  0.05559  0.8467  1.0000
  H   H52       1.0  0.35243999999999986  0.04121  0.77229  1.0000
  H   H53       1.0  0.9508000000000001  0.76544  0.58084  1.0000
  H   H54       1.0  0.8743799999999999  0.74711  0.50736  1.0000
  H   H55       1.0  0.03759999999999997  0.9275200000000002  0.44102  1.0000
  H   H56       1.0  0.11530999999999995  0.9452600000000002  0.51432  1.0000
  H   H57       1.0  0.3813  0.72654  0.36284  1.0000
  H   H58       1.0  0.16095999999999996  0.74236  0.34334  1.0000
  H   H59       1.0  0.25618  0.48975  0.32404  1.0000
  H   H60       1.0  0.47681999999999997  0.47389  0.3432  1.0000
  H   H61       1.0  0.58545  0.28929  0.13374  1.0000
  H   H62       1.0  0.68804  0.50682  0.09982  1.0000
  H   H63       1.0  0.6592100000000001  0.28608  0.21061  1.0000
  H   H64       1.0  0.7693800000000001  0.50005  0.1752  1.0000
  H   H65       1.0  0.5485599999999999  0.6108900000000003  0.16561  1.0000
  H   H66       1.0  0.63027  0.60219  0.24105  1.0000
  H   H67       1.0  0.7517599999999998  0.8131  0.20564  1.0000
  H   H68       1.0  0.67951  0.81727  0.12823  1.0000
  H   H69       1.0  0.9637200000000002  0.3822  0.46681  1.0000
  H   H70       1.0  0.04116999999999999  0.37195  0.5431  1.0000
  H   H71       1.0  0.05955999999999998  0.61775  0.02325  1.0000
  H   H72       1.0  0.8398399999999997  0.6350200000000003  0.00289  1.0000
  C   C1        1.0  0.90097  0.18129  0.9782399999999998  1.0000
  C   C2        1.0  0.0007199999999999752  0.21748000000000006  0.96614  1.0000
  C   C3        1.0  0.11699999999999995  0.18622000000000005  0.98238  1.0000
  C   C4        1.0  0.13375  0.11887  0.01123  1.0000
  C   C5        1.0  0.03290999999999999  0.08368000000000003  0.02396  1.0000
  C   C6        1.0  0.9172499999999999  0.11431000000000002  0.00725  1.0000
  C   C7        1.0  0.7767900000000003  0.21421  0.9605199999999998  1.0000
  C   C8        1.0  0.26188  0.08067  0.02535  1.0000
  C   C9        1.0  0.56176  0.07868  0.65006  1.0000
  C   C10       1.0  0.5652000000000003  0.02051  0.68485  1.0000
  C   C11       1.0  0.67761  0.9885300000000001  0.70345  1.0000
  C   C12       1.0  0.7873300000000001  0.014160000000000002  0.6871899999999999  1.0000
  C   C13       1.0  0.78275  0.07359  0.653  1.0000
  C   C14       1.0  0.67048  0.10562  0.63444  1.0000
  C   C15       1.0  0.44170999999999994  0.11314  0.63014  1.0000
  C   C16       1.0  0.9122199999999999  0.9735500000000001  0.703  1.0000
  C   C17       1.0  0.67102  0.67487  0.6971799999999999  1.0000
  C   C18       1.0  0.55207  0.70859  0.68317  1.0000
  C   C19       1.0  0.5269999999999999  0.7834700000000002  0.66152  1.0000
  C   C20       1.0  0.6219099999999999  0.824  0.65413  1.0000
  C   C21       1.0  0.7394800000000002  0.79122  0.66919  1.0000
  C   C22       1.0  0.7649299999999999  0.7162500000000003  0.69061  1.0000
  C   C23       1.0  0.39658999999999983  0.8233400000000002  0.6497199999999999  1.0000
  C   C24       1.0  0.8926100000000001  0.68092  0.70576  1.0000
  C   C25       1.0  0.72576  0.11433  0.1661  1.0000
  C   C26       1.0  0.68481  0.10568000000000002  0.12464  1.0000
  C   C27       1.0  0.63023  0.04386  0.11979  1.0000
  C   C28       1.0  0.6154699999999999  0.9916000000000001  0.15683  1.0000
  C   C29       1.0  0.65686  0.9999600000000001  0.19815999999999998  1.0000
  C   C30       1.0  0.71243  0.06135000000000001  0.20289  1.0000
  C   C31       1.0  0.59064  0.03239000000000001  0.07491  1.0000
  C   C32       1.0  0.7558200000000002  0.06996  0.24743999999999994  1.0000
  C   C33       1.0  0.027929999999999986  0.20016  0.44952  1.0000
  C   C34       1.0  0.07145999999999997  0.21046  0.49021  1.0000
  C   C35       1.0  0.048849999999999984  0.16419  0.52965  1.0000
  C   C36       1.0  0.97921  0.10878000000000003  0.52815  1.0000
  C   C37       1.0  0.93509  0.09877  0.48758  1.0000
  C   C38       1.0  0.9611  0.14324000000000003  0.44779  1.0000
  C   C39       1.0  0.10181000000000003  0.17196000000000003  0.57257  1.0000
  C   C40       1.0  0.9224  0.12738  0.40335  1.0000
  C   C41       1.0  0.6454800000000002  0.32707  0.6457699999999998  1.0000
  C   C42       1.0  0.7677200000000001  0.31729  0.65667  1.0000
  C   C43       1.0  0.8035699999999999  0.38392  0.6679  1.0000
  C   C44       1.0  0.71547  0.4600200000000001  0.66813  1.0000
  C   C45       1.0  0.5931499999999998  0.4697500000000001  0.65733  1.0000
  C   C46       1.0  0.55742  0.4032  0.64594  1.0000
  C   C47       1.0  0.42494000000000004  0.412  0.6356699999999997  1.0000
  C   C48       1.0  0.93649  0.37535  0.6775  1.0000
  C   C49       1.0  0.37507999999999986  0.6646500000000002  0.85703  1.0000
  C   C50       1.0  0.36824000000000023  0.60165  0.88792  1.0000
  C   C51       1.0  0.31780999999999987  0.5416  0.87622  1.0000
  C   C52       1.0  0.33327999999999997  0.6668  0.81447  1.0000
  C   C53       1.0  0.40933  0.59961  0.93393  1.0000
  C   C54       1.0  0.23298000000000005  0.6104  0.75773  1.0000
  C   C55       1.0  0.2727700000000001  0.54518  0.8342299999999999  1.0000
  C   C56       1.0  0.28075999999999995  0.6073700000000001  0.80297  1.0000
  C   C57       1.0  0.43929999999999997  0.28058  0.90327  1.0000
  C   C58       1.0  0.3907399999999999  0.28513  0.85808  1.0000
  C   C59       1.0  0.40575999999999995  0.34586  0.82659  1.0000
  C   C60       1.0  0.36214  0.35089  0.78427  1.0000
  C   C61       1.0  0.30636  0.2934800000000001  0.77246  1.0000
  C   C62       1.0  0.29232000000000014  0.23184  0.80363  1.0000
  C   C63       1.0  0.33249000000000006  0.2285  0.84661  1.0000
  C   C64       1.0  0.26702000000000004  0.29718  0.7259799999999998  1.0000
  C   C65       1.0  0.018709999999999945  0.5672800000000002  0.5188  1.0000
  C   C66       1.0  0.97525  0.5729099999999999  0.47634  1.0000
  C   C67       1.0  0.04324999999999994  0.49473000000000006  0.54295  1.0000
  C   C68       1.0  0.08634  0.48976  0.58903  1.0000
  C   C69       1.0  0.9661099999999998  0.43478  0.98701  1.0000
  C   C70       1.0  0.08765999999999995  0.4251900000000001  0.99848  1.0000
  C   C71       1.0  0.74379  0.5189900000000002  0.97812  1.0000
  C   C72       1.0  0.87621  0.5104300000000003  0.98857  1.0000
  C   C73       1.0  0.10116  0.81951  0.022319999999999996  1.0000
  C   C74       1.0  0.0010100000000000013  0.78352  0.03425  1.0000
  C   C75       1.0  0.88561  0.81433  0.01737  1.0000
  C   C76       1.0  0.86939  0.88122  0.98814  1.0000
  C   C77       1.0  0.9702400000000001  0.91646  0.97576  1.0000
  C   C78       1.0  0.08523000000000015  0.8862  0.99304  1.0000
  C   C79       1.0  0.22516  0.78639  0.04031  1.0000
  C   C80       1.0  0.7414000000000001  0.9185300000000002  0.97362  1.0000
  C   C81       1.0  0.4381499999999999  0.92285  0.34958  1.0000
  C   C82       1.0  0.43556999999999996  0.9808700000000002  0.31472  1.0000
  C   C83       1.0  0.32349  0.013349999999999999  0.29599  1.0000
  C   C84       1.0  0.2132900000000001  0.98818  0.31222  1.0000
  C   C85       1.0  0.21704999999999994  0.92877  0.34637  1.0000
  C   C86       1.0  0.32892999999999983  0.8963200000000002  0.36505  1.0000
  C   C87       1.0  0.55775  0.88791  0.36972  1.0000
  C   C88       1.0  0.08835000000000005  0.02933  0.2967699999999999  1.0000
  C   C89       1.0  0.32810999999999996  0.32539  0.30268  1.0000
  C   C90       1.0  0.44695999999999997  0.29172  0.31684  1.0000
  C   C91       1.0  0.47199000000000013  0.21682  0.33849  1.0000
  C   C92       1.0  0.37701  0.17633  0.34575  1.0000
  C   C93       1.0  0.2594499999999999  0.20914000000000005  0.33067  1.0000
  C   C94       1.0  0.23407999999999998  0.2840700000000001  0.30922  1.0000
  C   C95       1.0  0.6023700000000001  0.17690000000000006  0.35042  1.0000
  C   C96       1.0  0.10612999999999989  0.3195500000000001  0.29415  1.0000
  C   C97       1.0  0.27406999999999987  0.88645  0.8332  1.0000
  C   C98       1.0  0.31587999999999994  0.8946200000000001  0.87454  1.0000
  C   C99       1.0  0.37109  0.9561700000000001  0.87937  1.0000
  C   C100      1.0  0.38494  0.00878  0.84244  1.0000
  C   C101      1.0  0.34298999999999996  0.00067  0.80115  1.0000
  C   C102      1.0  0.2872999999999998  0.9393700000000003  0.79638  1.0000
  C   C103      1.0  0.41241  0.96659  0.92416  1.0000
  C   C104      1.0  0.24371999999999988  0.9302100000000002  0.75191  1.0000
  C   C105      1.0  0.9701  0.8004400000000003  0.55012  1.0000
  C   C106      1.0  0.9279999999999998  0.78993  0.50916  1.0000
  C   C107      1.0  0.95115  0.8361500000000002  0.46976  1.0000
  C   C108      1.0  0.020399999999999974  0.8916100000000002  0.47147  1.0000
  C   C109      1.0  0.06308999999999994  0.90184  0.51229  1.0000
  C   C110      1.0  0.03615999999999985  0.8577200000000003  0.55211  1.0000
  C   C111      1.0  0.8986699999999995  0.82818  0.4268499999999999  1.0000
  C   C112      1.0  0.07328000000000003  0.87501  0.59663  1.0000
  C   C113      1.0  0.35257  0.67524  0.35434  1.0000
  C   C114      1.0  0.23071999999999993  0.6839800000000003  0.34335  1.0000
  C   C115      1.0  0.19639999999999994  0.6167600000000002  0.33211  1.0000
  C   C116      1.0  0.28549  0.54107  0.33205  1.0000
  C   C117      1.0  0.40743000000000007  0.5323300000000002  0.34295  1.0000
  C   C118      1.0  0.4417499999999999  0.5995  0.35428  1.0000
  C   C119      1.0  0.5739900000000002  0.59161  0.36445  1.0000
  C   C120      1.0  0.06370999999999986  0.6244600000000002  0.32258  1.0000
  C   C121      1.0  0.62469  0.3355200000000001  0.14326999999999998  1.0000
  C   C122      1.0  0.6316899999999999  0.39853000000000005  0.11239  1.0000
  C   C123      1.0  0.6825200000000001  0.4584700000000001  0.12409  1.0000
  C   C124      1.0  0.66635  0.33346  0.18582  1.0000
  C   C125      1.0  0.5893899999999999  0.4007000000000001  0.06657  1.0000
  C   C126      1.0  0.76515  0.38902000000000003  0.24303  1.0000
  C   C127      1.0  0.7273599999999999  0.45495000000000013  0.16615999999999995  1.0000
  C   C128      1.0  0.71874  0.39289  0.19743  1.0000
  C   C129      1.0  0.56287  0.71814  0.09691999999999999  1.0000
  C   C130      1.0  0.6096599999999999  0.71437  0.14242  1.0000
  C   C131      1.0  0.5949499999999999  0.65401  0.17431  1.0000
  C   C132      1.0  0.6394699999999999  0.6495800000000002  0.21645  1.0000
  C   C133      1.0  0.6950999999999996  0.70741  0.22779  1.0000
  C   C134      1.0  0.70829  0.76876  0.19634  1.0000
  C   C135      1.0  0.6675199999999998  0.7713800000000002  0.15354  1.0000
  C   C136      1.0  0.73495  0.70453  0.27411  1.0000
  C   C137      1.0  0.9802099999999998  0.4334000000000001  0.48162  1.0000
  C   C138      1.0  0.023520000000000017  0.42784  0.52409  1.0000
  C   C139      1.0  0.9557000000000002  0.50599  0.45751  1.0000
  C   C140      1.0  0.9134100000000002  0.51079  0.41137999999999997  1.0000
  C   C141      1.0  0.03147  0.56702  0.01342  1.0000
  C   C142      1.0  0.9098299999999999  0.57661  0.0019399999999999999  1.0000
  C   C143      1.0  0.25395  0.48230000000000006  0.022019999999999998  1.0000
  C   C144      1.0  0.12128999999999995  0.49134000000000005  0.01184  1.0000
  O   O1        1.0  0.70841  0.16716  0.9580499999999998  1.0000
  O   O2        1.0  0.7448099999999999  0.28727000000000014  0.94903  1.0000
  O   O3        1.0  0.34914999999999996  0.11701000000000003  0.01624  1.0000
  O   O4        1.0  0.27935  0.012300000000000004  0.04439  1.0000
  O   O5        1.0  0.42877999999999994  0.17912000000000003  0.60864  1.0000
  O   O6        1.0  0.35602999999999996  0.07577  0.63626  1.0000
  O   O7        1.0  0.006669999999999996  0.003290000000000001  0.69002  1.0000
  O   O8        1.0  0.9217899999999999  0.9097600000000002  0.72656  1.0000
  O   O9        1.0  0.37704999999999983  0.8927800000000002  0.63193  1.0000
  O   O10       1.0  0.3091999999999999  0.78738  0.65937  1.0000
  O   O11       1.0  0.9327799999999999  0.6058600000000002  0.71058  1.0000
  O   O12       1.0  0.9564699999999998  0.7283  0.71289  1.0000
  O   O13       1.0  0.74554  0.01839  0.27892  1.0000
  O   O14       1.0  0.5450499999999999  0.9738400000000001  0.0717  1.0000
  O   O15       1.0  0.60691  0.08035  0.041899999999999986  1.0000
  O   O16       1.0  0.8712200000000001  0.07081  0.40273  1.0000
  O   O17       1.0  0.9459499999999998  0.17034  0.3682  1.0000
  O   O18       1.0  0.09117000000000003  0.12227  0.60556  1.0000
  O   O19       1.0  0.15526000000000004  0.22729000000000005  0.57398  1.0000
  O   O20       1.0  0.33797999999999995  0.4777200000000001  0.64619  1.0000
  O   O21       1.0  0.40575999999999995  0.35184  0.61809  1.0000
  O   O22       1.0  0.023309999999999928  0.3097700000000001  0.66691  1.0000
  O   O23       1.0  0.9571100000000001  0.43546  0.69467  1.0000
  O   O24       1.0  0.40206000000000014  0.6634800000000001  0.95412  1.0000
  O   O25       1.0  0.44756  0.53121  0.9538299999999998  1.0000
  O   O26       1.0  0.22414999999999996  0.67376  0.73365  1.0000
  O   O27       1.0  0.20504999999999993  0.54939  0.74547  1.0000
  O   O28       1.0  0.47845999999999994  0.33811  0.9140499999999998  1.0000
  O   O29       1.0  0.4388000000000001  0.21931  0.92862  1.0000
  O   O30       1.0  0.27210999999999996  0.23371  0.70569  1.0000
  O   O31       1.0  0.23301999999999998  0.36557  0.70589  1.0000
  O   O32       1.0  0.07351999999999992  0.5529700000000002  0.61123  1.0000
  O   O33       1.0  0.13278000000000006  0.42052  0.60644  1.0000
  O   O34       1.0  0.6556400000000001  0.5834200000000003  0.99081  1.0000
  O   O35       1.0  0.7257399999999999  0.46046000000000004  0.95844  1.0000
  O   O36       1.0  0.7993999999999999  0.12895  0.25194  1.0000
  O   O37       1.0  0.29585999999999996  0.8324100000000002  0.04166  1.0000
  O   O38       1.0  0.25503999999999993  0.71396  0.05323  1.0000
  O   O39       1.0  0.6544899999999999  0.88214  0.98377  1.0000
  O   O40       1.0  0.7227  0.98597  0.9534999999999999  1.0000
  O   O41       1.0  0.5694599999999999  0.82211  0.39133  1.0000
  O   O42       1.0  0.6447299999999999  0.92434  0.36354  1.0000
  O   O43       1.0  0.9928900000000002  0.0005199999999999997  0.31023999999999996  1.0000
  O   O44       1.0  0.07901000000000002  0.0928  0.27303  1.0000
  O   O45       1.0  0.6226599999999999  0.10624000000000003  0.36658  1.0000
  O   O46       1.0  0.68885  0.21363000000000004  0.34246  1.0000
  O   O47       1.0  0.06695999999999995  0.39467000000000013  0.28944  1.0000
  O   O48       1.0  0.04204000000000003  0.27224  0.28704  1.0000
  O   O49       1.0  0.25468999999999997  0.9811  0.72004  1.0000
  O   O50       1.0  0.45502  0.026220000000000007  0.9282  1.0000
  O   O51       1.0  0.4003800000000001  0.91647  0.95633  1.0000
  O   O52       1.0  0.12538999999999986  0.9313600000000002  0.59679  1.0000
  O   O53       1.0  0.04821000000000007  0.83352  0.6322199999999999  1.0000
  O   O54       1.0  0.9095300000000001  0.8771000000000001  0.39349  1.0000
  O   O55       1.0  0.8444199999999998  0.77306  0.42588999999999994  1.0000
  O   O56       1.0  0.66141  0.5260400000000002  0.35395  1.0000
  O   O57       1.0  0.59336  0.6518000000000003  0.3818  1.0000
  O   O58       1.0  0.97679  0.69004  0.33327  1.0000
  O   O59       1.0  0.04346999999999997  0.56421  0.30555  1.0000
  O   O60       1.0  0.5938199999999999  0.33704  0.046669999999999996  1.0000
  O   O61       1.0  0.55254  0.46899000000000013  0.04638  1.0000
  O   O62       1.0  0.77066  0.32529  0.26662  1.0000
  O   O63       1.0  0.7946199999999999  0.44852  0.25637  1.0000
  O   O64       1.0  0.52728  0.65927  0.0859  1.0000
  O   O65       1.0  0.56207  0.7796300000000003  0.07161  1.0000
  O   O66       1.0  0.7279799999999998  0.76879  0.2942  1.0000
  O   O67       1.0  0.77069  0.63646  0.29416  1.0000
  O   O68       1.0  0.92734  0.4469300000000001  0.38931  1.0000
  O   O69       1.0  0.8666999999999998  0.5794600000000002  0.39351  1.0000
  O   O70       1.0  0.34138  0.41757  0.00932  1.0000
  O   O71       1.0  0.27309  0.54071  0.04151  1.0000
  O   O72       1.0  0.19943999999999995  0.8713200000000002  0.74795  1.0000
