data_image0
_chemical_formula_structural       Zn6H108C108N18
_chemical_formula_sum              "Zn6 H108 C108 N18"
_cell_length_a       11.13894
_cell_length_b       12.9815
_cell_length_c       20.51113
_cell_angle_alpha    82.35088000000002
_cell_angle_beta     79.83345
_cell_angle_gamma    65.50865

_space_group_name_H-M_alt    "P 1"
_space_group_IT_number       1

loop_
  _space_group_symop_operation_xyz
  'x, y, z'

loop_
  _atom_site_type_symbol
  _atom_site_label
  _atom_site_symmetry_multiplicity
  _atom_site_fract_x
  _atom_site_fract_y
  _atom_site_fract_z
  _atom_site_occupancy
  Zn  Zn1       1.0  0.08527999999999997  0.63169  0.29723  1.0000
  Zn  Zn2       1.0  0.3812699999999999  0.06321999999999998  0.96906  1.0000
  Zn  Zn3       1.0  0.52322  0.98794  0.75497  1.0000
  Zn  Zn4       1.0  0.92068  0.37011  0.69325  1.0000
  Zn  Zn5       1.0  0.6180300000000001  0.93267  0.030959999999999998  1.0000
  Zn  Zn6       1.0  0.46630999999999995  0.010920000000000001  0.24839  1.0000
  H   H1        1.0  0.81218  0.89987  0.29543  1.0000
  H   H2        1.0  0.61735  0.02025  0.36969  1.0000
  H   H3        1.0  0.64174  0.71619  0.49141  1.0000
  H   H4        1.0  0.8341499999999997  0.60705  0.40962999999999994  1.0000
  H   H5        1.0  0.4033599999999997  0.9830800000000002  0.46033  1.0000
  H   H6        1.0  0.4758  0.8901900000000001  0.52659  1.0000
  H   H7        1.0  0.77322  0.84734  0.19898  1.0000
  H   H8        1.0  0.77551  0.011300000000000001  0.12096999999999998  1.0000
  H   H9        1.0  0.1869599999999999  0.8074200000000001  0.05269999999999999  1.0000
  H   H10       1.0  0.16902999999999996  0.65456  0.13649  1.0000
  H   H11       1.0  0.07716000000000002  0.03692  0.03974  1.0000
  H   H12       1.0  0.9019799999999999  0.09699  0.04175  1.0000
  H   H13       1.0  0.49694999999999984  0.72257  0.34595  1.0000
  H   H14       1.0  0.42128000000000004  0.58331  0.31118  1.0000
  H   H15       1.0  0.5639  0.66234  0.10916999999999999  1.0000
  H   H16       1.0  0.6227600000000001  0.80206  0.15106  1.0000
  H   H17       1.0  0.40597999999999995  0.56082  0.13508  1.0000
  H   H18       1.0  0.36725999999999986  0.5118400000000001  0.21721  1.0000
  H   H19       1.0  0.46666999999999986  0.12477000000000003  0.10677  1.0000
  H   H20       1.0  0.49376999999999993  0.22880000000000003  0.19318  1.0000
  H   H21       1.0  0.59867  0.44239  0.03415  1.0000
  H   H22       1.0  0.5766199999999999  0.3246400000000001  0.95478  1.0000
  H   H23       1.0  0.6551299999999999  0.43253000000000014  0.14907  1.0000
  H   H24       1.0  0.5897899999999999  0.36262000000000005  0.21688  1.0000
  H   H25       1.0  0.3805999999999999  0.8832300000000002  0.08792  1.0000
  H   H26       1.0  0.25687999999999994  0.8200600000000001  0.18868  1.0000
  H   H27       1.0  0.035769999999999975  0.17252000000000003  0.22747  1.0000
  H   H28       1.0  0.17844  0.21944  0.1296  1.0000
  H   H29       1.0  0.035969999999999995  0.88513  0.26596  1.0000
  H   H30       1.0  0.9546899999999999  0.02954  0.28403  1.0000
  H   H31       1.0  0.9058199999999998  0.77404  0.51701  1.0000
  H   H32       1.0  0.07882999999999997  0.75383  0.41674  1.0000
  H   H33       1.0  0.93653  0.11818000000000001  0.3991  1.0000
  H   H34       1.0  0.76445  0.12286999999999998  0.49617000000000006  1.0000
  H   H35       1.0  0.20539999999999994  0.8490900000000002  0.33597  1.0000
  H   H36       1.0  0.16148999999999986  0.9956700000000003  0.34147  1.0000
  H   H37       1.0  0.22832  0.51841  0.07097  1.0000
  H   H38       1.0  0.16210999999999992  0.63044  0.96546  1.0000
  H   H39       1.0  0.11973999999999987  0.3419900000000001  0.90584  1.0000
  H   H40       1.0  0.17810999999999996  0.24619000000000005  0.01481  1.0000
  H   H41       1.0  0.12750999999999996  0.6306600000000001  0.85094  1.0000
  H   H42       1.0  0.9782599999999994  0.6124400000000001  0.8757399999999999  1.0000
  H   H43       1.0  0.10048999999999997  0.66461  0.58334  1.0000
  H   H44       1.0  0.22269999999999993  0.53951  0.67477  1.0000
  H   H45       1.0  0.84396  0.63555  0.80005  1.0000
  H   H46       1.0  0.7410299999999997  0.7653700000000002  0.70604  1.0000
  H   H47       1.0  0.21851999999999994  0.45674000000000003  0.78528  1.0000
  H   H48       1.0  0.07327999999999997  0.43238  0.81346  1.0000
  H   H49       1.0  0.67434  0.6350100000000001  0.68222  1.0000
  H   H50       1.0  0.7268099999999998  0.50773  0.59348  1.0000
  H   H51       1.0  0.31199  0.67067  0.56411  1.0000
  H   H52       1.0  0.27698999999999985  0.7923500000000002  0.65463  1.0000
  H   H53       1.0  0.61229  0.4116900000000001  0.53523  1.0000
  H   H54       1.0  0.6267499999999999  0.5171300000000001  0.47526  1.0000
  H   H55       1.0  0.19197999999999996  0.08951000000000005  0.70065  1.0000
  H   H56       1.0  0.38654999999999995  0.97018  0.62615  1.0000
  H   H57       1.0  0.36523999999999995  0.27599  0.50712  1.0000
  H   H58       1.0  0.17311  0.38413  0.58925  1.0000
  H   H59       1.0  0.60204  0.008880000000000011  0.53636  1.0000
  H   H60       1.0  0.5290300000000001  0.10195000000000001  0.47029  1.0000
  H   H61       1.0  0.221  0.16785000000000003  0.79067  1.0000
  H   H62       1.0  0.2240399999999999  0.002549999999999988  0.8691600000000002  1.0000
  H   H63       1.0  0.8121099999999999  0.2010000000000001  0.9395699999999999  1.0000
  H   H64       1.0  0.8248099999999999  0.35516  0.85525  1.0000
  H   H65       1.0  0.9263599999999996  0.9720000000000002  0.95159  1.0000
  H   H66       1.0  0.10153999999999998  0.9142200000000003  0.9492199999999998  1.0000
  H   H67       1.0  0.50031  0.273  0.65519  1.0000
  H   H68       1.0  0.5802000000000003  0.41004000000000007  0.68944  1.0000
  H   H69       1.0  0.43121999999999994  0.33747  0.8914600000000001  1.0000
  H   H70       1.0  0.3689700000000001  0.19915  0.85018  1.0000
  H   H71       1.0  0.5932  0.43525000000000014  0.86519  1.0000
  H   H72       1.0  0.6314899999999999  0.4844600000000001  0.78292  1.0000
  H   H73       1.0  0.5284999999999995  0.8733400000000001  0.8936300000000001  1.0000
  H   H74       1.0  0.5023399999999997  0.7686000000000001  0.8072300000000001  1.0000
  H   H75       1.0  0.4022999999999999  0.5525200000000001  0.9662600000000001  1.0000
  H   H76       1.0  0.4231099999999999  0.6708700000000001  0.04558  1.0000
  H   H77       1.0  0.34393000000000007  0.56338  0.8513499999999999  1.0000
  H   H78       1.0  0.40902  0.63349  0.78358  1.0000
  H   H79       1.0  0.6144999999999999  0.11704000000000002  0.91127  1.0000
  H   H80       1.0  0.73925  0.18050000000000005  0.8109399999999999  1.0000
  H   H81       1.0  0.9614  0.8282500000000003  0.77214  1.0000
  H   H82       1.0  0.81808  0.78108  0.8695699999999998  1.0000
  H   H83       1.0  0.95971  0.11654000000000002  0.73343  1.0000
  H   H84       1.0  0.04335999999999991  0.97165  0.71667  1.0000
  H   H85       1.0  0.09443999999999991  0.22361999999999999  0.48299  1.0000
  H   H86       1.0  0.91975  0.24391  0.58237  1.0000
  H   H87       1.0  0.06555999999999992  0.87939  0.60158  1.0000
  H   H88       1.0  0.2395099999999998  0.8747100000000002  0.50534  1.0000
  H   H89       1.0  0.7927  0.14788000000000007  0.66263  1.0000
  H   H90       1.0  0.83979  0.0005600000000000024  0.65826  1.0000
  H   H91       1.0  0.7722599999999997  0.47565000000000013  0.9310300000000001  1.0000
  H   H92       1.0  0.83723  0.3675800000000001  0.03764  1.0000
  H   H93       1.0  0.8728399999999998  0.6609700000000001  0.09447  1.0000
  H   H94       1.0  0.81724  0.75245  0.98411  1.0000
  H   H95       1.0  0.86474  0.37489  0.15344  1.0000
  H   H96       1.0  0.016909999999999998  0.38667  0.12605  1.0000
  H   H97       1.0  0.8917499999999998  0.3390800000000001  0.41702  1.0000
  H   H98       1.0  0.7742999999999998  0.46822000000000014  0.32531  1.0000
  H   H99       1.0  0.15546999999999997  0.36390000000000006  0.20191999999999996  1.0000
  H   H100      1.0  0.25336  0.23122  0.29614  1.0000
  H   H101      1.0  0.7841599999999999  0.5528  0.2151  1.0000
  H   H102      1.0  0.9342699999999998  0.5682300000000001  0.1853  1.0000
  H   H103      1.0  0.3209699999999999  0.3622200000000001  0.32022  1.0000
  H   H104      1.0  0.2671299999999999  0.4911000000000001  0.40853  1.0000
  H   H105      1.0  0.6823399999999998  0.3325700000000001  0.43709000000000003  1.0000
  H   H106      1.0  0.7186799999999998  0.20924  0.34732  1.0000
  H   H107      1.0  0.38145000000000007  0.59019  0.4658  1.0000
  H   H108      1.0  0.3667299999999999  0.48501000000000005  0.52592  1.0000
  C   C1        1.0  0.77102  0.8613100000000001  0.33899  1.0000
  C   C2        1.0  0.6618099999999999  0.9288800000000001  0.38106  1.0000
  C   C3        1.0  0.6112899999999998  0.87833  0.43762999999999996  1.0000
  C   C4        1.0  0.6750599999999999  0.7600300000000001  0.44770999999999994  1.0000
  C   C5        1.0  0.7829  0.69906  0.40243  1.0000
  C   C6        1.0  0.49382000000000004  0.94692  0.48496  1.0000
  C   C7        1.0  0.8640199999999998  0.84188  0.1663  1.0000
  C   C8        1.0  0.86544  0.9335000000000001  0.12221  1.0000
  C   C9        1.0  0.9828700000000002  0.92395  0.0803  1.0000
  C   C10       1.0  0.0931699999999999  0.8200100000000002  0.08432  1.0000
  C   C11       1.0  0.08309000000000001  0.73433  0.13052  1.0000
  C   C12       1.0  0.9921  0.01937  0.03219  1.0000
  C   C13       1.0  0.50867  0.70735  0.2937  1.0000
  C   C14       1.0  0.46737  0.62924  0.27438  1.0000
  C   C15       1.0  0.4850199999999999  0.61101  0.20683  1.0000
  C   C16       1.0  0.5448  0.6730900000000002  0.16229  1.0000
  C   C17       1.0  0.5804099999999999  0.7506500000000002  0.18605  1.0000
  C   C18       1.0  0.44660999999999973  0.5261800000000001  0.18214  1.0000
  C   C19       1.0  0.49812  0.19479  0.09231  1.0000
  C   C20       1.0  0.51158  0.25424  0.14069  1.0000
  C   C21       1.0  0.5501199999999997  0.3447100000000001  0.12097999999999999  1.0000
  C   C22       1.0  0.57072  0.37175  0.05256  1.0000
  C   C23       1.0  0.55768  0.30585000000000007  0.00814  1.0000
  C   C24       1.0  0.5688099999999999  0.41248  0.16952  1.0000
  C   C25       1.0  0.3046099999999999  0.9442800000000002  0.12118000000000001  1.0000
  C   C26       1.0  0.2344199999999999  0.9097800000000003  0.1765  1.0000
  C   C27       1.0  0.13313999999999995  0.9916000000000001  0.21563  1.0000
  C   C28       1.0  0.11168999999999998  0.10532  0.19818  1.0000
  C   C29       1.0  0.18973999999999996  0.13208000000000003  0.14333  1.0000
  C   C30       1.0  0.05286999999999981  0.9593600000000002  0.27519  1.0000
  C   C31       1.0  0.91506  0.8482200000000001  0.4887  1.0000
  C   C32       1.0  0.012439999999999904  0.8374700000000003  0.43366  1.0000
  C   C33       1.0  0.022280000000000008  0.93505  0.39963  1.0000
  C   C34       1.0  0.9309699999999999  0.03976999999999999  0.42284000000000005  1.0000
  C   C35       1.0  0.8364899999999997  0.04209000000000002  0.47759999999999997  1.0000
  C   C36       1.0  0.12114999999999986  0.9322200000000003  0.33884  1.0000
  C   C37       1.0  0.20268999999999995  0.4820500000000001  0.03328  1.0000
  C   C38       1.0  0.16718000000000002  0.54418  0.97367  1.0000
  C   C39       1.0  0.13532000000000002  0.49619  0.92527  1.0000
  C   C40       1.0  0.14245000000000002  0.38563  0.94058  1.0000
  C   C41       1.0  0.1760599999999999  0.33122000000000007  0.00217  1.0000
  C   C42       1.0  0.08637999999999992  0.5656300000000001  0.86301  1.0000
  C   C43       1.0  0.04687999999999999  0.6570300000000002  0.63254  1.0000
  C   C44       1.0  0.11509999999999991  0.5863  0.68326  1.0000
  C   C45       1.0  0.04362999999999996  0.57569  0.7454  1.0000
  C   C46       1.0  0.90562  0.63964  0.75295  1.0000
  C   C47       1.0  0.8473199999999997  0.7110800000000002  0.69994  1.0000
  C   C48       1.0  0.11145000000000002  0.49951  0.8016  1.0000
  C   C49       1.0  0.5954699999999998  0.6425400000000002  0.65477  1.0000
  C   C50       1.0  0.6251  0.57058  0.6042  1.0000
  C   C51       1.0  0.52375  0.57786  0.56952  1.0000
  C   C52       1.0  0.39622  0.65968  0.58836  1.0000
  C   C53       1.0  0.3761099999999997  0.7285400000000002  0.63965  1.0000
  C   C54       1.0  0.5565199999999998  0.49861000000000005  0.51516  1.0000
  C   C55       1.0  0.23381999999999997  0.12878  0.65767  1.0000
  C   C56       1.0  0.34295  0.061720000000000004  0.61541  1.0000
  C   C57       1.0  0.3941999999999999  0.11298000000000007  0.55945  1.0000
  C   C58       1.0  0.33146999999999993  0.23150000000000004  0.55031  1.0000
  C   C59       1.0  0.2238099999999999  0.29194  0.5958  1.0000
  C   C60       1.0  0.5113899999999999  0.04491  0.51183  1.0000
  C   C61       1.0  0.13164999999999996  0.17171000000000003  0.8241400000000001  1.0000
  C   C62       1.0  0.13306  0.07955000000000001  0.86839  1.0000
  C   C63       1.0  0.01700000000000003  0.08727000000000003  0.9110099999999999  1.0000
  C   C64       1.0  0.9049699999999999  0.19006  0.90746  1.0000
  C   C65       1.0  0.9121099999999999  0.2764  0.8610200000000001  1.0000
  C   C66       1.0  0.010450000000000056  0.99096  0.95908  1.0000
  C   C67       1.0  0.48823000000000005  0.28908  0.70732  1.0000
  C   C68       1.0  0.5318499999999999  0.36594  0.72631  1.0000
  C   C69       1.0  0.5132199999999999  0.38548  0.79371  1.0000
  C   C70       1.0  0.45100999999999997  0.32552000000000003  0.83846  1.0000
  C   C71       1.0  0.41328  0.24901000000000004  0.8150500000000002  1.0000
  C   C72       1.0  0.55246  0.46996  0.8181699999999998  1.0000
  C   C73       1.0  0.4985600000000001  0.8024600000000001  0.9080999999999999  1.0000
  C   C74       1.0  0.48563999999999985  0.74269  0.8597200000000002  1.0000
  C   C75       1.0  0.4487099999999999  0.65137  0.87945  1.0000
  C   C76       1.0  0.42920999999999987  0.6237  0.94782  1.0000
  C   C77       1.0  0.4415500000000002  0.68998  0.99226  1.0000
  C   C78       1.0  0.4301799999999998  0.5835500000000002  0.8309  1.0000
  C   C79       1.0  0.6911500000000002  0.05615  0.87816  1.0000
  C   C80       1.0  0.7617799999999999  0.09078000000000001  0.8230799999999999  1.0000
  C   C81       1.0  0.8636699999999999  0.009090000000000008  0.78408  1.0000
  C   C82       1.0  0.8851099999999994  0.8953500000000002  0.80138  1.0000
  C   C83       1.0  0.8066199999999994  0.8684800000000003  0.85598  1.0000
  C   C84       1.0  0.9444599999999999  0.04125000000000001  0.72469  1.0000
  C   C85       1.0  0.08569  0.14938  0.51141  1.0000
  C   C86       1.0  0.98723  0.16015  0.56594  1.0000
  C   C87       1.0  0.9779199999999999  0.06254  0.60018  1.0000
  C   C88       1.0  0.07068  0.9578300000000001  0.5776  1.0000
  C   C89       1.0  0.1661299999999999  0.9554900000000002  0.52329  1.0000
  C   C90       1.0  0.8781499999999998  0.06544  0.66059  1.0000
  C   C91       1.0  0.79616  0.5140600000000001  0.96833  1.0000
  C   C92       1.0  0.83103  0.4541200000000001  0.028530000000000003  1.0000
  C   C93       1.0  0.8610099999999999  0.50461  0.07636  1.0000
  C   C94       1.0  0.85225  0.61543  0.06001  1.0000
  C   C95       1.0  0.8198099999999998  0.66744  0.99779  1.0000
  C   C96       1.0  0.9096799999999998  0.43709000000000003  0.13913  1.0000
  C   C97       1.0  0.9469199999999998  0.3458900000000001  0.36815  1.0000
  C   C98       1.0  0.8814399999999996  0.4187600000000001  0.3173  1.0000
  C   C99       1.0  0.9551199999999994  0.42811  0.25564  1.0000
  C   C100      1.0  0.09236999999999997  0.36098  0.24869000000000002  1.0000
  C   C101      1.0  0.14782  0.28775  0.30175  1.0000
  C   C102      1.0  0.8903699999999999  0.50505  0.19891000000000003  1.0000
  C   C103      1.0  0.39958999999999983  0.3562500000000001  0.34736  1.0000
  C   C104      1.0  0.36919999999999986  0.42912  0.39757  1.0000
  C   C105      1.0  0.47029000000000015  0.42352000000000006  0.43189  1.0000
  C   C106      1.0  0.59829  0.3424100000000001  0.41306  1.0000
  C   C107      1.0  0.61917  0.27258000000000004  0.36218  1.0000
  C   C108      1.0  0.4370899999999999  0.5033300000000002  0.48602  1.0000
  N   N1        1.0  0.83181  0.7478000000000001  0.34846  1.0000
  N   N2        1.0  0.9709299999999998  0.7435400000000001  0.17162  1.0000
  N   N3        1.0  0.56359  0.7687500000000002  0.25071  1.0000
  N   N4        1.0  0.5231999999999999  0.21751  0.02656  1.0000
  N   N5        1.0  0.2834899999999999  0.053640000000000035  0.10427  1.0000
  N   N6        1.0  0.8275899999999996  0.94859  0.51103  1.0000
  N   N7        1.0  0.20586999999999994  0.37707000000000007  0.04887  1.0000
  N   N8        1.0  0.9150399999999999  0.71979  0.63972  1.0000
  N   N9        1.0  0.47297999999999996  0.72167  0.6731  1.0000
  N   N10       1.0  0.17393999999999996  0.24249000000000015  0.64905  1.0000
  N   N11       1.0  0.022999999999999975  0.26895000000000013  0.81936  1.0000
  N   N12       1.0  0.4303799999999999  0.23010000000000014  0.7505  1.0000
  N   N13       1.0  0.47442999999999974  0.7791900000000003  0.9738400000000001  1.0000
  N   N14       1.0  0.71242  0.94671  0.89498  1.0000
  N   N15       1.0  0.17465999999999995  0.04901999999999998  0.48971000000000003  1.0000
  N   N16       1.0  0.7920399999999997  0.61912  0.95158  1.0000
  N   N17       1.0  0.07794  0.28008  0.3615  1.0000
  N   N18       1.0  0.52258  0.27786  0.32905  1.0000
