data_image0
_chemical_formula_structural       Cu16H72C112N40O8
_chemical_formula_sum              "Cu16 H72 C112 N40 O8"
_cell_length_a       7.22591
_cell_length_b       20.44113
_cell_length_c       21.56131
_cell_angle_alpha    90.0
_cell_angle_beta     90.0
_cell_angle_gamma    90.0

_space_group_name_H-M_alt    "P 1"
_space_group_IT_number       1

loop_
  _space_group_symop_operation_xyz
  'x, y, z'

loop_
  _atom_site_type_symbol
  _atom_site_label
  _atom_site_symmetry_multiplicity
  _atom_site_fract_x
  _atom_site_fract_y
  _atom_site_fract_z
  _atom_site_occupancy
  Cu  Cu1       1.0  0.4141299999999999  0.32722  0.41394  1.0000
  Cu  Cu2       1.0  0.58587  0.32722  0.08605  1.0000
  Cu  Cu3       1.0  0.4141299999999999  0.17278  0.58606  1.0000
  Cu  Cu4       1.0  0.58587  0.17278  0.91395  1.0000
  Cu  Cu5       1.0  0.5859199999999998  0.67277  0.58605  1.0000
  Cu  Cu6       1.0  0.41407  0.67277  0.91395  1.0000
  Cu  Cu7       1.0  0.5859199999999998  0.8272300000000001  0.41394999999999993  1.0000
  Cu  Cu8       1.0  0.41408  0.8272300000000001  0.08605  1.0000
  Cu  Cu9       1.0  0.4999999999999999  0.5  0.5  1.0000
  Cu  Cu10      1.0  0.4999999999999999  0.5  0.0  1.0000
  Cu  Cu11      1.0  0.4999999999999999  0.0  0.50001  1.0000
  Cu  Cu12      1.0  0.49999  0.0  0.0  1.0000
  Cu  Cu13      1.0  0.0  0.8251399999999999  0.25  1.0000
  Cu  Cu14      1.0  0.0  0.67485  0.7500000000000001  1.0000
  Cu  Cu15      1.0  0.0  0.17486  0.7500000000000001  1.0000
  Cu  Cu16      1.0  0.9999899999999999  0.32513  0.25  1.0000
  H   H1        1.0  0.7774499999999999  0.28973  0.46499  1.0000
  H   H2        1.0  0.07979999999999997  0.34639  0.48632  1.0000
  H   H3        1.0  0.8845599999999999  0.50684  0.37406  1.0000
  H   H4        1.0  0.59452  0.44101  0.35371  1.0000
  H   H5        1.0  0.5423  0.62915  0.4376  1.0000
  H   H6        1.0  0.5591999999999998  0.70617  0.35189  1.0000
  H   H7        1.0  0.3926199999999999  0.7873300000000001  0.28622  1.0000
  H   H8        1.0  0.8810099999999997  0.71216  0.33466  1.0000
  H   H9        1.0  0.025119999999999993  0.62474  0.40013  1.0000
  H   H10       1.0  0.22254999999999994  0.28973  0.03501  1.0000
  H   H11       1.0  0.9201899999999997  0.34639  0.01368  1.0000
  H   H12       1.0  0.11543999999999999  0.50683  0.12594  1.0000
  H   H13       1.0  0.4054799999999999  0.44101  0.14629  1.0000
  H   H14       1.0  0.45769999999999994  0.62915  0.0624  1.0000
  H   H15       1.0  0.4407999999999999  0.70617  0.14811  1.0000
  H   H16       1.0  0.60738  0.7873300000000001  0.21378  1.0000
  H   H17       1.0  0.11898  0.71216  0.16535  1.0000
  H   H18       1.0  0.97488  0.62474  0.09987  1.0000
  H   H19       1.0  0.7774399999999998  0.21027  0.53501  1.0000
  H   H20       1.0  0.07979999999999997  0.15361  0.51368  1.0000
  H   H21       1.0  0.8845599999999999  0.99316  0.62594  1.0000
  H   H22       1.0  0.59452  0.05899  0.64629  1.0000
  H   H23       1.0  0.5423  0.87085  0.5624  1.0000
  H   H24       1.0  0.5591999999999998  0.7938199999999999  0.64811  1.0000
  H   H25       1.0  0.3926199999999999  0.71266  0.71378  1.0000
  H   H26       1.0  0.8810099999999997  0.78783  0.66534  1.0000
  H   H27       1.0  0.025119999999999993  0.87526  0.59987  1.0000
  H   H28       1.0  0.22254999999999994  0.21025999999999997  0.9649799999999998  1.0000
  H   H29       1.0  0.9201899999999997  0.15361  0.98632  1.0000
  H   H30       1.0  0.11543999999999999  0.99316  0.87406  1.0000
  H   H31       1.0  0.40547  0.05899  0.85371  1.0000
  H   H32       1.0  0.45769999999999994  0.87085  0.9376  1.0000
  H   H33       1.0  0.4407999999999999  0.7938199999999999  0.8518899999999999  1.0000
  H   H34       1.0  0.60738  0.71266  0.78622  1.0000
  H   H35       1.0  0.11898  0.78783  0.83465  1.0000
  H   H36       1.0  0.97488  0.87525  0.9001300000000001  1.0000
  H   H37       1.0  0.22262999999999994  0.71026  0.535  1.0000
  H   H38       1.0  0.92025  0.65362  0.51367  1.0000
  H   H39       1.0  0.11542  0.49317000000000005  0.62595  1.0000
  H   H40       1.0  0.4054799999999999  0.55898  0.64629  1.0000
  H   H41       1.0  0.45765999999999996  0.37088  0.56241  1.0000
  H   H42       1.0  0.44078  0.29383  0.64811  1.0000
  H   H43       1.0  0.60737  0.21267  0.71378  1.0000
  H   H44       1.0  0.11897  0.28784  0.66534  1.0000
  H   H45       1.0  0.97487  0.37526  0.59986  1.0000
  H   H46       1.0  0.7773699999999999  0.71026  0.9650000000000001  1.0000
  H   H47       1.0  0.07973999999999998  0.65362  0.98633  1.0000
  H   H48       1.0  0.88458  0.49317000000000005  0.8740500000000001  1.0000
  H   H49       1.0  0.59451  0.55898  0.85371  1.0000
  H   H50       1.0  0.5423399999999999  0.37088  0.93759  1.0000
  H   H51       1.0  0.5592099999999999  0.29383  0.8518899999999999  1.0000
  H   H52       1.0  0.3926199999999999  0.21267  0.78622  1.0000
  H   H53       1.0  0.8810199999999998  0.28784  0.8346600000000001  1.0000
  H   H54       1.0  0.025129999999999993  0.37526  0.90014  1.0000
  H   H55       1.0  0.22262999999999994  0.7897399999999999  0.465  1.0000
  H   H56       1.0  0.92025  0.8463799999999999  0.48633  1.0000
  H   H57       1.0  0.11542  0.006830000000000001  0.37405  1.0000
  H   H58       1.0  0.4054799999999999  0.94101  0.35371  1.0000
  H   H59       1.0  0.45765999999999996  0.12912  0.43759000000000003  1.0000
  H   H60       1.0  0.44078  0.20616  0.35189  1.0000
  H   H61       1.0  0.60738  0.28733  0.28623  1.0000
  H   H62       1.0  0.11897  0.21215  0.33467  1.0000
  H   H63       1.0  0.97487  0.12474  0.40013999999999994  1.0000
  H   H64       1.0  0.77738  0.7897399999999999  0.035  1.0000
  H   H65       1.0  0.07974999999999997  0.8463799999999999  0.013670000000000002  1.0000
  H   H66       1.0  0.88458  0.006830000000000001  0.12595  1.0000
  H   H67       1.0  0.59452  0.94101  0.14629  1.0000
  H   H68       1.0  0.5423399999999999  0.12912  0.06241  1.0000
  H   H69       1.0  0.5592099999999999  0.20616  0.14811  1.0000
  H   H70       1.0  0.3926199999999999  0.28732  0.21378  1.0000
  H   H71       1.0  0.8810199999999998  0.21215  0.16534  1.0000
  H   H72       1.0  0.025129999999999993  0.12474  0.09986  1.0000
  C   C1        1.0  0.3707999999999999  0.27046  0.47813  1.0000
  C   C2        1.0  0.8078699999999998  0.33782  0.44597  1.0000
  C   C3        1.0  0.9726199999999998  0.36996  0.45865  1.0000
  C   C4        1.0  0.00019999999999999998  0.43273  0.43424  1.0000
  C   C5        1.0  0.86423  0.45912  0.3951700000000001  1.0000
  C   C6        1.0  0.70423  0.42326  0.38395  1.0000
  C   C7        1.0  0.17108  0.46925  0.44955000000000006  1.0000
  C   C8        1.0  0.4069199999999999  0.61274  0.42135  1.0000
  C   C9        1.0  0.3053099999999999  0.65758  0.38137  1.0000
  C   C10       1.0  0.4085099999999999  0.70466  0.3485  1.0000
  C   C11       1.0  0.3169499999999999  0.75  0.31171  1.0000
  C   C12       1.0  0.031209999999999995  0.70798  0.33879  1.0000
  C   C13       1.0  0.11077999999999998  0.65975  0.37546  1.0000
  C   C14       1.0  0.80805  0.8560499999999999  0.30168  1.0000
  C   C15       1.0  0.6292199999999998  0.27046  0.02186  1.0000
  C   C16       1.0  0.19213  0.33782  0.05403  1.0000
  C   C17       1.0  0.02736999999999999  0.36996  0.04135  1.0000
  C   C18       1.0  0.9998  0.43273  0.06576  1.0000
  C   C19       1.0  0.13577  0.4591100000000001  0.10483  1.0000
  C   C20       1.0  0.29577  0.42326  0.11605000000000001  1.0000
  C   C21       1.0  0.8289199999999998  0.46925  0.05045  1.0000
  C   C22       1.0  0.5930799999999998  0.61274  0.07865  1.0000
  C   C23       1.0  0.6946899999999998  0.65758  0.11863  1.0000
  C   C24       1.0  0.5914899999999997  0.70466  0.1515  1.0000
  C   C25       1.0  0.6830499999999998  0.75  0.18829000000000004  1.0000
  C   C26       1.0  0.9687899999999999  0.70798  0.16121  1.0000
  C   C27       1.0  0.8892199999999998  0.65975  0.12454  1.0000
  C   C28       1.0  0.19193  0.8560499999999999  0.19832  1.0000
  C   C29       1.0  0.3707999999999999  0.22954  0.52187  1.0000
  C   C30       1.0  0.8078699999999998  0.16218  0.55403  1.0000
  C   C31       1.0  0.9726199999999998  0.13004  0.54135  1.0000
  C   C32       1.0  0.00019999999999999998  0.06727  0.56576  1.0000
  C   C33       1.0  0.86423  0.04088  0.60483  1.0000
  C   C34       1.0  0.70423  0.07674  0.61605  1.0000
  C   C35       1.0  0.17108  0.03075  0.55045  1.0000
  C   C36       1.0  0.4069199999999999  0.88726  0.57865  1.0000
  C   C37       1.0  0.3053099999999999  0.84241  0.61863  1.0000
  C   C38       1.0  0.4085099999999999  0.7953300000000001  0.6515  1.0000
  C   C39       1.0  0.3169499999999999  0.75  0.68829  1.0000
  C   C40       1.0  0.031209999999999995  0.7920100000000001  0.66121  1.0000
  C   C41       1.0  0.11077999999999998  0.84024  0.62454  1.0000
  C   C42       1.0  0.80807  0.64395  0.69832  1.0000
  C   C43       1.0  0.62921  0.22954  0.97813  1.0000
  C   C44       1.0  0.19213  0.16218  0.94597  1.0000
  C   C45       1.0  0.02736999999999999  0.13004  0.95865  1.0000
  C   C46       1.0  0.9998  0.06727  0.9342400000000001  1.0000
  C   C47       1.0  0.13576  0.04088  0.89517  1.0000
  C   C48       1.0  0.29577  0.07674  0.88395  1.0000
  C   C49       1.0  0.82891  0.03075  0.94955  1.0000
  C   C50       1.0  0.5930799999999998  0.88726  0.92135  1.0000
  C   C51       1.0  0.6946899999999998  0.84241  0.8813700000000001  1.0000
  C   C52       1.0  0.5914899999999997  0.7953300000000001  0.8485  1.0000
  C   C53       1.0  0.6830499999999998  0.75  0.81171  1.0000
  C   C54       1.0  0.9687899999999999  0.7920100000000001  0.83879  1.0000
  C   C55       1.0  0.8892199999999998  0.84024  0.8754599999999999  1.0000
  C   C56       1.0  0.19193  0.64395  0.80168  1.0000
  C   C57       1.0  0.6292499999999999  0.72954  0.52186  1.0000
  C   C58       1.0  0.19217999999999993  0.66218  0.55403  1.0000
  C   C59       1.0  0.02741  0.63005  0.54135  1.0000
  C   C60       1.0  0.9998  0.56728  0.56576  1.0000
  C   C61       1.0  0.13576  0.54089  0.60483  1.0000
  C   C62       1.0  0.29578  0.57674  0.61605  1.0000
  C   C63       1.0  0.82891  0.53076  0.55045  1.0000
  C   C64       1.0  0.5930599999999998  0.38727  0.57865  1.0000
  C   C65       1.0  0.6946799999999997  0.34242  0.61863  1.0000
  C   C66       1.0  0.59147  0.29534  0.6515  1.0000
  C   C67       1.0  0.6830399999999998  0.25001  0.68829  1.0000
  C   C68       1.0  0.9687799999999998  0.29202  0.66121  1.0000
  C   C69       1.0  0.8891999999999998  0.34025  0.62453  1.0000
  C   C70       1.0  0.19193  0.14396  0.69833  1.0000
  C   C71       1.0  0.37077  0.72954  0.97814  1.0000
  C   C72       1.0  0.80781  0.66218  0.94597  1.0000
  C   C73       1.0  0.97258  0.63004  0.95865  1.0000
  C   C74       1.0  0.00018999999999999996  0.56728  0.9342400000000001  1.0000
  C   C75       1.0  0.86424  0.54089  0.89517  1.0000
  C   C76       1.0  0.7042099999999999  0.57674  0.88395  1.0000
  C   C77       1.0  0.17108  0.53076  0.94955  1.0000
  C   C78       1.0  0.40694  0.38727  0.92135  1.0000
  C   C79       1.0  0.30532  0.34242  0.8813700000000001  1.0000
  C   C80       1.0  0.4085199999999999  0.29534  0.8485  1.0000
  C   C81       1.0  0.3169499999999999  0.25001  0.81171  1.0000
  C   C82       1.0  0.031219999999999994  0.29202  0.8388  1.0000
  C   C83       1.0  0.11079999999999997  0.34025  0.87547  1.0000
  C   C84       1.0  0.80806  0.14396  0.80168  1.0000
  C   C85       1.0  0.6292499999999999  0.77046  0.47814  1.0000
  C   C86       1.0  0.19217999999999993  0.83782  0.44597  1.0000
  C   C87       1.0  0.02741  0.8699500000000001  0.45865  1.0000
  C   C88       1.0  0.9998  0.93272  0.43424  1.0000
  C   C89       1.0  0.13576  0.95911  0.3951700000000001  1.0000
  C   C90       1.0  0.29578  0.92326  0.38395  1.0000
  C   C91       1.0  0.82891  0.96924  0.44955000000000006  1.0000
  C   C92       1.0  0.5930599999999998  0.11271999999999999  0.42135  1.0000
  C   C93       1.0  0.6946699999999998  0.15758  0.38137  1.0000
  C   C94       1.0  0.59147  0.20465  0.34851  1.0000
  C   C95       1.0  0.6830399999999998  0.24999  0.31172  1.0000
  C   C96       1.0  0.9687799999999998  0.20796999999999996  0.3388  1.0000
  C   C97       1.0  0.8891999999999998  0.15974  0.37547  1.0000
  C   C98       1.0  0.19193  0.35603  0.30167  1.0000
  C   C99       1.0  0.37077  0.77046  0.02186  1.0000
  C   C100      1.0  0.80782  0.83782  0.05403  1.0000
  C   C101      1.0  0.9725899999999997  0.8699500000000001  0.04135  1.0000
  C   C102      1.0  0.00019999999999999998  0.93272  0.06576  1.0000
  C   C103      1.0  0.86424  0.95911  0.10483  1.0000
  C   C104      1.0  0.70422  0.92326  0.11605000000000001  1.0000
  C   C105      1.0  0.17108999999999996  0.96924  0.05045  1.0000
  C   C106      1.0  0.4069299999999999  0.11272999999999998  0.07865  1.0000
  C   C107      1.0  0.30532  0.15758  0.11863  1.0000
  C   C108      1.0  0.4085199999999999  0.20466  0.1515  1.0000
  C   C109      1.0  0.3169599999999999  0.24999  0.18829000000000004  1.0000
  C   C110      1.0  0.031219999999999994  0.20796999999999996  0.16121  1.0000
  C   C111      1.0  0.11078999999999997  0.15975  0.12452999999999999  1.0000
  C   C112      1.0  0.80805  0.35604  0.19832  1.0000
  N   N1        1.0  0.6739199999999997  0.3642  0.41019  1.0000
  N   N2        1.0  0.19230999999999995  0.52799  0.42358000000000007  1.0000
  N   N3        1.0  0.35721999999999987  0.55497  0.44147  1.0000
  N   N4        1.0  0.13084  0.75249  0.30691  1.0000
  N   N5        1.0  0.69429  0.86431  0.34031  1.0000
  N   N6        1.0  0.32608  0.3642  0.08981  1.0000
  N   N7        1.0  0.8076899999999998  0.52799  0.07642  1.0000
  N   N8        1.0  0.6427799999999998  0.55497  0.05852999999999999  1.0000
  N   N9        1.0  0.86916  0.75249  0.19309  1.0000
  N   N10       1.0  0.30574  0.8643200000000001  0.15968  1.0000
  N   N11       1.0  0.6739199999999997  0.13579  0.58981  1.0000
  N   N12       1.0  0.19230999999999995  0.972  0.57642  1.0000
  N   N13       1.0  0.35721999999999987  0.94503  0.55853  1.0000
  N   N14       1.0  0.13084  0.7475  0.69309  1.0000
  N   N15       1.0  0.6942799999999998  0.63568  0.65968  1.0000
  N   N16       1.0  0.32606999999999997  0.13579  0.9101900000000002  1.0000
  N   N17       1.0  0.8076899999999998  0.972  0.9235799999999998  1.0000
  N   N18       1.0  0.6427799999999998  0.94503  0.94147  1.0000
  N   N19       1.0  0.86916  0.7475  0.80691  1.0000
  N   N20       1.0  0.30573  0.63568  0.8403200000000001  1.0000
  N   N21       1.0  0.32612  0.63579  0.58981  1.0000
  N   N22       1.0  0.8076899999999998  0.47202  0.57642  1.0000
  N   N23       1.0  0.6427599999999998  0.44505  0.55853  1.0000
  N   N24       1.0  0.86915  0.24752  0.69309  1.0000
  N   N25       1.0  0.30575999999999987  0.13569  0.65968  1.0000
  N   N26       1.0  0.67387  0.63579  0.9101900000000002  1.0000
  N   N27       1.0  0.19230999999999995  0.47202  0.9235799999999998  1.0000
  N   N28       1.0  0.35724  0.44505  0.94147  1.0000
  N   N29       1.0  0.13085  0.24752  0.80691  1.0000
  N   N30       1.0  0.69424  0.13569  0.8403200000000001  1.0000
  N   N31       1.0  0.32612  0.86421  0.41019  1.0000
  N   N32       1.0  0.8076799999999997  0.02798  0.42358000000000007  1.0000
  N   N33       1.0  0.6427599999999998  0.05495  0.44147  1.0000
  N   N34       1.0  0.86915  0.25248  0.30691  1.0000
  N   N35       1.0  0.30575  0.3643  0.34031  1.0000
  N   N36       1.0  0.67388  0.86421  0.08981  1.0000
  N   N37       1.0  0.19230999999999995  0.02798  0.07642  1.0000
  N   N38       1.0  0.35724  0.05495  0.05854  1.0000
  N   N39       1.0  0.13085  0.25248  0.19309  1.0000
  N   N40       1.0  0.6942599999999998  0.36431  0.15969  1.0000
  O   O1        1.0  0.28746  0.44195  0.48748  1.0000
  O   O2        1.0  0.7125399999999997  0.44195  0.01252  1.0000
  O   O3        1.0  0.28746  0.05805  0.51252  1.0000
  O   O4        1.0  0.71253  0.05805  0.9874800000000001  1.0000
  O   O5        1.0  0.71253  0.55805  0.51252  1.0000
  O   O6        1.0  0.28746  0.55805  0.9874800000000001  1.0000
  O   O7        1.0  0.7125399999999997  0.94194  0.48748  1.0000
  O   O8        1.0  0.2874699999999999  0.94194  0.01252  1.0000
