data_image0
_chemical_formula_structural       Cd6H72C72N108
_chemical_formula_sum              "Cd6 H72 C72 N108"
_cell_length_a       11.57038
_cell_length_b       11.569559999999997
_cell_length_c       34.21603
_cell_angle_alpha    80.45477
_cell_angle_beta     80.4307
_cell_angle_gamma    60.26314

_space_group_name_H-M_alt    "P 1"
_space_group_IT_number       1

loop_
  _space_group_symop_operation_xyz
  'x, y, z'

loop_
  _atom_site_type_symbol
  _atom_site_label
  _atom_site_symmetry_multiplicity
  _atom_site_fract_x
  _atom_site_fract_y
  _atom_site_fract_z
  _atom_site_occupancy
  Cd  Cd1       1.0  0.0  0.0  0.0  1.0000
  Cd  Cd2       1.0  0.49999000000000005  0.4999999999999999  0.5  1.0000
  Cd  Cd3       1.0  0.7291899999999999  0.72964  0.81206  1.0000
  Cd  Cd4       1.0  0.77028  0.7706299999999999  0.68821  1.0000
  Cd  Cd5       1.0  0.27079999999999993  0.27037  0.18794  1.0000
  Cd  Cd6       1.0  0.22970000000000013  0.22937999999999995  0.31179  1.0000
  H   H1        1.0  0.84194  0.8838599999999999  0.95145  1.0000
  H   H2        1.0  0.5734700000000001  0.2785499999999999  0.9062  1.0000
  H   H3        1.0  0.46345000000000003  0.004799999999999997  0.93716  1.0000
  H   H4        1.0  0.7708900000000005  0.99107  0.8463499999999998  1.0000
  H   H5        1.0  0.44025000000000003  0.05432  0.81274  1.0000
  H   H6        1.0  0.33269000000000004  0.3419499999999999  0.70427  1.0000
  H   H7        1.0  0.8836800000000005  0.32368  0.9512499999999998  1.0000
  H   H8        1.0  0.27742  0.24427000000000001  0.90688  1.0000
  H   H9        1.0  0.006740000000000074  0.59316  0.93667  1.0000
  H   H10       1.0  0.9912800000000005  0.38893000000000005  0.84724  1.0000
  H   H11       1.0  0.051939999999999924  0.6938  0.81312  1.0000
  H   H12       1.0  0.34324999999999994  0.62042  0.70421  1.0000
  H   H13       1.0  0.3249599999999999  0.84183  0.9509  1.0000
  H   H14       1.0  0.24342000000000003  0.57129  0.9065  1.0000
  H   H15       1.0  0.5927099999999997  0.4644500000000001  0.93654  1.0000
  H   H16       1.0  0.39149000000000006  0.77006  0.84686  1.0000
  H   H17       1.0  0.6925299999999999  0.44189000000000006  0.81318  1.0000
  H   H18       1.0  0.62032  0.33104  0.70414  1.0000
  H   H19       1.0  0.17622  0.61579  0.54878  1.0000
  H   H20       1.0  0.25603000000000004  0.22259000000000004  0.59287  1.0000
  H   H21       1.0  0.9060900000000003  0.49319999999999997  0.56336  1.0000
  H   H22       1.0  0.11107000000000003  0.50813  0.65276  1.0000
  H   H23       1.0  0.8068900000000002  0.44617  0.68756  1.0000
  H   H24       1.0  0.8786600000000002  0.15624000000000005  0.7966399999999998  1.0000
  H   H25       1.0  0.65815  0.17484999999999995  0.54903  1.0000
  H   H26       1.0  0.9288100000000002  0.25616999999999995  0.59369  1.0000
  H   H27       1.0  0.035339999999999996  0.90691  0.56326  1.0000
  H   H28       1.0  0.73011  0.10876  0.65304  1.0000
  H   H29       1.0  0.05930999999999998  0.8078900000000001  0.6875  1.0000
  H   H30       1.0  0.16967000000000002  0.8789399999999999  0.79675  1.0000
  H   H31       1.0  0.6168400000000003  0.65827  0.54834  1.0000
  H   H32       1.0  0.22151000000000015  0.92708  0.59354  1.0000
  H   H33       1.0  0.4955900000000001  0.03655999999999999  0.56316  1.0000
  H   H34       1.0  0.5081100000000002  0.7295299999999999  0.65337  1.0000
  H   H35       1.0  0.4442900000000001  0.060710000000000035  0.6879199999999999  1.0000
  H   H36       1.0  0.15743999999999997  0.16819000000000003  0.79651  1.0000
  H   H37       1.0  0.15805000000000002  0.11614999999999999  0.04855  1.0000
  H   H38       1.0  0.4265100000000001  0.72145  0.09379999999999997  1.0000
  H   H39       1.0  0.5365300000000001  0.9952099999999999  0.06285  1.0000
  H   H40       1.0  0.22910000000000005  0.008940000000000003  0.15366  1.0000
  H   H41       1.0  0.5597300000000001  0.9456899999999999  0.18726  1.0000
  H   H42       1.0  0.66729  0.65806  0.29573  1.0000
  H   H43       1.0  0.11630000000000003  0.67633  0.04875  1.0000
  H   H44       1.0  0.7225600000000001  0.7557399999999999  0.09312  1.0000
  H   H45       1.0  0.99325  0.40685000000000004  0.06333  1.0000
  H   H46       1.0  0.0087000000000001  0.6110799999999998  0.15276  1.0000
  H   H47       1.0  0.9480400000000002  0.30621  0.18688  1.0000
  H   H48       1.0  0.6567300000000001  0.3795899999999999  0.29579  1.0000
  H   H49       1.0  0.67503  0.15817999999999996  0.0491  1.0000
  H   H50       1.0  0.7565600000000002  0.42871999999999993  0.0935  1.0000
  H   H51       1.0  0.40727000000000013  0.53556  0.06346  1.0000
  H   H52       1.0  0.60849  0.22995  0.15314  1.0000
  H   H53       1.0  0.30744999999999995  0.55812  0.18682  1.0000
  H   H54       1.0  0.37965999999999994  0.66896  0.29586  1.0000
  H   H55       1.0  0.82376  0.38422  0.45122  1.0000
  H   H56       1.0  0.7439500000000003  0.7774199999999998  0.40713  1.0000
  H   H57       1.0  0.09389000000000014  0.5068  0.43664  1.0000
  H   H58       1.0  0.88892  0.49187999999999993  0.34724  1.0000
  H   H59       1.0  0.19309000000000007  0.5538400000000001  0.3124399999999999  1.0000
  H   H60       1.0  0.12133  0.84376  0.20335999999999996  1.0000
  H   H61       1.0  0.34184  0.8251599999999999  0.45097  1.0000
  H   H62       1.0  0.07117000000000018  0.7438299999999999  0.40631  1.0000
  H   H63       1.0  0.96464  0.09310000000000004  0.4367399999999999  1.0000
  H   H64       1.0  0.26987000000000005  0.89125  0.34696  1.0000
  H   H65       1.0  0.94068  0.19212  0.3125  1.0000
  H   H66       1.0  0.83032  0.12106  0.20325  1.0000
  H   H67       1.0  0.38314000000000004  0.34174  0.45166  1.0000
  H   H68       1.0  0.77847  0.07293  0.40647  1.0000
  H   H69       1.0  0.5043999999999998  0.9634399999999999  0.43684  1.0000
  H   H70       1.0  0.4918800000000001  0.27048  0.34664  1.0000
  H   H71       1.0  0.5556899999999999  0.9393  0.31207999999999997  1.0000
  H   H72       1.0  0.8425500000000002  0.83182  0.20349  1.0000
  C   C1        1.0  0.7871900000000002  0.9921199999999998  0.94677  1.0000
  C   C2        1.0  0.6509100000000001  0.19783  0.92306  1.0000
  C   C3        1.0  0.5296499999999998  0.98464  0.90971  1.0000
  C   C4        1.0  0.6903700000000003  0.97578  0.8631399999999998  1.0000
  C   C5        1.0  0.47247000000000006  0.025229999999999995  0.7828  1.0000
  C   C6        1.0  0.25746  0.3333900000000001  0.7261  1.0000
  C   C7        1.0  0.9918800000000002  0.27337999999999996  0.94691  1.0000
  C   C8        1.0  0.19735000000000008  0.2285000000000001  0.9234999999999998  1.0000
  C   C9        1.0  0.9863600000000002  0.57527  0.90917  1.0000
  C   C10       1.0  0.9761500000000002  0.46970999999999996  0.86316  1.0000
  C   C11       1.0  0.024469999999999915  0.72011  0.78287  1.0000
  C   C12       1.0  0.33272000000000007  0.6835299999999997  0.72611  1.0000
  C   C13       1.0  0.2740600000000001  0.7876799999999999  0.94671  1.0000
  C   C14       1.0  0.22819000000000011  0.6498  0.9234299999999998  1.0000
  C   C15       1.0  0.5752900000000001  0.53003  0.9091399999999997  1.0000
  C   C16       1.0  0.47107  0.69002  0.8631  1.0000
  C   C17       1.0  0.7202000000000001  0.47248999999999997  0.7830099999999998  1.0000
  C   C18       1.0  0.6835600000000002  0.2572999999999999  0.7259499999999999  1.0000
  C   C19       1.0  0.22659000000000004  0.5077  0.55312  1.0000
  C   C20       1.0  0.27158000000000004  0.3028100000000001  0.5763899999999997  1.0000
  C   C21       1.0  0.9241199999999997  0.5137300000000001  0.5909  1.0000
  C   C22       1.0  0.03012999999999995  0.52359  0.63688  1.0000
  C   C23       1.0  0.7801100000000001  0.4747  0.71769  1.0000
  C   C24       1.0  0.8167700000000002  0.16676999999999997  0.77446  1.0000
  C   C25       1.0  0.71207  0.22566000000000003  0.5534  1.0000
  C   C26       1.0  0.8498600000000001  0.27159000000000005  0.57687  1.0000
  C   C27       1.0  0.96972  0.92442  0.59062  1.0000
  C   C28       1.0  0.81008  0.028770000000000007  0.63685  1.0000
  C   C29       1.0  0.028080000000000157  0.7798699999999998  0.71756  1.0000
  C   C30       1.0  0.24291000000000004  0.8168299999999998  0.77461  1.0000
  C   C31       1.0  0.5083800000000002  0.71234  0.5532099999999998  1.0000
  C   C32       1.0  0.30248  0.8489900000000001  0.5768799999999997  1.0000
  C   C33       1.0  0.5152000000000001  0.9704299999999999  0.59054  1.0000
  C   C34       1.0  0.5237400000000002  0.8099399999999999  0.63679  1.0000
  C   C35       1.0  0.47434  0.028170000000000035  0.71775  1.0000
  C   C36       1.0  0.1662700000000001  0.24281999999999998  0.77442  1.0000
  C   C37       1.0  0.21279999999999996  0.00788  0.05323  1.0000
  C   C38       1.0  0.3490800000000001  0.80218  0.07694  1.0000
  C   C39       1.0  0.47034  0.015370000000000003  0.09029  1.0000
  C   C40       1.0  0.30961000000000005  0.02423  0.13686  1.0000
  C   C41       1.0  0.5275099999999999  0.97478  0.21719999999999995  1.0000
  C   C42       1.0  0.7425200000000001  0.66662  0.2738999999999999  1.0000
  C   C43       1.0  0.008100000000000043  0.7266299999999999  0.05309  1.0000
  C   C44       1.0  0.8026400000000002  0.7715099999999998  0.0765  1.0000
  C   C45       1.0  0.013620000000000016  0.42474  0.09083  1.0000
  C   C46       1.0  0.023840000000000052  0.5303  0.13684  1.0000
  C   C47       1.0  0.97551  0.27989  0.21713  1.0000
  C   C48       1.0  0.66726  0.31648000000000004  0.27389  1.0000
  C   C49       1.0  0.72593  0.21233  0.05329  1.0000
  C   C50       1.0  0.7718  0.35021  0.07657  1.0000
  C   C51       1.0  0.4246900000000001  0.46997999999999995  0.09086  1.0000
  C   C52       1.0  0.52891  0.30998  0.1369  1.0000
  C   C53       1.0  0.27978  0.52752  0.21699  1.0000
  C   C54       1.0  0.31642  0.74271  0.2740499999999999  1.0000
  C   C55       1.0  0.77339  0.49231  0.44688  1.0000
  C   C56       1.0  0.72841  0.6972  0.42361  1.0000
  C   C57       1.0  0.07586000000000004  0.48628  0.4091  1.0000
  C   C58       1.0  0.96985  0.47641  0.36313  1.0000
  C   C59       1.0  0.21987999999999996  0.52531  0.28231  1.0000
  C   C60       1.0  0.18320999999999998  0.83323  0.22554  1.0000
  C   C61       1.0  0.28791000000000005  0.7743500000000001  0.4465999999999999  1.0000
  C   C62       1.0  0.15011999999999992  0.72841  0.42313  1.0000
  C   C63       1.0  0.030259999999999995  0.07558  0.40938  1.0000
  C   C64       1.0  0.18991  0.9712299999999999  0.36315  1.0000
  C   C65       1.0  0.9719100000000002  0.22014000000000003  0.28244  1.0000
  C   C66       1.0  0.75707  0.18317999999999998  0.22539  1.0000
  C   C67       1.0  0.4915999999999999  0.28766  0.44679  1.0000
  C   C68       1.0  0.6975000000000002  0.15102  0.42312  1.0000
  C   C69       1.0  0.48477999999999993  0.029580000000000013  0.40946  1.0000
  C   C70       1.0  0.47624000000000005  0.19007  0.36321  1.0000
  C   C71       1.0  0.5256400000000006  0.97183  0.28225  1.0000
  C   C72       1.0  0.83371  0.75719  0.22557999999999995  1.0000
  N   N1        1.0  0.82729  0.07464999999999992  0.95501  1.0000
  N   N2        1.0  0.74144  0.20401  0.94039  1.0000
  N   N3        1.0  0.66797  0.06793000000000002  0.92858  1.0000
  N   N4        1.0  0.62524  0.025149999999999985  0.89933  1.0000
  N   N5        1.0  0.5308700000000001  0.91847  0.8818799999999998  1.0000
  N   N6        1.0  0.63347  0.9113  0.85275  1.0000
  N   N7        1.0  0.5805300000000002  0.91784  0.7702  1.0000
  N   N8        1.0  0.13174000000000008  0.42474  0.73484  1.0000
  N   N9        1.0  0.07313999999999996  0.14227  0.95449  1.0000
  N   N10       1.0  0.20268000000000005  0.11376999999999995  0.93989  1.0000
  N   N11       1.0  0.06799  0.33581  0.92967  1.0000
  N   N12       1.0  0.025460000000000038  0.45002999999999993  0.89907  1.0000
  N   N13       1.0  0.9202100000000001  0.66755  0.88141  1.0000
  N   N14       1.0  0.9120400000000002  0.60062  0.8524299999999998  1.0000
  N   N15       1.0  0.9161400000000004  0.7336500000000001  0.77013  1.0000
  N   N16       1.0  0.4239900000000001  0.71046  0.73468  1.0000
  N   N17       1.0  0.14301000000000008  0.82872  0.9545399999999999  1.0000
  N   N18       1.0  0.11404000000000009  0.7416099999999999  0.94013  1.0000
  N   N19       1.0  0.33519  0.6673500000000001  0.9291599999999998  1.0000
  N   N20       1.0  0.4496800000000001  0.6245500000000002  0.89878  1.0000
  N   N21       1.0  0.66809  0.5325500000000001  0.8816999999999998  1.0000
  N   N22       1.0  0.60209  0.63538  0.85271  1.0000
  N   N23       1.0  0.7312200000000002  0.58142  0.77026  1.0000
  N   N24       1.0  0.7083900000000003  0.13164  0.73493  1.0000
  N   N25       1.0  0.35802999999999985  0.4270000000000001  0.54584  1.0000
  N   N26       1.0  0.3866100000000002  0.29753  0.5605099999999997  1.0000
  N   N27       1.0  0.16424  0.43146  0.56995  1.0000
  N   N28       1.0  0.049270000000000015  0.4740599999999999  0.60105  1.0000
  N   N29       1.0  0.8319800000000005  0.58038  0.61869  1.0000
  N   N30       1.0  0.8991700000000005  0.5884199999999998  0.6476399999999998  1.0000
  N   N31       1.0  0.7663700000000006  0.5835899999999998  0.73017  1.0000
  N   N32       1.0  0.7911300000000001  0.07525000000000004  0.76538  1.0000
  N   N33       1.0  0.67185  0.35627999999999993  0.5454  1.0000
  N   N34       1.0  0.7583400000000002  0.38555000000000006  0.5600299999999999  1.0000
  N   N35       1.0  0.8324900000000001  0.16422  0.57108  1.0000
  N   N36       1.0  0.87442  0.04969000000000001  0.60083  1.0000
  N   N37       1.0  0.96811  0.83182  0.61827  1.0000
  N   N38       1.0  0.86555  0.89793  0.6473999999999999  1.0000
  N   N39       1.0  0.9191  0.7686999999999999  0.73004  1.0000
  N   N40       1.0  0.36796000000000006  0.79344  0.76509  1.0000
  N   N41       1.0  0.4259700000000002  0.6714500000000001  0.54529  1.0000
  N   N42       1.0  0.2966400000000001  0.75704  0.56005  1.0000
  N   N43       1.0  0.43225  0.83284  0.57084  1.0000
  N   N44       1.0  0.47471  0.87471  0.60069  1.0000
  N   N45       1.0  0.5813600000000002  0.9691  0.6183799999999999  1.0000
  N   N46       1.0  0.5882400000000001  0.8663799999999999  0.64742  1.0000
  N   N47       1.0  0.5825200000000003  0.9204699999999999  0.73006  1.0000
  N   N48       1.0  0.07477000000000003  0.36810999999999994  0.76529  1.0000
  N   N49       1.0  0.17270000000000005  0.9253499999999999  0.04499  1.0000
  N   N50       1.0  0.25854000000000005  0.7959999999999999  0.05961000000000001  1.0000
  N   N51       1.0  0.33201  0.9320799999999999  0.07142  1.0000
  N   N52       1.0  0.3747400000000001  0.9748599999999998  0.10067  1.0000
  N   N53       1.0  0.4691100000000001  0.08153999999999999  0.11812  1.0000
  N   N54       1.0  0.3665200000000001  0.08870999999999998  0.14725  1.0000
  N   N55       1.0  0.41945  0.08216  0.2298  1.0000
  N   N56       1.0  0.8682400000000002  0.57527  0.26516  1.0000
  N   N57       1.0  0.9268400000000002  0.8577399999999998  0.04551  1.0000
  N   N58       1.0  0.7973100000000003  0.8862399999999999  0.06010999999999999  1.0000
  N   N59       1.0  0.9319900000000001  0.6641999999999999  0.07032999999999998  1.0000
  N   N60       1.0  0.97452  0.54997  0.10093  1.0000
  N   N61       1.0  0.07978000000000002  0.33245  0.11859  1.0000
  N   N62       1.0  0.08794000000000002  0.39939  0.14757999999999993  1.0000
  N   N63       1.0  0.08385000000000002  0.26636  0.22986999999999994  1.0000
  N   N64       1.0  0.5759900000000001  0.28955000000000003  0.2653199999999999  1.0000
  N   N65       1.0  0.85697  0.17129  0.04546  1.0000
  N   N66       1.0  0.88594  0.2584  0.05986999999999999  1.0000
  N   N67       1.0  0.66479  0.33266  0.07083999999999997  1.0000
  N   N68       1.0  0.5503  0.37546  0.10122  1.0000
  N   N69       1.0  0.3319  0.4674499999999999  0.1183  1.0000
  N   N70       1.0  0.39789  0.3646299999999999  0.1473  1.0000
  N   N71       1.0  0.26876000000000005  0.41858999999999996  0.22974  1.0000
  N   N72       1.0  0.29159000000000007  0.86837  0.26507  1.0000
  N   N73       1.0  0.6419600000000001  0.57301  0.45416  1.0000
  N   N74       1.0  0.6133800000000003  0.7024799999999999  0.43949  1.0000
  N   N75       1.0  0.8357400000000001  0.56855  0.4300499999999999  1.0000
  N   N76       1.0  0.95072  0.52595  0.39895  1.0000
  N   N77       1.0  0.16799999999999993  0.41963  0.38131  1.0000
  N   N78       1.0  0.10080999999999998  0.41159  0.35237  1.0000
  N   N79       1.0  0.23361000000000004  0.41642  0.26983  1.0000
  N   N80       1.0  0.20886  0.92476  0.23462  1.0000
  N   N81       1.0  0.32814000000000026  0.64373  0.4545999999999999  1.0000
  N   N82       1.0  0.2416400000000001  0.61446  0.4399699999999999  1.0000
  N   N83       1.0  0.16748999999999997  0.83579  0.42892  1.0000
  N   N84       1.0  0.12556000000000017  0.9503199999999999  0.39917  1.0000
  N   N85       1.0  0.03186999999999999  0.16819000000000003  0.38173  1.0000
  N   N86       1.0  0.13443000000000002  0.10208000000000007  0.3525999999999999  1.0000
  N   N87       1.0  0.08088000000000001  0.23131  0.26996  1.0000
  N   N88       1.0  0.63203  0.20657  0.23491  1.0000
  N   N89       1.0  0.57401  0.32855999999999996  0.45471  1.0000
  N   N90       1.0  0.70334  0.24297  0.43995  1.0000
  N   N91       1.0  0.56773  0.16717000000000004  0.42916  1.0000
  N   N92       1.0  0.5252800000000001  0.1253  0.39931  1.0000
  N   N93       1.0  0.41862000000000016  0.030900000000000018  0.3816199999999999  1.0000
  N   N94       1.0  0.41174  0.13363  0.35258  1.0000
  N   N95       1.0  0.4174700000000001  0.07954  0.26994  1.0000
  N   N96       1.0  0.9252100000000002  0.6319  0.23470999999999997  1.0000
  N   N97       1.0  0.40162  0.09818000000000003  0.75038  1.0000
  N   N98       1.0  0.2849  0.21554000000000004  0.75048  1.0000
  N   N99       1.0  0.09794000000000012  0.74963  0.75037  1.0000
  N   N100      1.0  0.21537000000000017  0.7488900000000001  0.75066  1.0000
  N   N101      1.0  0.75114  0.40157  0.7504099999999999  1.0000
  N   N102      1.0  0.7501900000000002  0.28490999999999994  0.75035  1.0000
  N   N103      1.0  0.5983600000000002  0.90183  0.24963  1.0000
  N   N104      1.0  0.7150800000000003  0.78447  0.24951999999999996  1.0000
  N   N105      1.0  0.90204  0.25038  0.24963  1.0000
  N   N106      1.0  0.7846099999999999  0.25111  0.24935  1.0000
  N   N107      1.0  0.24885  0.59844  0.24959  1.0000
  N   N108      1.0  0.24979  0.7150999999999998  0.24965  1.0000
