data_image0
_chemical_formula_structural       Cu12H66C132N6O48
_chemical_formula_sum              "Cu12 H66 C132 N6 O48"
_cell_length_a       18.60739
_cell_length_b       18.60746
_cell_length_c       24.16979
_cell_angle_alpha    90.0
_cell_angle_beta     90.0
_cell_angle_gamma    120.03740000000002

_symmetry_space_group_name_H-M    'P 1'
_symmetry_Int_Tables_number       1

loop_
  _symmetry_equiv_pos_as_xyz
  'x,y,z'

loop_
  _atom_site_type_symbol
  _atom_site_label
  _atom_site_symmetry_multiplicity
  _atom_site_fract_x
  _atom_site_fract_y
  _atom_site_fract_z
  _atom_site_occupancy
  Cu  Cu1       1.0  0.47776  0.52223  0.95912  1.0000
  Cu  Cu2       1.0  0.04451000000000003  0.52227  0.95913  1.0000
  Cu  Cu3       1.0  0.47773  0.95549  0.95913  1.0000
  Cu  Cu4       1.0  0.52224  0.47776  0.4591199999999999  1.0000
  Cu  Cu5       1.0  0.95549  0.4777300000000001  0.45913  1.0000
  Cu  Cu6       1.0  0.52227  0.04451  0.45913  1.0000
  Cu  Cu7       1.0  0.95549  0.4777300000000001  0.04086999999999999  1.0000
  Cu  Cu8       1.0  0.52224  0.47776  0.04088  1.0000
  Cu  Cu9       1.0  0.52227  0.04451  0.04086999999999999  1.0000
  Cu  Cu10      1.0  0.04451000000000003  0.52227  0.54087  1.0000
  Cu  Cu11      1.0  0.47776  0.52223  0.54088  1.0000
  Cu  Cu12      1.0  0.47773  0.95549  0.54087  1.0000
  H   H1        1.0  0.70322  0.63828  0.8596899999999998  1.0000
  H   H2        1.0  0.9351599999999999  0.29686  0.85967  1.0000
  H   H3        1.0  0.36169  0.06489  0.85966  1.0000
  H   H4        1.0  0.29678  0.36172  0.35968999999999995  1.0000
  H   H5        1.0  0.06485000000000002  0.70314  0.3596799999999999  1.0000
  H   H6        1.0  0.63831  0.93511  0.35966  1.0000
  H   H7        1.0  0.06489  0.36169  0.14034  1.0000
  H   H8        1.0  0.63828  0.70322  0.14031  1.0000
  H   H9        1.0  0.29685999999999996  0.93515  0.14032  1.0000
  H   H10       1.0  0.93511  0.6383100000000003  0.64034  1.0000
  H   H11       1.0  0.36172  0.29678  0.6403099999999999  1.0000
  H   H12       1.0  0.70314  0.06485  0.64032  1.0000
  H   H13       1.0  0.29678  0.36172  0.14031  1.0000
  H   H14       1.0  0.06485000000000002  0.70314  0.14032  1.0000
  H   H15       1.0  0.63831  0.93511  0.14034  1.0000
  H   H16       1.0  0.70322  0.63828  0.6403099999999999  1.0000
  H   H17       1.0  0.93515  0.29686  0.64032  1.0000
  H   H18       1.0  0.36169  0.06489  0.64034  1.0000
  H   H19       1.0  0.93511  0.6383100000000003  0.85966  1.0000
  H   H20       1.0  0.36172  0.29678  0.8596899999999998  1.0000
  H   H21       1.0  0.70314  0.06485  0.8596799999999998  1.0000
  H   H22       1.0  0.06489  0.36169  0.35966  1.0000
  H   H23       1.0  0.63828  0.70322  0.35968999999999995  1.0000
  H   H24       1.0  0.29685999999999996  0.93515  0.3596799999999999  1.0000
  H   H25       1.0  0.7619699999999998  0.52397  0.99358  1.0000
  H   H26       1.0  0.76514  0.53027  0.7860299999999998  1.0000
  H   H27       1.0  0.9060699999999999  0.81213  0.83911  1.0000
  H   H28       1.0  0.7619899999999998  0.23801  0.99356  1.0000
  H   H29       1.0  0.7651800000000001  0.23483000000000007  0.7860299999999998  1.0000
  H   H30       1.0  0.90604  0.09396  0.83911  1.0000
  H   H31       1.0  0.47602999999999995  0.23803  0.99358  1.0000
  H   H32       1.0  0.4697299999999999  0.23486  0.7860299999999998  1.0000
  H   H33       1.0  0.18786999999999995  0.09393  0.83911  1.0000
  H   H34       1.0  0.23803  0.47603  0.49358  1.0000
  H   H35       1.0  0.23486  0.46973  0.28603  1.0000
  H   H36       1.0  0.09392999999999999  0.18787  0.33911  1.0000
  H   H37       1.0  0.23800999999999997  0.76199  0.49355999999999994  1.0000
  H   H38       1.0  0.23482999999999998  0.76517  0.28603  1.0000
  H   H39       1.0  0.09396000000000006  0.90604  0.33911  1.0000
  H   H40       1.0  0.52397  0.7619700000000003  0.49358  1.0000
  H   H41       1.0  0.53027  0.76513  0.28603  1.0000
  H   H42       1.0  0.81214  0.90607  0.33911  1.0000
  H   H43       1.0  0.23803  0.47603  0.00642  1.0000
  H   H44       1.0  0.23486  0.46973  0.21396999999999997  1.0000
  H   H45       1.0  0.09392999999999999  0.18787  0.16088999999999998  1.0000
  H   H46       1.0  0.52397  0.7619700000000003  0.00642  1.0000
  H   H47       1.0  0.53027  0.76513  0.21396999999999997  1.0000
  H   H48       1.0  0.81214  0.90607  0.16088999999999998  1.0000
  H   H49       1.0  0.23800999999999997  0.76199  0.0064399999999999995  1.0000
  H   H50       1.0  0.23482999999999998  0.76517  0.21396999999999997  1.0000
  H   H51       1.0  0.09396000000000006  0.90604  0.16088999999999998  1.0000
  H   H52       1.0  0.7619699999999998  0.52397  0.5064199999999999  1.0000
  H   H53       1.0  0.76514  0.53027  0.71397  1.0000
  H   H54       1.0  0.9060699999999999  0.81213  0.66089  1.0000
  H   H55       1.0  0.47602999999999995  0.23803  0.5064199999999999  1.0000
  H   H56       1.0  0.4697299999999999  0.23486  0.71397  1.0000
  H   H57       1.0  0.18786999999999995  0.09393  0.66089  1.0000
  H   H58       1.0  0.7619899999999998  0.23801  0.50644  1.0000
  H   H59       1.0  0.7651800000000001  0.23483000000000007  0.71397  1.0000
  H   H60       1.0  0.90604  0.09396  0.66089  1.0000
  H   H61       1.0  0.94529  0.89057  0.7499999999999999  1.0000
  H   H62       1.0  0.9452299999999998  0.05477  0.7499999999999999  1.0000
  H   H63       1.0  0.10943  0.05471  0.7499999999999999  1.0000
  H   H64       1.0  0.054709999999999995  0.10943  0.24999999999999994  1.0000
  H   H65       1.0  0.05477000000000009  0.94523  0.24999999999999994  1.0000
  H   H66       1.0  0.89058  0.94528  0.24999999999999994  1.0000
  C   C1        1.0  0.7242499999999997  0.57857  0.9292399999999998  1.0000
  C   C2        1.0  0.64183  0.55162  0.9552699999999998  1.0000
  C   C3        1.0  0.74624  0.6224  0.8790399999999999  1.0000
  C   C4        1.0  0.85437  0.27577  0.92922  1.0000
  C   C5        1.0  0.9098199999999999  0.3582  0.9552599999999999  1.0000
  C   C6        1.0  0.87622  0.25379  0.8790399999999999  1.0000
  C   C7        1.0  0.4214199999999999  0.14565  0.9292299999999998  1.0000
  C   C8        1.0  0.44837999999999995  0.0902  0.9552599999999999  1.0000
  C   C9        1.0  0.37759000000000004  0.12381000000000003  0.8790299999999999  1.0000
  C   C10       1.0  0.2757499999999999  0.42143  0.42924  1.0000
  C   C11       1.0  0.35816999999999993  0.44838  0.45527  1.0000
  C   C12       1.0  0.25376  0.3776  0.37904  1.0000
  C   C13       1.0  0.14562999999999993  0.72423  0.4292199999999999  1.0000
  C   C14       1.0  0.09018000000000001  0.6418  0.45524999999999993  1.0000
  C   C15       1.0  0.12379000000000003  0.7462  0.37904  1.0000
  C   C16       1.0  0.57858  0.85434  0.42922999999999994  1.0000
  C   C17       1.0  0.5516200000000002  0.9098000000000003  0.45526  1.0000
  C   C18       1.0  0.62241  0.87619  0.37903  1.0000
  C   C19       1.0  0.14566  0.42142  0.07076999999999999  1.0000
  C   C20       1.0  0.0902  0.44838  0.044739999999999995  1.0000
  C   C21       1.0  0.12380999999999999  0.37759  0.12096999999999997  1.0000
  C   C22       1.0  0.5785699999999999  0.72425  0.07075999999999999  1.0000
  C   C23       1.0  0.55162  0.6418300000000002  0.04473  1.0000
  C   C24       1.0  0.6224  0.74624  0.12095999999999997  1.0000
  C   C25       1.0  0.27577000000000007  0.85436  0.07078  1.0000
  C   C26       1.0  0.35819999999999996  0.90982  0.044749999999999984  1.0000
  C   C27       1.0  0.2537899999999999  0.87621  0.12095999999999997  1.0000
  C   C28       1.0  0.8543500000000002  0.5785800000000002  0.57077  1.0000
  C   C29       1.0  0.9098  0.55162  0.5447399999999999  1.0000
  C   C30       1.0  0.87619  0.62241  0.62097  1.0000
  C   C31       1.0  0.4214299999999999  0.27575  0.57076  1.0000
  C   C32       1.0  0.44837999999999995  0.35817  0.54473  1.0000
  C   C33       1.0  0.3776  0.25376  0.6209599999999998  1.0000
  C   C34       1.0  0.7242299999999998  0.14563  0.57078  1.0000
  C   C35       1.0  0.6417999999999998  0.09018000000000002  0.5447399999999999  1.0000
  C   C36       1.0  0.74621  0.12379  0.6209599999999998  1.0000
  C   C37       1.0  0.2757499999999999  0.42143  0.07075999999999999  1.0000
  C   C38       1.0  0.35816999999999993  0.44838  0.04473  1.0000
  C   C39       1.0  0.25376  0.3776  0.12095999999999997  1.0000
  C   C40       1.0  0.14562999999999993  0.72423  0.07078  1.0000
  C   C41       1.0  0.09018000000000001  0.6418  0.044749999999999984  1.0000
  C   C42       1.0  0.12379000000000003  0.7462  0.12095999999999997  1.0000
  C   C43       1.0  0.57858  0.85434  0.07076999999999999  1.0000
  C   C44       1.0  0.5516200000000002  0.9098000000000003  0.044739999999999995  1.0000
  C   C45       1.0  0.62241  0.87619  0.12096999999999997  1.0000
  C   C46       1.0  0.7242499999999997  0.57857  0.57076  1.0000
  C   C47       1.0  0.64183  0.55162  0.54473  1.0000
  C   C48       1.0  0.74624  0.6224  0.6209599999999998  1.0000
  C   C49       1.0  0.85437  0.27577  0.57078  1.0000
  C   C50       1.0  0.9098199999999999  0.3582  0.5447399999999999  1.0000
  C   C51       1.0  0.87622  0.25379  0.6209599999999998  1.0000
  C   C52       1.0  0.4214199999999999  0.14565  0.57077  1.0000
  C   C53       1.0  0.44837999999999995  0.0902  0.5447399999999999  1.0000
  C   C54       1.0  0.37759000000000004  0.12381000000000003  0.62097  1.0000
  C   C55       1.0  0.8543500000000002  0.5785800000000002  0.9292299999999998  1.0000
  C   C56       1.0  0.9098  0.55162  0.9552599999999999  1.0000
  C   C57       1.0  0.87619  0.62241  0.8790299999999999  1.0000
  C   C58       1.0  0.4214299999999999  0.27575  0.9292399999999998  1.0000
  C   C59       1.0  0.44837999999999995  0.35817  0.9552699999999998  1.0000
  C   C60       1.0  0.3776  0.25376  0.8790399999999999  1.0000
  C   C61       1.0  0.7242299999999998  0.14563  0.92922  1.0000
  C   C62       1.0  0.6417999999999998  0.09018000000000002  0.9552599999999999  1.0000
  C   C63       1.0  0.74621  0.12379  0.8790399999999999  1.0000
  C   C64       1.0  0.14566  0.42142  0.42922999999999994  1.0000
  C   C65       1.0  0.0902  0.44838  0.45526  1.0000
  C   C66       1.0  0.12380999999999999  0.37759  0.37903  1.0000
  C   C67       1.0  0.5785699999999999  0.72425  0.42924  1.0000
  C   C68       1.0  0.55162  0.6418300000000002  0.45527  1.0000
  C   C69       1.0  0.6224  0.74624  0.37904  1.0000
  C   C70       1.0  0.27577000000000007  0.85436  0.4292199999999999  1.0000
  C   C71       1.0  0.35819999999999996  0.90982  0.45524999999999993  1.0000
  C   C72       1.0  0.2537899999999999  0.87621  0.37904  1.0000
  C   C73       1.0  0.77885  0.55769  0.9546799999999999  1.0000
  C   C74       1.0  0.8228799999999997  0.64571  0.85392  1.0000
  C   C75       1.0  0.8461599999999998  0.69228  0.8005899999999999  1.0000
  C   C76       1.0  0.8895699999999999  0.77913  0.79984  1.0000
  C   C77       1.0  0.77886  0.22115  0.9546799999999999  1.0000
  C   C78       1.0  0.82286  0.17714  0.85392  1.0000
  C   C79       1.0  0.8461399999999998  0.15386  0.8005899999999999  1.0000
  C   C80       1.0  0.88954  0.11046  0.79984  1.0000
  C   C81       1.0  0.44231  0.22115  0.9546799999999999  1.0000
  C   C82       1.0  0.35429  0.17713  0.85392  1.0000
  C   C83       1.0  0.30772  0.15384  0.8005899999999999  1.0000
  C   C84       1.0  0.22086999999999998  0.11043  0.79984  1.0000
  C   C85       1.0  0.22116  0.44231  0.45468  1.0000
  C   C86       1.0  0.17713  0.35429  0.35392  1.0000
  C   C87       1.0  0.15384  0.30772  0.30058999999999997  1.0000
  C   C88       1.0  0.11042999999999999  0.22087  0.29984999999999995  1.0000
  C   C89       1.0  0.22114999999999999  0.77885  0.45468  1.0000
  C   C90       1.0  0.17714  0.82286  0.35392  1.0000
  C   C91       1.0  0.15386000000000002  0.84614  0.30058999999999997  1.0000
  C   C92       1.0  0.1104600000000001  0.88954  0.29984999999999995  1.0000
  C   C93       1.0  0.5576899999999998  0.77884  0.45468  1.0000
  C   C94       1.0  0.6457099999999998  0.82287  0.35392  1.0000
  C   C95       1.0  0.69228  0.84616  0.30058999999999997  1.0000
  C   C96       1.0  0.77913  0.88957  0.29984999999999995  1.0000
  C   C97       1.0  0.22114999999999999  0.44231  0.04531999999999999  1.0000
  C   C98       1.0  0.17713  0.35429  0.14608  1.0000
  C   C99       1.0  0.15384  0.30772  0.19940999999999998  1.0000
  C   C100      1.0  0.11042999999999999  0.22087  0.20015  1.0000
  C   C101      1.0  0.5576899999999998  0.77884  0.04531999999999999  1.0000
  C   C102      1.0  0.6457099999999998  0.82287  0.14608  1.0000
  C   C103      1.0  0.69228  0.84616  0.19940999999999998  1.0000
  C   C104      1.0  0.77913  0.88957  0.20015  1.0000
  C   C105      1.0  0.22114999999999999  0.77885  0.04531999999999999  1.0000
  C   C106      1.0  0.17714  0.82286  0.14608  1.0000
  C   C107      1.0  0.15386000000000002  0.84614  0.19940999999999998  1.0000
  C   C108      1.0  0.1104600000000001  0.88954  0.20015  1.0000
  C   C109      1.0  0.77885  0.55769  0.54531  1.0000
  C   C110      1.0  0.8228799999999997  0.64571  0.6460799999999999  1.0000
  C   C111      1.0  0.8461599999999998  0.69228  0.69941  1.0000
  C   C112      1.0  0.8895699999999999  0.77913  0.7001499999999999  1.0000
  C   C113      1.0  0.44231  0.22115  0.54531  1.0000
  C   C114      1.0  0.35429  0.17713  0.6460799999999999  1.0000
  C   C115      1.0  0.30772  0.15384  0.69941  1.0000
  C   C116      1.0  0.22086999999999998  0.11043  0.7001499999999999  1.0000
  C   C117      1.0  0.77886  0.22115  0.5453199999999999  1.0000
  C   C118      1.0  0.82286  0.17714  0.6460799999999999  1.0000
  C   C119      1.0  0.8461399999999998  0.15386  0.69941  1.0000
  C   C120      1.0  0.88954  0.11046  0.7001499999999999  1.0000
  C   C121      1.0  0.82388  0.64773  0.7499999999999999  1.0000
  C   C122      1.0  0.91154  0.82309  0.7499999999999999  1.0000
  C   C123      1.0  0.82388  0.17612  0.7499999999999999  1.0000
  C   C124      1.0  0.91151  0.08849  0.7499999999999999  1.0000
  C   C125      1.0  0.3522699999999999  0.17612  0.7499999999999999  1.0000
  C   C126      1.0  0.17691  0.08846  0.7499999999999999  1.0000
  C   C127      1.0  0.17611999999999997  0.35226  0.24999999999999994  1.0000
  C   C128      1.0  0.08846  0.17691  0.24999999999999994  1.0000
  C   C129      1.0  0.17612  0.82388  0.24999999999999994  1.0000
  C   C130      1.0  0.0884899999999999  0.91151  0.24999999999999994  1.0000
  C   C131      1.0  0.6477399999999998  0.82388  0.24999999999999994  1.0000
  C   C132      1.0  0.8230899999999998  0.91154  0.24999999999999994  1.0000
  N   N1        1.0  0.7810399999999996  0.56208  0.7499999999999999  1.0000
  N   N2        1.0  0.78108  0.21892  0.7499999999999999  1.0000
  N   N3        1.0  0.43792  0.21896  0.7499999999999999  1.0000
  N   N4        1.0  0.21896  0.43792  0.24999999999999994  1.0000
  N   N5        1.0  0.21892000000000006  0.78107  0.24999999999999994  1.0000
  N   N6        1.0  0.56208  0.78104  0.24999999999999994  1.0000
  O   O1        1.0  0.5890799999999998  0.5616  0.9272399999999998  1.0000
  O   O2        1.0  0.62999  0.51937  0.00358  1.0000
  O   O3        1.0  0.9725799999999999  0.41099  0.9272299999999999  1.0000
  O   O4        1.0  0.8893699999999999  0.3700100000000001  0.0035499999999999998  1.0000
  O   O5        1.0  0.43839999999999996  0.02747  0.9272299999999999  1.0000
  O   O6        1.0  0.48063999999999996  0.11063  0.0035599999999999994  1.0000
  O   O7        1.0  0.4109199999999999  0.4384  0.42724  1.0000
  O   O8        1.0  0.37001  0.48063  0.50358  1.0000
  O   O9        1.0  0.027420000000000024  0.58901  0.42723  1.0000
  O   O10       1.0  0.11063999999999995  0.62999  0.50355  1.0000
  O   O11       1.0  0.5616  0.97253  0.42723  1.0000
  O   O12       1.0  0.51937  0.88937  0.50357  1.0000
  O   O13       1.0  0.027469999999999987  0.4384  0.07277  1.0000
  O   O14       1.0  0.11063000000000003  0.48063  0.99643  1.0000
  O   O15       1.0  0.5616  0.58908  0.07276  1.0000
  O   O16       1.0  0.51937  0.62998  0.99642  1.0000
  O   O17       1.0  0.41099  0.97258  0.07277  1.0000
  O   O18       1.0  0.37001  0.88936  0.9964499999999997  1.0000
  O   O19       1.0  0.9725399999999997  0.5616  0.5727699999999999  1.0000
  O   O20       1.0  0.8893699999999999  0.51936  0.49644  1.0000
  O   O21       1.0  0.43839999999999996  0.41092  0.57276  1.0000
  O   O22       1.0  0.48062999999999995  0.3700100000000001  0.4964199999999999  1.0000
  O   O23       1.0  0.58901  0.02742  0.5727699999999999  1.0000
  O   O24       1.0  0.62999  0.11063  0.49645  1.0000
  O   O25       1.0  0.4109199999999999  0.4384  0.07276  1.0000
  O   O26       1.0  0.37001  0.48063  0.99642  1.0000
  O   O27       1.0  0.027420000000000024  0.58901  0.07277  1.0000
  O   O28       1.0  0.11063999999999995  0.62999  0.9964499999999997  1.0000
  O   O29       1.0  0.5616  0.97253  0.07277  1.0000
  O   O30       1.0  0.51937  0.88937  0.99643  1.0000
  O   O31       1.0  0.5890799999999998  0.5616  0.57276  1.0000
  O   O32       1.0  0.62999  0.51937  0.4964199999999999  1.0000
  O   O33       1.0  0.9725799999999999  0.41099  0.5727699999999999  1.0000
  O   O34       1.0  0.8893699999999999  0.3700100000000001  0.49645  1.0000
  O   O35       1.0  0.43839999999999996  0.02747  0.5727699999999999  1.0000
  O   O36       1.0  0.48063999999999996  0.11063  0.49644  1.0000
  O   O37       1.0  0.9725399999999997  0.5616  0.9272299999999999  1.0000
  O   O38       1.0  0.8893699999999999  0.51936  0.0035599999999999994  1.0000
  O   O39       1.0  0.43839999999999996  0.41092  0.9272399999999998  1.0000
  O   O40       1.0  0.48062999999999995  0.3700100000000001  0.00358  1.0000
  O   O41       1.0  0.58901  0.02742  0.9272299999999999  1.0000
  O   O42       1.0  0.62999  0.11063  0.0035499999999999998  1.0000
  O   O43       1.0  0.027469999999999987  0.4384  0.42723  1.0000
  O   O44       1.0  0.11063000000000003  0.48063  0.50357  1.0000
  O   O45       1.0  0.5616  0.58908  0.42724  1.0000
  O   O46       1.0  0.51937  0.62998  0.50358  1.0000
  O   O47       1.0  0.41099  0.97258  0.42723  1.0000
  O   O48       1.0  0.37001  0.88936  0.50355  1.0000
