data_image0
_chemical_formula_structural       Cd8H72C112N8O40
_chemical_formula_sum              "Cd8 H72 C112 N8 O40"
_cell_length_a       10.07059
_cell_length_b       16.85941
_cell_length_c       18.078179999999996
_cell_angle_alpha    106.63715
_cell_angle_beta     106.24223999999998
_cell_angle_gamma    90.10605

_space_group_name_H-M_alt    "P 1"
_space_group_IT_number       1

loop_
  _space_group_symop_operation_xyz
  'x, y, z'

loop_
  _atom_site_type_symbol
  _atom_site_label
  _atom_site_symmetry_multiplicity
  _atom_site_fract_x
  _atom_site_fract_y
  _atom_site_fract_z
  _atom_site_occupancy
  Cd  Cd1       1.0  0.00027999999999999347  0.12151000000000003  0.57958  1.0000
  Cd  Cd2       1.0  0.13456  0.22412  0.30896  1.0000
  Cd  Cd3       1.0  0.42152  0.37864  0.4229600000000001  1.0000
  Cd  Cd4       1.0  0.8249099999999999  0.2764200000000001  0.69153  1.0000
  Cd  Cd5       1.0  0.9997199999999999  0.87849  0.42041  1.0000
  Cd  Cd6       1.0  0.8654399999999999  0.7758800000000001  0.69104  1.0000
  Cd  Cd7       1.0  0.5784799999999999  0.6213600000000001  0.57704  1.0000
  Cd  Cd8       1.0  0.17509  0.72358  0.30847  1.0000
  H   H1        1.0  0.29269000000000006  0.15377000000000005  0.7683100000000003  1.0000
  H   H2        1.0  0.21457  0.13639  0.02346000000000001  1.0000
  H   H3        1.0  0.03045000000000015  0.17989000000000008  0.9225500000000002  1.0000
  H   H4        1.0  0.61984  0.17891000000000004  0.82957  1.0000
  H   H5        1.0  0.4723300000000002  0.11463000000000009  0.7568000000000003  1.0000
  H   H6        1.0  0.8358699999999999  0.11717000000000001  0.80247  1.0000
  H   H7        1.0  0.95866  0.98999  0.76547  1.0000
  H   H8        1.0  0.61524  0.8356100000000001  0.73561  1.0000
  H   H9        1.0  0.47666  0.95654  0.76979  1.0000
  H   H10       1.0  0.41875  0.08210000000000003  0.10457  1.0000
  H   H11       1.0  0.42381  0.18831000000000006  0.10556  1.0000
  H   H12       1.0  0.57626  0.2099  0.25591  1.0000
  H   H13       1.0  0.82271  0.23022000000000004  0.3391000000000001  1.0000
  H   H14       1.0  0.9560200000000002  0.11791  0.13986  1.0000
  H   H15       1.0  0.71196  0.08890000000000003  0.04767  1.0000
  H   H16       1.0  0.44379999999999986  0.10363  0.61023  1.0000
  H   H17       1.0  0.7359999999999999  0.9207400000000001  0.5801800000000003  1.0000
  H   H18       1.0  0.31292999999999993  0.8444500000000003  0.55444  1.0000
  H   H19       1.0  0.52484  0.3466500000000001  0.23251000000000005  1.0000
  H   H20       1.0  0.19201  0.36375  0.97685  1.0000
  H   H21       1.0  0.10803999999999998  0.3204  0.07753  1.0000
  H   H22       1.0  0.79101  0.32076  0.17144  1.0000
  H   H23       1.0  0.71674  0.3851300000000001  0.24406000000000003  1.0000
  H   H24       1.0  0.03434  0.38291  0.19814  1.0000
  H   H25       1.0  0.19435999999999998  0.51058  0.23466  1.0000
  H   H26       1.0  0.8808899999999998  0.66395  0.2643  1.0000
  H   H27       1.0  0.70793  0.5427  0.23043  1.0000
  H   H28       1.0  0.3157500000000001  0.41854000000000025  0.8963700000000002  1.0000
  H   H29       1.0  0.31845000000000007  0.3121900000000001  0.8948600000000002  1.0000
  H   H30       1.0  0.31988000000000005  0.29047000000000006  0.7450700000000002  1.0000
  H   H31       1.0  0.48245  0.26984  0.66155  1.0000
  H   H32       1.0  0.8170299999999999  0.3821000000000001  0.86062  1.0000
  H   H33       1.0  0.66596  0.41130000000000005  0.9529600000000003  1.0000
  H   H34       1.0  0.83441  0.3969100000000001  0.3894100000000001  1.0000
  H   H35       1.0  0.15778999999999996  0.58086  0.42154  1.0000
  H   H36       1.0  0.7596599999999998  0.65585  0.44591  1.0000
  H   H37       1.0  0.7073199999999998  0.8462300000000005  0.23169  1.0000
  H   H38       1.0  0.78544  0.86361  0.9765400000000001  1.0000
  H   H39       1.0  0.96955  0.8201100000000002  0.07744  1.0000
  H   H40       1.0  0.38017  0.82109  0.17043  1.0000
  H   H41       1.0  0.52768  0.8853699999999999  0.24319  1.0000
  H   H42       1.0  0.16414  0.88284  0.19753  1.0000
  H   H43       1.0  0.04133999999999998  0.010010000000000005  0.23453  1.0000
  H   H44       1.0  0.38476000000000005  0.16439000000000006  0.2643900000000001  1.0000
  H   H45       1.0  0.5233399999999999  0.043460000000000006  0.23021000000000005  1.0000
  H   H46       1.0  0.58125  0.9179100000000003  0.8954300000000002  1.0000
  H   H47       1.0  0.5761999999999999  0.8116900000000005  0.8944400000000002  1.0000
  H   H48       1.0  0.4237400000000001  0.7901000000000001  0.7440800000000002  1.0000
  H   H49       1.0  0.17729000000000011  0.7697800000000004  0.6609000000000003  1.0000
  H   H50       1.0  0.04398000000000002  0.8820899999999999  0.86013  1.0000
  H   H51       1.0  0.28804  0.9111  0.95233  1.0000
  H   H52       1.0  0.5562000000000001  0.89637  0.3897700000000001  1.0000
  H   H53       1.0  0.264  0.07927  0.41982  1.0000
  H   H54       1.0  0.68707  0.15555  0.44556  1.0000
  H   H55       1.0  0.47517  0.6533500000000002  0.76748  1.0000
  H   H56       1.0  0.8079999999999999  0.63625  0.02315  1.0000
  H   H57       1.0  0.89196  0.6796  0.92246  1.0000
  H   H58       1.0  0.20899  0.67924  0.82856  1.0000
  H   H59       1.0  0.28326  0.6148700000000002  0.75593  1.0000
  H   H60       1.0  0.96566  0.61709  0.80186  1.0000
  H   H61       1.0  0.8056400000000001  0.48942  0.7653400000000002  1.0000
  H   H62       1.0  0.11911  0.3360500000000001  0.7357  1.0000
  H   H63       1.0  0.29207  0.4573000000000001  0.76956  1.0000
  H   H64       1.0  0.68425  0.58146  0.10362  1.0000
  H   H65       1.0  0.68155  0.68781  0.10514000000000003  1.0000
  H   H66       1.0  0.68012  0.7095300000000002  0.25492  1.0000
  H   H67       1.0  0.51755  0.73017  0.33845  1.0000
  H   H68       1.0  0.18297  0.6179000000000002  0.13937  1.0000
  H   H69       1.0  0.33404  0.5887  0.04704  1.0000
  H   H70       1.0  0.16559000000000007  0.6030900000000001  0.6105900000000002  1.0000
  H   H71       1.0  0.84221  0.4191400000000001  0.57846  1.0000
  H   H72       1.0  0.24034  0.34415  0.55409  1.0000
  C   C1        1.0  0.04771999999999999  0.20538  0.78447  1.0000
  C   C2        1.0  0.15203000000000003  0.17032  0.84035  1.0000
  C   C3        1.0  0.27953  0.14994000000000007  0.8249000000000002  1.0000
  C   C4        1.0  0.38443000000000005  0.12743000000000004  0.88177  1.0000
  C   C5        1.0  0.3614300000000001  0.12385000000000011  0.9548900000000002  1.0000
  C   C6        1.0  0.23254999999999987  0.13975000000000004  0.9678899999999999  1.0000
  C   C7        1.0  0.12877000000000016  0.1637800000000001  0.9111300000000002  1.0000
  C   C8        1.0  0.56022  0.11819000000000003  0.8102300000000002  1.0000
  C   C9        1.0  0.6461  0.046770000000000055  0.78994  1.0000
  C   C10       1.0  0.7834599999999999  0.055889999999999995  0.78928  1.0000
  C   C11       1.0  0.85255  0.9848900000000002  0.76839  1.0000
  C   C12       1.0  0.6597299999999999  0.89924  0.7517  1.0000
  C   C13       1.0  0.5840100000000001  0.96645  0.7708600000000002  1.0000
  C   C14       1.0  0.47491  0.13048  0.09194  1.0000
  C   C15       1.0  0.6233599999999999  0.14492  0.14429000000000006  1.0000
  C   C16       1.0  0.65592  0.18567000000000003  0.22742000000000007  1.0000
  C   C17       1.0  0.79407  0.19811  0.2746000000000001  1.0000
  C   C18       1.0  0.86801  0.13501  0.16312  1.0000
  C   C19       1.0  0.7326799999999998  0.11918000000000001  0.11203000000000003  1.0000
  C   C20       1.0  0.21938  0.0017899999999999958  0.58231  1.0000
  C   C21       1.0  0.36218  0.97676  0.58237  1.0000
  C   C22       1.0  0.46745999999999993  0.03923  0.59811  1.0000
  C   C23       1.0  0.6014699999999998  0.01960999999999999  0.59679  1.0000
  C   C24       1.0  0.63174  0.9364400000000002  0.58106  1.0000
  C   C25       1.0  0.52907  0.87384  0.5684  1.0000
  C   C26       1.0  0.39311000000000007  0.8939000000000002  0.5669700000000002  1.0000
  C   C27       1.0  0.7115199999999999  0.08811000000000008  0.6143100000000002  1.0000
  C   C28       1.0  0.56574  0.7869300000000002  0.5642400000000002  1.0000
  C   C29       1.0  0.2629  0.29573000000000005  0.21631  1.0000
  C   C30       1.0  0.31182000000000004  0.33018  0.16018000000000004  1.0000
  C   C31       1.0  0.45509999999999995  0.35039000000000003  0.17581000000000005  1.0000
  C   C32       1.0  0.5036099999999999  0.37254000000000004  0.11896000000000002  1.0000
  C   C33       1.0  0.40765  0.37616  0.04569  1.0000
  C   C34       1.0  0.26552  0.36035  0.032480000000000016  1.0000
  C   C35       1.0  0.21801  0.33650000000000013  0.08915  1.0000
  C   C36       1.0  0.75119  0.38147  0.19071000000000005  1.0000
  C   C37       1.0  0.8575099999999999  0.45295000000000013  0.21081000000000005  1.0000
  C   C38       1.0  0.9953899999999999  0.44409000000000004  0.21129000000000003  1.0000
  C   C39       1.0  0.08535  0.5152600000000003  0.23186000000000007  1.0000
  C   C40       1.0  0.9091  0.60042  0.24846000000000001  1.0000
  C   C41       1.0  0.81427  0.53305  0.22952  1.0000
  C   C42       1.0  0.38399000000000005  0.3699400000000001  0.90876  1.0000
  C   C43       1.0  0.47977  0.35549  0.8564  1.0000
  C   C44       1.0  0.4283799999999999  0.31469  0.7733  1.0000
  C   C45       1.0  0.5189199999999999  0.30206  0.72603  1.0000
  C   C46       1.0  0.7054799999999999  0.3651  0.83742  1.0000
  C   C47       1.0  0.62173  0.38109000000000004  0.8886000000000002  1.0000
  C   C48       1.0  0.63766  0.49851  0.4177300000000001  1.0000
  C   C49       1.0  0.78053  0.52359  0.41745  1.0000
  C   C50       1.0  0.87014  0.4614500000000002  0.40173  1.0000
  C   C51       1.0  0.005810000000000046  0.48149000000000003  0.40362  1.0000
  C   C52       1.0  0.05230000000000004  0.56482  0.4201100000000001  1.0000
  C   C53       1.0  0.9623499999999999  0.6271800000000001  0.4327700000000001  1.0000
  C   C54       1.0  0.8273099999999999  0.60667  0.43334  1.0000
  C   C55       1.0  0.09923  0.4136700000000001  0.38655  1.0000
  C   C56       1.0  0.004279999999999996  0.7141800000000003  0.43724  1.0000
  C   C57       1.0  0.95229  0.79462  0.21552  1.0000
  C   C58       1.0  0.8479799999999998  0.82968  0.15964  1.0000
  C   C59       1.0  0.7204699999999999  0.85006  0.1751  1.0000
  C   C60       1.0  0.61557  0.8725700000000002  0.11823000000000003  1.0000
  C   C61       1.0  0.63857  0.8761500000000002  0.04511  1.0000
  C   C62       1.0  0.76745  0.8602500000000002  0.03210000000000001  1.0000
  C   C63       1.0  0.87123  0.8362200000000002  0.08887  1.0000
  C   C64       1.0  0.43977999999999995  0.88181  0.18977  1.0000
  C   C65       1.0  0.3539  0.95323  0.21006  1.0000
  C   C66       1.0  0.21654  0.94411  0.21072  1.0000
  C   C67       1.0  0.14745  0.015109999999999991  0.23161  1.0000
  C   C68       1.0  0.34026999999999996  0.10076000000000002  0.24830000000000002  1.0000
  C   C69       1.0  0.41599  0.033550000000000024  0.22914000000000007  1.0000
  C   C70       1.0  0.5251  0.8695200000000002  0.90805  1.0000
  C   C71       1.0  0.3766500000000001  0.85508  0.8557  1.0000
  C   C72       1.0  0.34408  0.81434  0.77257  1.0000
  C   C73       1.0  0.20594000000000012  0.8019  0.7254000000000003  1.0000
  C   C74       1.0  0.13199999999999995  0.86499  0.83688  1.0000
  C   C75       1.0  0.26732  0.8808200000000004  0.88797  1.0000
  C   C76       1.0  0.7806100000000001  0.99821  0.41769  1.0000
  C   C77       1.0  0.6378199999999999  0.02325000000000002  0.4176300000000001  1.0000
  C   C78       1.0  0.53254  0.9607700000000001  0.40189  1.0000
  C   C79       1.0  0.39854  0.98039  0.40321  1.0000
  C   C80       1.0  0.36826  0.06356  0.41894  1.0000
  C   C81       1.0  0.4709299999999999  0.12616  0.4316  1.0000
  C   C82       1.0  0.60688  0.10610000000000004  0.43303000000000014  1.0000
  C   C83       1.0  0.28848  0.9118900000000002  0.3856900000000001  1.0000
  C   C84       1.0  0.43426  0.2130700000000001  0.4357600000000001  1.0000
  C   C85       1.0  0.7371  0.7042700000000003  0.7836900000000002  1.0000
  C   C86       1.0  0.68819  0.66982  0.83982  1.0000
  C   C87       1.0  0.5449  0.6496100000000002  0.8241800000000002  1.0000
  C   C88       1.0  0.49639  0.62746  0.88104  1.0000
  C   C89       1.0  0.59235  0.62384  0.9543  1.0000
  C   C90       1.0  0.7344899999999999  0.6396500000000003  0.9675200000000002  1.0000
  C   C91       1.0  0.7819899999999997  0.66351  0.9108400000000001  1.0000
  C   C92       1.0  0.24882000000000015  0.6185300000000001  0.8092900000000002  1.0000
  C   C93       1.0  0.14249999999999993  0.54705  0.78918  1.0000
  C   C94       1.0  0.004619999999999988  0.55591  0.78871  1.0000
  C   C95       1.0  0.91466  0.48474000000000006  0.76814  1.0000
  C   C96       1.0  0.09089999999999997  0.39958  0.75154  1.0000
  C   C97       1.0  0.1857400000000001  0.46695  0.7704800000000003  1.0000
  C   C98       1.0  0.61601  0.6300600000000002  0.09124  1.0000
  C   C99       1.0  0.52024  0.64451  0.1436  1.0000
  C   C100      1.0  0.57162  0.68531  0.22670000000000007  1.0000
  C   C101      1.0  0.48109  0.69794  0.27397  1.0000
  C   C102      1.0  0.29452  0.6349  0.16258  1.0000
  C   C103      1.0  0.37827000000000005  0.61891  0.1114  1.0000
  C   C104      1.0  0.36233999999999994  0.50149  0.58227  1.0000
  C   C105      1.0  0.21946999999999994  0.4764100000000001  0.58255  1.0000
  C   C106      1.0  0.12986999999999996  0.5385500000000002  0.59826  1.0000
  C   C107      1.0  0.9941899999999998  0.51851  0.59637  1.0000
  C   C108      1.0  0.9477  0.43518000000000007  0.57988  1.0000
  C   C109      1.0  0.03766  0.37282  0.56723  1.0000
  C   C110      1.0  0.17269  0.39334  0.56666  1.0000
  C   C111      1.0  0.9007699999999998  0.5863200000000002  0.61344  1.0000
  C   C112      1.0  0.99572  0.28582  0.56276  1.0000
  N   N1        1.0  0.8992999999999999  0.17332000000000006  0.24317000000000003  1.0000
  N   N2        1.0  0.7925099999999999  0.90742  0.75022  1.0000
  N   N3        1.0  0.65593  0.3267500000000001  0.75739  1.0000
  N   N4        1.0  0.04331999999999998  0.5925000000000001  0.24991  1.0000
  N   N5        1.0  0.10069999999999998  0.82668  0.75683  1.0000
  N   N6        1.0  0.2075  0.09258000000000002  0.24978  1.0000
  N   N7        1.0  0.34407  0.67325  0.2426  1.0000
  N   N8        1.0  0.9566799999999999  0.4075000000000001  0.75009  1.0000
  O   O1        1.0  0.07356000000000001  0.21331  0.72134  1.0000
  O   O2        1.0  0.93851  0.23024  0.80365  1.0000
  O   O3        1.0  0.51398  0.10782000000000001  0.87613  1.0000
  O   O4        1.0  0.47272  0.10485  0.00865  1.0000
  O   O5        1.0  0.21280000000000013  0.07949000000000009  0.6146500000000003  1.0000
  O   O6        1.0  0.11423  0.9484600000000002  0.55244  1.0000
  O   O7        1.0  0.6744099999999998  0.16211000000000006  0.6297800000000002  1.0000
  O   O8        1.0  0.83302  0.06707  0.61457  1.0000
  O   O9        1.0  0.6928599999999998  0.7699600000000001  0.5737600000000002  1.0000
  O   O10       1.0  0.46801  0.73348  0.55451  1.0000
  O   O11       1.0  0.35186999999999996  0.28935  0.28023  1.0000
  O   O12       1.0  0.13441000000000003  0.26999000000000006  0.19657000000000005  1.0000
  O   O13       1.0  0.63914  0.39192  0.12481  1.0000
  O   O14       1.0  0.4656399999999999  0.39508000000000004  0.9920900000000001  1.0000
  O   O15       1.0  0.60014  0.4204100000000001  0.38881  1.0000
  O   O16       1.0  0.5610600000000001  0.55245  0.44479000000000013  1.0000
  O   O17       1.0  0.04698999999999996  0.33924  0.36962  1.0000
  O   O18       1.0  0.22135000000000002  0.4360800000000001  0.3885400000000001  1.0000
  O   O19       1.0  0.12060999999999997  0.7301600000000001  0.42588000000000004  1.0000
  O   O20       1.0  0.91875  0.7686100000000001  0.4487500000000001  1.0000
  O   O21       1.0  0.92645  0.78669  0.27866  1.0000
  O   O22       1.0  0.061499999999999985  0.7697600000000002  0.19635  1.0000
  O   O23       1.0  0.48601999999999995  0.89218  0.12387  1.0000
  O   O24       1.0  0.52729  0.89516  0.99134  1.0000
  O   O25       1.0  0.78721  0.9205100000000002  0.38535  1.0000
  O   O26       1.0  0.88578  0.05154000000000004  0.4475500000000001  1.0000
  O   O27       1.0  0.32559  0.83789  0.3702200000000001  1.0000
  O   O28       1.0  0.16698  0.9329300000000003  0.3854300000000001  1.0000
  O   O29       1.0  0.30714  0.23005000000000003  0.42623  1.0000
  O   O30       1.0  0.5319899999999999  0.26652  0.44549  1.0000
  O   O31       1.0  0.64814  0.7106600000000001  0.71977  1.0000
  O   O32       1.0  0.8656  0.7300100000000002  0.8034300000000001  1.0000
  O   O33       1.0  0.36085999999999996  0.60808  0.87519  1.0000
  O   O34       1.0  0.5343599999999998  0.60492  0.007910000000000004  1.0000
  O   O35       1.0  0.39987  0.5795900000000002  0.61118  1.0000
  O   O36       1.0  0.43895  0.4475400000000002  0.5552  1.0000
  O   O37       1.0  0.9530099999999999  0.66077  0.63037  1.0000
  O   O38       1.0  0.7786499999999998  0.5639300000000003  0.61146  1.0000
  O   O39       1.0  0.8793999999999997  0.26985  0.57412  1.0000
  O   O40       1.0  0.08126  0.23139000000000007  0.55125  1.0000
