data_image0
_chemical_formula_structural       Cu28H84C156I16N12O48
_chemical_formula_sum              "Cu28 H84 C156 I16 N12 O48"
_cell_length_a       19.28813
_cell_length_b       28.20187
_cell_length_c       28.20192
_cell_angle_alpha    120.1758
_cell_angle_beta     90.0
_cell_angle_gamma    90.0

_symmetry_space_group_name_H-M    'P 1'
_symmetry_Int_Tables_number       1

loop_
  _symmetry_equiv_pos_as_xyz
  'x,y,z'

loop_
  _atom_site_type_symbol
  _atom_site_label
  _atom_site_symmetry_multiplicity
  _atom_site_fract_x
  _atom_site_fract_y
  _atom_site_fract_z
  _atom_site_occupancy
  Cu  Cu1       1.0  0.49807  0.7097100000000002  0.39302  1.0000
  Cu  Cu2       1.0  0.49829  0.6833400000000002  0.29026  1.0000
  Cu  Cu3       1.0  0.49842  0.6069000000000002  0.31664  1.0000
  Cu  Cu4       1.0  0.99807  0.2902900000000001  0.60698  1.0000
  Cu  Cu5       1.0  0.99829  0.31666000000000016  0.7097400000000001  1.0000
  Cu  Cu6       1.0  0.99841  0.3931100000000001  0.68336  1.0000
  Cu  Cu7       1.0  0.50193  0.2902900000000001  0.60698  1.0000
  Cu  Cu8       1.0  0.50171  0.31666000000000016  0.7097400000000001  1.0000
  Cu  Cu9       1.0  0.50159  0.3931100000000001  0.68336  1.0000
  Cu  Cu10      1.0  0.00193  0.7097100000000002  0.39302  1.0000
  Cu  Cu11      1.0  0.0017100000000000001  0.6833400000000002  0.29026  1.0000
  Cu  Cu12      1.0  0.00159  0.6069000000000002  0.31664  1.0000
  Cu  Cu13      1.0  0.60459  0.6667000000000002  0.3333  1.0000
  Cu  Cu14      1.0  0.10459  0.3333  0.6667  1.0000
  Cu  Cu15      1.0  0.39541999999999994  0.3333  0.6667  1.0000
  Cu  Cu16      1.0  0.89542  0.6667000000000002  0.3333  1.0000
  Cu  Cu17      1.0  0.25  0.7590600000000002  0.65206  1.0000
  Cu  Cu18      1.0  0.25  0.67349  0.56332  1.0000
  Cu  Cu19      1.0  0.25  0.8926400000000001  0.24083  1.0000
  Cu  Cu20      1.0  0.25  0.8898200000000003  0.32639  1.0000
  Cu  Cu21      1.0  0.25  0.3478899999999999  0.10696  1.0000
  Cu  Cu22      1.0  0.25  0.4367200000000001  0.11065  1.0000
  Cu  Cu23      1.0  0.75  0.2409400000000001  0.34794000000000014  1.0000
  Cu  Cu24      1.0  0.75  0.32651  0.43668000000000007  1.0000
  Cu  Cu25      1.0  0.75  0.10736000000000002  0.75917  1.0000
  Cu  Cu26      1.0  0.75  0.11018000000000004  0.67361  1.0000
  Cu  Cu27      1.0  0.75  0.6521100000000002  0.89304  1.0000
  Cu  Cu28      1.0  0.75  0.5632800000000002  0.88935  1.0000
  H   H1        1.0  0.39214  0.70368  0.46718000000000004  1.0000
  H   H2        1.0  0.42103  0.8477200000000003  0.62576  1.0000
  H   H3        1.0  0.54688  0.81321  0.48477  1.0000
  H   H4        1.0  0.53244  0.8871900000000003  0.6671200000000002  1.0000
  H   H5        1.0  0.60416  0.9719000000000002  0.7172500000000002  1.0000
  H   H6        1.0  0.60794  0.9885500000000003  0.5742  1.0000
  H   H7        1.0  0.53483  0.90519  0.52405  1.0000
  H   H8        1.0  0.39232999999999996  0.7633800000000002  0.29609  1.0000
  H   H9        1.0  0.42137  0.7778100000000002  0.15247  1.0000
  H   H10       1.0  0.54746  0.6714000000000002  0.18666000000000002  1.0000
  H   H11       1.0  0.53238  0.7799000000000003  0.11325  1.0000
  H   H12       1.0  0.60394  0.74534  0.028500000000000004  1.0000
  H   H13       1.0  0.60833  0.5852  0.011010000000000002  1.0000
  H   H14       1.0  0.53544  0.61843  0.09445000000000002  1.0000
  H   H15       1.0  0.39265  0.53242  0.2367  1.0000
  H   H16       1.0  0.42131  0.37419  0.22211  1.0000
  H   H17       1.0  0.54752  0.5152600000000002  0.32871000000000006  1.0000
  H   H18       1.0  0.5326  0.3328  0.21999000000000005  1.0000
  H   H19       1.0  0.60415  0.28275  0.25448  1.0000
  H   H20       1.0  0.60821  0.42608  0.41475  1.0000
  H   H21       1.0  0.53533  0.4761700000000001  0.3816  1.0000
  H   H22       1.0  0.89215  0.2963200000000001  0.53282  1.0000
  H   H23       1.0  0.92103  0.15229  0.37424  1.0000
  H   H24       1.0  0.04688  0.18679000000000007  0.51523  1.0000
  H   H25       1.0  0.03244  0.11281000000000002  0.33288000000000006  1.0000
  H   H26       1.0  0.10415999999999999  0.028110000000000024  0.28275  1.0000
  H   H27       1.0  0.10793  0.011449999999999995  0.4258  1.0000
  H   H28       1.0  0.03482  0.09480999999999999  0.47595  1.0000
  H   H29       1.0  0.8923299999999998  0.23662000000000005  0.70391  1.0000
  H   H30       1.0  0.9213800000000001  0.22218999999999997  0.84753  1.0000
  H   H31       1.0  0.04745  0.3286  0.8133400000000001  1.0000
  H   H32       1.0  0.03237  0.22011000000000022  0.8867500000000003  1.0000
  H   H33       1.0  0.10393999999999999  0.25466  0.9715  1.0000
  H   H34       1.0  0.10833  0.4148100000000001  0.98899  1.0000
  H   H35       1.0  0.03544  0.38157  0.90555  1.0000
  H   H36       1.0  0.8926599999999999  0.4675900000000001  0.7633  1.0000
  H   H37       1.0  0.9213199999999999  0.62582  0.77789  1.0000
  H   H38       1.0  0.04752  0.48474000000000017  0.6712900000000002  1.0000
  H   H39       1.0  0.0326  0.6672000000000002  0.78001  1.0000
  H   H40       1.0  0.10413999999999998  0.7172500000000003  0.7455200000000001  1.0000
  H   H41       1.0  0.10820999999999999  0.57393  0.58525  1.0000
  H   H42       1.0  0.03533  0.5238300000000002  0.61839  1.0000
  H   H43       1.0  0.60786  0.2963200000000001  0.53282  1.0000
  H   H44       1.0  0.57897  0.15229  0.37424  1.0000
  H   H45       1.0  0.45311999999999997  0.18679000000000007  0.51523  1.0000
  H   H46       1.0  0.46757  0.11281000000000002  0.33288000000000006  1.0000
  H   H47       1.0  0.39584  0.028110000000000024  0.28275  1.0000
  H   H48       1.0  0.39207  0.011449999999999995  0.4258  1.0000
  H   H49       1.0  0.46518  0.09480999999999999  0.47595  1.0000
  H   H50       1.0  0.60767  0.23662000000000005  0.70391  1.0000
  H   H51       1.0  0.57863  0.22218999999999997  0.84753  1.0000
  H   H52       1.0  0.45254999999999995  0.3286  0.8133400000000001  1.0000
  H   H53       1.0  0.46763  0.22011000000000022  0.8867500000000003  1.0000
  H   H54       1.0  0.39606  0.25466  0.9715  1.0000
  H   H55       1.0  0.39166999999999996  0.4148100000000001  0.98899  1.0000
  H   H56       1.0  0.4645599999999999  0.38157  0.90555  1.0000
  H   H57       1.0  0.60735  0.4675900000000001  0.7633  1.0000
  H   H58       1.0  0.57869  0.62582  0.77789  1.0000
  H   H59       1.0  0.45247999999999994  0.48474000000000017  0.6712900000000002  1.0000
  H   H60       1.0  0.46740000000000004  0.6672000000000002  0.78001  1.0000
  H   H61       1.0  0.39586  0.7172500000000003  0.7455200000000001  1.0000
  H   H62       1.0  0.39179  0.57393  0.58525  1.0000
  H   H63       1.0  0.46467  0.5238300000000002  0.61839  1.0000
  H   H64       1.0  0.10785999999999998  0.70368  0.46718000000000004  1.0000
  H   H65       1.0  0.07897  0.8477200000000003  0.62576  1.0000
  H   H66       1.0  0.95312  0.81321  0.48477  1.0000
  H   H67       1.0  0.96757  0.8871900000000003  0.6671200000000002  1.0000
  H   H68       1.0  0.89584  0.9719000000000002  0.7172500000000002  1.0000
  H   H69       1.0  0.89207  0.9885500000000003  0.5742  1.0000
  H   H70       1.0  0.96518  0.90519  0.52405  1.0000
  H   H71       1.0  0.10767  0.7633800000000002  0.29609  1.0000
  H   H72       1.0  0.07863  0.7778100000000002  0.15247  1.0000
  H   H73       1.0  0.95255  0.6714000000000002  0.18666000000000002  1.0000
  H   H74       1.0  0.96763  0.7799000000000003  0.11325  1.0000
  H   H75       1.0  0.89607  0.74534  0.028500000000000004  1.0000
  H   H76       1.0  0.8916700000000001  0.5852  0.011010000000000002  1.0000
  H   H77       1.0  0.96456  0.61843  0.09445000000000002  1.0000
  H   H78       1.0  0.10735  0.53242  0.2367  1.0000
  H   H79       1.0  0.07869  0.37419  0.22211  1.0000
  H   H80       1.0  0.9524899999999998  0.5152600000000002  0.32871000000000006  1.0000
  H   H81       1.0  0.9674000000000001  0.3328  0.21999000000000005  1.0000
  H   H82       1.0  0.89586  0.28275  0.25448  1.0000
  H   H83       1.0  0.89179  0.42608  0.41475  1.0000
  H   H84       1.0  0.9646700000000001  0.4761700000000001  0.3816  1.0000
  C   C1        1.0  0.41934000000000005  0.74166  0.49418  1.0000
  C   C2        1.0  0.40114  0.7732300000000001  0.5495900000000001  1.0000
  C   C3        1.0  0.43616  0.82243  0.58294  1.0000
  C   C4        1.0  0.48933999999999994  0.8385900000000002  0.56019  1.0000
  C   C5        1.0  0.50483  0.80378  0.50449  1.0000
  C   C6        1.0  0.34448  0.75325  0.5713800000000001  1.0000
  C   C7        1.0  0.52915  0.8898900000000003  0.59182  1.0000
  C   C8        1.0  0.5479  0.90972  0.64688  1.0000
  C   C9        1.0  0.58835  0.9568799999999998  0.67504  1.0000
  C   C10       1.0  0.61076  0.9849900000000001  0.64859  1.0000
  C   C11       1.0  0.59083  0.96614  0.5941  1.0000
  C   C12       1.0  0.55046  0.9192000000000002  0.56613  1.0000
  C   C13       1.0  0.65827  0.03309  0.67622  1.0000
  C   C14       1.0  0.4196599999999999  0.7523700000000002  0.25821  1.0000
  C   C15       1.0  0.40141  0.7761400000000003  0.22675000000000003  1.0000
  C   C16       1.0  0.4365  0.7603  0.17765000000000006  1.0000
  C   C17       1.0  0.48977999999999994  0.7213700000000001  0.16144000000000003  1.0000
  C   C18       1.0  0.50532  0.70055  0.19615  1.0000
  C   C19       1.0  0.34452  0.8178000000000003  0.24669000000000002  1.0000
  C   C20       1.0  0.5295  0.70169  0.11015  1.0000
  C   C21       1.0  0.54798  0.7370300000000002  0.09053  1.0000
  C   C22       1.0  0.58832  0.7180700000000002  0.043370000000000006  1.0000
  C   C23       1.0  0.61086  0.66338  0.015  1.0000
  C   C24       1.0  0.59116  0.62761  0.03362  1.0000
  C   C25       1.0  0.55092  0.6465600000000002  0.08059  1.0000
  C   C26       1.0  0.65829  0.6430400000000002  0.9669  1.0000
  C   C27       1.0  0.41986000000000007  0.50554  0.24768000000000004  1.0000
  C   C28       1.0  0.4015  0.45018  0.22382  1.0000
  C   C29       1.0  0.43651000000000006  0.41696  0.23966  1.0000
  C   C30       1.0  0.48978999999999995  0.43983  0.27863  1.0000
  C   C31       1.0  0.5054  0.49547000000000024  0.29953  1.0000
  C   C32       1.0  0.34462  0.42841000000000007  0.18211  1.0000
  C   C33       1.0  0.52951  0.4082600000000001  0.29826  1.0000
  C   C34       1.0  0.54811  0.35314000000000006  0.26287  1.0000
  C   C35       1.0  0.58846  0.32501  0.28181  1.0000
  C   C36       1.0  0.61091  0.3515600000000001  0.33652  1.0000
  C   C37       1.0  0.59111  0.4061100000000001  0.37233  1.0000
  C   C38       1.0  0.55086  0.43405  0.35341  1.0000
  C   C39       1.0  0.65831  0.32392000000000004  0.35692  1.0000
  C   C40       1.0  0.91934  0.25834000000000007  0.50582  1.0000
  C   C41       1.0  0.90115  0.22677000000000005  0.4504000000000001  1.0000
  C   C42       1.0  0.93616  0.17758000000000004  0.41706  1.0000
  C   C43       1.0  0.98934  0.16141  0.43981  1.0000
  C   C44       1.0  0.00483  0.19623000000000004  0.49551  1.0000
  C   C45       1.0  0.84448  0.24675000000000002  0.42862  1.0000
  C   C46       1.0  0.029149999999999995  0.11011000000000001  0.40818000000000004  1.0000
  C   C47       1.0  0.0479  0.09028000000000008  0.35312000000000004  1.0000
  C   C48       1.0  0.08835  0.04313000000000001  0.32496  1.0000
  C   C49       1.0  0.11075999999999998  0.01501000000000004  0.35141000000000006  1.0000
  C   C50       1.0  0.09083  0.03386000000000004  0.4059  1.0000
  C   C51       1.0  0.05046  0.08080000000000005  0.43387000000000003  1.0000
  C   C52       1.0  0.15827  0.9669200000000002  0.32378  1.0000
  C   C53       1.0  0.9196599999999999  0.24764000000000005  0.74179  1.0000
  C   C54       1.0  0.90141  0.22386000000000006  0.77325  1.0000
  C   C55       1.0  0.9364999999999999  0.23970000000000014  0.8223400000000001  1.0000
  C   C56       1.0  0.98978  0.27863  0.83856  1.0000
  C   C57       1.0  0.00532  0.2994500000000002  0.8038500000000001  1.0000
  C   C58       1.0  0.84452  0.18221000000000012  0.75331  1.0000
  C   C59       1.0  0.0295  0.29831000000000013  0.8898500000000003  1.0000
  C   C60       1.0  0.04797  0.26297  0.90947  1.0000
  C   C61       1.0  0.08832  0.28193000000000007  0.95663  1.0000
  C   C62       1.0  0.11086  0.33663000000000004  0.9850000000000001  1.0000
  C   C63       1.0  0.09116  0.3723900000000002  0.9663800000000002  1.0000
  C   C64       1.0  0.05092  0.35344  0.91941  1.0000
  C   C65       1.0  0.15829  0.3569600000000001  0.0331  1.0000
  C   C66       1.0  0.91986  0.49447  0.75232  1.0000
  C   C67       1.0  0.9014999999999999  0.5498200000000001  0.7761700000000001  1.0000
  C   C68       1.0  0.9365100000000001  0.5830400000000001  0.76034  1.0000
  C   C69       1.0  0.98979  0.5601800000000002  0.72137  1.0000
  C   C70       1.0  0.0054  0.5045300000000003  0.7004700000000001  1.0000
  C   C71       1.0  0.84463  0.57159  0.81789  1.0000
  C   C72       1.0  0.02951  0.59174  0.70174  1.0000
  C   C73       1.0  0.04810999999999999  0.6468600000000002  0.7371300000000001  1.0000
  C   C74       1.0  0.08845999999999998  0.67499  0.71819  1.0000
  C   C75       1.0  0.11091  0.6484400000000003  0.6634800000000001  1.0000
  C   C76       1.0  0.09111  0.5939  0.62767  1.0000
  C   C77       1.0  0.05086  0.5659500000000002  0.64659  1.0000
  C   C78       1.0  0.15831  0.6760800000000002  0.64308  1.0000
  C   C79       1.0  0.58066  0.25834000000000007  0.50582  1.0000
  C   C80       1.0  0.59886  0.22677000000000005  0.4504000000000001  1.0000
  C   C81       1.0  0.56385  0.17758000000000004  0.41706  1.0000
  C   C82       1.0  0.51066  0.16141  0.43981  1.0000
  C   C83       1.0  0.49516999999999994  0.19623000000000004  0.49551  1.0000
  C   C84       1.0  0.65552  0.24675000000000002  0.42862  1.0000
  C   C85       1.0  0.47086  0.11011000000000001  0.40818000000000004  1.0000
  C   C86       1.0  0.45209999999999995  0.09028000000000008  0.35312000000000004  1.0000
  C   C87       1.0  0.41164999999999996  0.04313000000000001  0.32496  1.0000
  C   C88       1.0  0.38924  0.01501000000000004  0.35141000000000006  1.0000
  C   C89       1.0  0.40917  0.03386000000000004  0.4059  1.0000
  C   C90       1.0  0.44955  0.08080000000000005  0.43387000000000003  1.0000
  C   C91       1.0  0.34173  0.9669200000000002  0.32378  1.0000
  C   C92       1.0  0.58035  0.24764000000000005  0.74179  1.0000
  C   C93       1.0  0.5986  0.22386000000000006  0.77325  1.0000
  C   C94       1.0  0.5635  0.23970000000000014  0.8223400000000001  1.0000
  C   C95       1.0  0.51023  0.27863  0.83856  1.0000
  C   C96       1.0  0.49468  0.2994500000000002  0.8038500000000001  1.0000
  C   C97       1.0  0.65548  0.18221000000000012  0.75331  1.0000
  C   C98       1.0  0.47050000000000003  0.29831000000000013  0.8898500000000003  1.0000
  C   C99       1.0  0.45202999999999993  0.26297  0.90947  1.0000
  C   C100      1.0  0.41169  0.28193000000000007  0.95663  1.0000
  C   C101      1.0  0.38914  0.33663000000000004  0.9850000000000001  1.0000
  C   C102      1.0  0.40884  0.3723900000000002  0.9663800000000002  1.0000
  C   C103      1.0  0.44908  0.35344  0.91941  1.0000
  C   C104      1.0  0.34171  0.3569600000000001  0.0331  1.0000
  C   C105      1.0  0.58014  0.49447  0.75232  1.0000
  C   C106      1.0  0.5985  0.5498200000000001  0.7761700000000001  1.0000
  C   C107      1.0  0.56349  0.5830400000000001  0.76034  1.0000
  C   C108      1.0  0.51022  0.5601800000000002  0.72137  1.0000
  C   C109      1.0  0.4946  0.5045300000000003  0.7004700000000001  1.0000
  C   C110      1.0  0.65538  0.57159  0.81789  1.0000
  C   C111      1.0  0.47049  0.59174  0.70174  1.0000
  C   C112      1.0  0.45189  0.6468600000000002  0.7371300000000001  1.0000
  C   C113      1.0  0.41155  0.67499  0.71819  1.0000
  C   C114      1.0  0.3891  0.6484400000000003  0.6634800000000001  1.0000
  C   C115      1.0  0.4089  0.5939  0.62767  1.0000
  C   C116      1.0  0.44914  0.5659500000000002  0.64659  1.0000
  C   C117      1.0  0.34169  0.6760800000000002  0.64308  1.0000
  C   C118      1.0  0.08066  0.74166  0.49418  1.0000
  C   C119      1.0  0.09886  0.7732300000000001  0.5495900000000001  1.0000
  C   C120      1.0  0.06385  0.82243  0.58294  1.0000
  C   C121      1.0  0.01066  0.8385900000000002  0.56019  1.0000
  C   C122      1.0  0.99518  0.80378  0.50449  1.0000
  C   C123      1.0  0.15552  0.75325  0.5713800000000001  1.0000
  C   C124      1.0  0.97086  0.8898900000000003  0.59182  1.0000
  C   C125      1.0  0.9521  0.90972  0.64688  1.0000
  C   C126      1.0  0.91165  0.9568799999999998  0.67504  1.0000
  C   C127      1.0  0.88925  0.9849900000000001  0.64859  1.0000
  C   C128      1.0  0.90918  0.96614  0.5941  1.0000
  C   C129      1.0  0.94955  0.9192000000000002  0.56613  1.0000
  C   C130      1.0  0.84173  0.03309  0.67622  1.0000
  C   C131      1.0  0.08035  0.7523700000000002  0.25821  1.0000
  C   C132      1.0  0.09859  0.7761400000000003  0.22675000000000003  1.0000
  C   C133      1.0  0.0635  0.7603  0.17765000000000006  1.0000
  C   C134      1.0  0.01022  0.7213700000000001  0.16144000000000003  1.0000
  C   C135      1.0  0.9946899999999999  0.70055  0.19615  1.0000
  C   C136      1.0  0.15548  0.8178000000000003  0.24669000000000002  1.0000
  C   C137      1.0  0.9705  0.70169  0.11015  1.0000
  C   C138      1.0  0.9520299999999999  0.7370300000000002  0.09053  1.0000
  C   C139      1.0  0.91169  0.7180700000000002  0.043370000000000006  1.0000
  C   C140      1.0  0.8891399999999999  0.66338  0.015  1.0000
  C   C141      1.0  0.90884  0.62761  0.03362  1.0000
  C   C142      1.0  0.9490899999999999  0.6465600000000002  0.08059  1.0000
  C   C143      1.0  0.84172  0.6430400000000002  0.9669  1.0000
  C   C144      1.0  0.08014  0.50554  0.24768000000000004  1.0000
  C   C145      1.0  0.0985  0.45018  0.22382  1.0000
  C   C146      1.0  0.06349  0.41696  0.23966  1.0000
  C   C147      1.0  0.01022  0.43983  0.27863  1.0000
  C   C148      1.0  0.99461  0.49547000000000024  0.29953  1.0000
  C   C149      1.0  0.15538  0.42841000000000007  0.18211  1.0000
  C   C150      1.0  0.9705  0.4082600000000001  0.29826  1.0000
  C   C151      1.0  0.9519000000000001  0.35314000000000006  0.26287  1.0000
  C   C152      1.0  0.91155  0.32501  0.28181  1.0000
  C   C153      1.0  0.8891000000000001  0.3515600000000001  0.33652  1.0000
  C   C154      1.0  0.9088999999999999  0.4061100000000001  0.37233  1.0000
  C   C155      1.0  0.9491499999999999  0.43405  0.35341  1.0000
  C   C156      1.0  0.84169  0.32392000000000004  0.35692  1.0000
  I   I1        1.0  0.58594  0.7708000000000003  0.36806  1.0000
  I   I2        1.0  0.58595  0.59707  0.22911000000000006  1.0000
  I   I3        1.0  0.58649  0.6323400000000001  0.4027300000000001  1.0000
  I   I4        1.0  0.08594  0.22921000000000008  0.63194  1.0000
  I   I5        1.0  0.08595  0.4029300000000001  0.77089  1.0000
  I   I6        1.0  0.08649  0.3676700000000001  0.59727  1.0000
  I   I7        1.0  0.41406  0.22921000000000008  0.63194  1.0000
  I   I8        1.0  0.41405  0.4029300000000001  0.77089  1.0000
  I   I9        1.0  0.41351  0.3676700000000001  0.59727  1.0000
  I   I10       1.0  0.91407  0.7708000000000003  0.36806  1.0000
  I   I11       1.0  0.9140599999999999  0.59707  0.22911000000000006  1.0000
  I   I12       1.0  0.91352  0.6323400000000001  0.4027300000000001  1.0000
  I   I13       1.0  0.38181  0.6663800000000002  0.33289  1.0000
  I   I14       1.0  0.8818100000000001  0.33362000000000014  0.66711  1.0000
  I   I15       1.0  0.6182  0.33362000000000014  0.66711  1.0000
  I   I16       1.0  0.11819999999999999  0.6663800000000002  0.33289  1.0000
  N   N1        1.0  0.47034  0.7568300000000002  0.47191000000000005  1.0000
  N   N2        1.0  0.4708  0.71495  0.24304  1.0000
  N   N3        1.0  0.47096999999999994  0.52792  0.28512  1.0000
  N   N4        1.0  0.97034  0.24317000000000005  0.52809  1.0000
  N   N5        1.0  0.9708000000000001  0.28505000000000014  0.7569600000000002  1.0000
  N   N6        1.0  0.97097  0.47208000000000006  0.7148700000000001  1.0000
  N   N7        1.0  0.52966  0.24317000000000005  0.52809  1.0000
  N   N8        1.0  0.52921  0.28505000000000014  0.7569600000000002  1.0000
  N   N9        1.0  0.52904  0.47208000000000006  0.7148700000000001  1.0000
  N   N10       1.0  0.029660000000000002  0.7568300000000002  0.47191000000000005  1.0000
  N   N11       1.0  0.029209999999999996  0.71495  0.24304  1.0000
  N   N12       1.0  0.029039999999999996  0.52792  0.28512  1.0000
  O   O1        1.0  0.32345  0.78532  0.6203  1.0000
  O   O2        1.0  0.32238  0.7049  0.5382  1.0000
  O   O3        1.0  0.67706  0.04933000000000014  0.7256100000000001  1.0000
  O   O4        1.0  0.67772  0.05384000000000011  0.6470400000000001  1.0000
  O   O5        1.0  0.3233  0.8342900000000002  0.21452  1.0000
  O   O6        1.0  0.32245  0.8332300000000002  0.29505  1.0000
  O   O7        1.0  0.67709  0.6764400000000003  0.9511400000000001  1.0000
  O   O8        1.0  0.67768  0.5929100000000002  0.9456600000000001  1.0000
  O   O9        1.0  0.32351  0.3795300000000001  0.16508  1.0000
  O   O10       1.0  0.32242  0.46161000000000013  0.16716  1.0000
  O   O11       1.0  0.67708  0.27454000000000006  0.32358000000000003  1.0000
  O   O12       1.0  0.67771  0.35312  0.40704  1.0000
  O   O13       1.0  0.82345  0.21467999999999998  0.3797  1.0000
  O   O14       1.0  0.82238  0.29511  0.4618  1.0000
  O   O15       1.0  0.17705  0.9506700000000002  0.27439  1.0000
  O   O16       1.0  0.17772  0.94616  0.35296000000000005  1.0000
  O   O17       1.0  0.8232999999999999  0.16571000000000013  0.7854700000000001  1.0000
  O   O18       1.0  0.82245  0.16677  0.70495  1.0000
  O   O19       1.0  0.17709  0.32356  0.048860000000000015  1.0000
  O   O20       1.0  0.17767  0.4071  0.05434  1.0000
  O   O21       1.0  0.82351  0.6204800000000001  0.83492  1.0000
  O   O22       1.0  0.82242  0.53839  0.83284  1.0000
  O   O23       1.0  0.17708  0.7254600000000003  0.6764200000000001  1.0000
  O   O24       1.0  0.17771  0.6468800000000002  0.59295  1.0000
  O   O25       1.0  0.67655  0.21467999999999998  0.3797  1.0000
  O   O26       1.0  0.67762  0.29511  0.4618  1.0000
  O   O27       1.0  0.32295  0.9506700000000002  0.27439  1.0000
  O   O28       1.0  0.32228  0.94616  0.35296000000000005  1.0000
  O   O29       1.0  0.67671  0.16571000000000013  0.7854700000000001  1.0000
  O   O30       1.0  0.67755  0.16677  0.70495  1.0000
  O   O31       1.0  0.32291  0.32356  0.048860000000000015  1.0000
  O   O32       1.0  0.32233  0.4071  0.05434  1.0000
  O   O33       1.0  0.67649  0.6204800000000001  0.83492  1.0000
  O   O34       1.0  0.67758  0.53839  0.83284  1.0000
  O   O35       1.0  0.32293  0.7254600000000003  0.6764200000000001  1.0000
  O   O36       1.0  0.32229  0.6468800000000002  0.59295  1.0000
  O   O37       1.0  0.17655  0.78532  0.6203  1.0000
  O   O38       1.0  0.17762  0.7049  0.5382  1.0000
  O   O39       1.0  0.82295  0.04933000000000014  0.7256100000000001  1.0000
  O   O40       1.0  0.82228  0.05384000000000011  0.6470400000000001  1.0000
  O   O41       1.0  0.17671  0.8342900000000002  0.21452  1.0000
  O   O42       1.0  0.17755  0.8332300000000002  0.29505  1.0000
  O   O43       1.0  0.82291  0.6764400000000003  0.9511400000000001  1.0000
  O   O44       1.0  0.8223299999999999  0.5929100000000002  0.9456600000000001  1.0000
  O   O45       1.0  0.17649  0.3795300000000001  0.16508  1.0000
  O   O46       1.0  0.17758  0.46161000000000013  0.16716  1.0000
  O   O47       1.0  0.8229299999999999  0.27454000000000006  0.32358000000000003  1.0000
  O   O48       1.0  0.82229  0.35312  0.40704  1.0000
