data_image0
_chemical_formula_structural       Cd12H36C114O48F36
_chemical_formula_sum              "Cd12 H36 C114 O48 F36"
_cell_length_a       7.94864
_cell_length_b       23.23485
_cell_length_c       23.21965
_cell_angle_alpha    118.89505
_cell_angle_beta     96.51974999999999
_cell_angle_gamma    96.3183

_symmetry_space_group_name_H-M    'P 1'
_symmetry_Int_Tables_number       1

loop_
  _symmetry_equiv_pos_as_xyz
  'x,y,z'

loop_
  _atom_site_type_symbol
  _atom_site_label
  _atom_site_symmetry_multiplicity
  _atom_site_fract_x
  _atom_site_fract_y
  _atom_site_fract_z
  _atom_site_occupancy
  Cd  Cd1       1.0  0.18034000000000003  0.9698  0.43762  1.0000
  Cd  Cd2       1.0  0.57994  0.88184  0.3955899999999999  1.0000
  Cd  Cd3       1.0  0.20961  0.46764  0.02959  1.0000
  Cd  Cd4       1.0  0.69817  0.5137399999999999  0.1182  1.0000
  Cd  Cd5       1.0  0.74262  0.56217  0.53249  1.0000
  Cd  Cd6       1.0  0.18675999999999995  0.6044099999999999  0.48638999999999993  1.0000
  Cd  Cd7       1.0  0.81968  0.030209999999999983  0.56238  1.0000
  Cd  Cd8       1.0  0.42007  0.11817  0.60442  1.0000
  Cd  Cd9       1.0  0.7904099999999998  0.5323599999999998  0.9704099999999999  1.0000
  Cd  Cd10      1.0  0.3018499999999999  0.48626999999999987  0.8818099999999999  1.0000
  Cd  Cd11      1.0  0.2574  0.43782999999999983  0.46751999999999994  1.0000
  Cd  Cd12      1.0  0.81326  0.3956  0.51361  1.0000
  H   H1        1.0  0.8455300000000002  0.003980000000000006  0.30161  1.0000
  H   H2        1.0  0.6358600000000001  0.03089  0.23611  1.0000
  H   H3        1.0  0.34357999999999994  0.09555999999999992  0.39507999999999993  1.0000
  H   H4        1.0  0.51059  0.20753  0.38102  1.0000
  H   H5        1.0  0.87971  0.19222999999999998  0.35862  1.0000
  H   H6        1.0  0.99267  0.09770999999999999  0.27997  1.0000
  H   H7        1.0  0.84091  0.29710999999999993  0.9959099999999999  1.0000
  H   H8        1.0  0.60465  0.20503000000000002  0.96836  1.0000
  H   H9        1.0  0.2509100000000001  0.29971999999999993  0.9033199999999999  1.0000
  H   H10       1.0  0.3036400000000001  0.17326000000000008  0.79174  1.0000
  H   H11       1.0  0.68882  0.1668799999999999  0.8083599999999999  1.0000
  H   H12       1.0  0.8963099999999997  0.18324999999999986  0.90276  1.0000
  H   H13       1.0  0.54003  0.6989899999999999  0.70304  1.0000
  H   H14       1.0  0.39512  0.7639  0.7955  1.0000
  H   H15       1.0  0.94856  0.60448  0.70138  1.0000
  H   H16       1.0  0.12837  0.61867  0.82722  1.0000
  H   H17       1.0  0.51933  0.64143  0.83339  1.0000
  H   H18       1.0  0.71108  0.72056  0.8187999999999999  1.0000
  H   H19       1.0  0.1544899999999999  0.9960299999999997  0.69839  1.0000
  H   H20       1.0  0.36416  0.9691199999999999  0.76389  1.0000
  H   H21       1.0  0.6564400000000002  0.90444  0.60493  1.0000
  H   H22       1.0  0.48941999999999997  0.7924699999999999  0.61898  1.0000
  H   H23       1.0  0.12030999999999994  0.8077799999999998  0.64138  1.0000
  H   H24       1.0  0.007339999999999769  0.9022999999999995  0.7200299999999998  1.0000
  H   H25       1.0  0.15909999999999994  0.7028899999999998  0.00409  1.0000
  H   H26       1.0  0.39535999999999993  0.7949699999999998  0.03164  1.0000
  H   H27       1.0  0.7490999999999999  0.7002899999999999  0.09668  1.0000
  H   H28       1.0  0.69638  0.82675  0.20826  1.0000
  H   H29       1.0  0.31118999999999997  0.8331299999999998  0.19163999999999998  1.0000
  H   H30       1.0  0.10369999999999989  0.81676  0.09723999999999998  1.0000
  H   H31       1.0  0.4599800000000001  0.30102  0.29696  1.0000
  H   H32       1.0  0.6049  0.23611  0.2045  1.0000
  H   H33       1.0  0.05145999999999999  0.39552999999999994  0.29862  1.0000
  H   H34       1.0  0.87165  0.3813299999999999  0.17278  1.0000
  H   H35       1.0  0.48069  0.35857  0.16661  1.0000
  H   H36       1.0  0.28893  0.27945  0.1812  1.0000
  C   C1        1.0  0.71765  0.03604  0.38552999999999993  1.0000
  C   C2        1.0  0.7363  0.02505999999999996  0.32204999999999995  1.0000
  C   C3        1.0  0.61735  0.04047999999999998  0.28533  1.0000
  C   C4        1.0  0.57278  0.06077  0.41151  1.0000
  C   C5        1.0  0.45331999999999995  0.07574  0.37398  1.0000
  C   C6        1.0  0.47703999999999996  0.06788999999999998  0.3119199999999999  1.0000
  C   C7        1.0  0.84963  0.01576999999999997  0.41949999999999993  1.0000
  C   C8        1.0  0.54902  0.07806000000000002  0.48067  1.0000
  C   C9        1.0  0.3457  0.0876  0.27394  1.0000
  C   C10       1.0  0.43447  0.11311999999999998  0.23138  1.0000
  C   C11       1.0  0.20983  0.023349999999999996  0.2248  1.0000
  C   C12       1.0  0.26250999999999997  0.14480999999999997  0.32241999999999993  1.0000
  C   C13       1.0  0.37146000000000007  0.20352999999999993  0.37334  1.0000
  C   C14       1.0  0.30793  0.25973  0.41704  1.0000
  C   C15       1.0  0.12776  0.25625000000000003  0.411  1.0000
  C   C16       1.0  0.018699999999999987  0.19628  0.36238  1.0000
  C   C17       1.0  0.08404000000000002  0.14187  0.31786  1.0000
  C   C18       1.0  0.43681  0.32072999999999996  0.46895999999999993  1.0000
  C   C19       1.0  0.03753999999999996  0.31192999999999993  0.4518  1.0000
  C   C20       1.0  0.6829299999999999  0.3495699999999999  0.9641499999999998  1.0000
  C   C21       1.0  0.71139  0.2968799999999999  0.97486  1.0000
  C   C22       1.0  0.57707  0.24481000000000003  0.95903  1.0000
  C   C23       1.0  0.51409  0.35072  0.9389899999999999  1.0000
  C   C24       1.0  0.37956999999999996  0.2982799999999998  0.9235099999999999  1.0000
  C   C25       1.0  0.41014999999999996  0.24408999999999997  0.9313999999999999  1.0000
  C   C26       1.0  0.8359  0.40348999999999996  0.98455  1.0000
  C   C27       1.0  0.4744299999999999  0.40274999999999994  0.9220399999999999  1.0000
  C   C28       1.0  0.25958999999999993  0.18644999999999998  0.9115699999999999  1.0000
  C   C29       1.0  0.32361  0.11830999999999994  0.88517  1.0000
  C   C30       1.0  0.18915000000000004  0.2015  0.97644  1.0000
  C   C31       1.0  0.11869999999999996  0.17810999999999996  0.85499  1.0000
  C   C32       1.0  0.16863999999999993  0.16993999999999992  0.7960099999999999  1.0000
  C   C33       1.0  0.049139999999999975  0.15765999999999994  0.74009  1.0000
  C   C34       1.0  0.87259  0.15522999999999998  0.7439899999999999  1.0000
  C   C35       1.0  0.82375  0.16665999999999986  0.8041399999999999  1.0000
  C   C36       1.0  0.9434199999999999  0.17672999999999997  0.8584  1.0000
  C   C37       1.0  0.11708999999999997  0.14880999999999994  0.67905  1.0000
  C   C38       1.0  0.72632  0.14069  0.68881  1.0000
  C   C39       1.0  0.3307299999999999  0.6147799999999999  0.6508099999999999  1.0000
  C   C40       1.0  0.41099  0.67833  0.7034699999999999  1.0000
  C   C41       1.0  0.32823999999999987  0.7147599999999997  0.7557599999999999  1.0000
  C   C42       1.0  0.16079000000000002  0.5886399999999999  0.64971  1.0000
  C   C43       1.0  0.07834999999999995  0.6258499999999998  0.70249  1.0000
  C   C44       1.0  0.16264999999999996  0.6879699999999999  0.75687  1.0000
  C   C45       1.0  0.43029999999999996  0.5809999999999998  0.59669  1.0000
  C   C46       1.0  0.07051999999999996  0.5193299999999998  0.59758  1.0000
  C   C47       1.0  0.07019  0.72594  0.81532  1.0000
  C   C48       1.0  0.20371999999999993  0.7671099999999998  0.8829699999999999  1.0000
  C   C49       1.0  0.98543  0.7763899999999998  0.80115  1.0000
  C   C50       1.0  0.9385000000000001  0.67766  0.8235  1.0000
  C   C51       1.0  0.9968199999999998  0.6264299999999999  0.8308399999999999  1.0000
  C   C52       1.0  0.8897599999999999  0.5825799999999999  0.8426099999999999  1.0000
  C   C53       1.0  0.7155200000000003  0.58883  0.84491  1.0000
  C   C54       1.0  0.65474  0.6377000000000002  0.83396  1.0000
  C   C55       1.0  0.76447  0.68239  0.82476  1.0000
  C   C56       1.0  0.96583  0.53004  0.8511  1.0000
  C   C57       1.0  0.58523  0.54815  0.85963  1.0000
  C   C58       1.0  0.28237  0.9639699999999999  0.61448  1.0000
  C   C59       1.0  0.2637199999999999  0.97495  0.6779499999999999  1.0000
  C   C60       1.0  0.38266999999999995  0.9595199999999999  0.7146699999999999  1.0000
  C   C61       1.0  0.42723  0.93924  0.58849  1.0000
  C   C62       1.0  0.5467  0.9242599999999997  0.62602  1.0000
  C   C63       1.0  0.5229799999999999  0.9321099999999999  0.68808  1.0000
  C   C64       1.0  0.15039  0.98424  0.5805  1.0000
  C   C65       1.0  0.45099999999999996  0.9219499999999998  0.51933  1.0000
  C   C66       1.0  0.6543199999999999  0.9124099999999999  0.7260599999999999  1.0000
  C   C67       1.0  0.56554  0.88689  0.76862  1.0000
  C   C68       1.0  0.79018  0.9766599999999998  0.7752  1.0000
  C   C69       1.0  0.73751  0.85519  0.67758  1.0000
  C   C70       1.0  0.62855  0.79647  0.62666  1.0000
  C   C71       1.0  0.69209  0.74028  0.58296  1.0000
  C   C72       1.0  0.8722599999999999  0.7437599999999998  0.5889999999999999  1.0000
  C   C73       1.0  0.98132  0.80372  0.63763  1.0000
  C   C74       1.0  0.91598  0.8581299999999996  0.6821399999999999  1.0000
  C   C75       1.0  0.56321  0.67928  0.53104  1.0000
  C   C76       1.0  0.9624699999999999  0.6880799999999998  0.5481999999999999  1.0000
  C   C77       1.0  0.31708  0.65043  0.03585  1.0000
  C   C78       1.0  0.28863  0.70313  0.02514  1.0000
  C   C79       1.0  0.42295  0.7552  0.04097  1.0000
  C   C80       1.0  0.4859299999999999  0.64928  0.061009999999999995  1.0000
  C   C81       1.0  0.62045  0.70173  0.07649  1.0000
  C   C82       1.0  0.58987  0.75592  0.0686  1.0000
  C   C83       1.0  0.16412  0.59652  0.01545  1.0000
  C   C84       1.0  0.52559  0.59725  0.07796  1.0000
  C   C85       1.0  0.74043  0.81356  0.08843  1.0000
  C   C86       1.0  0.67641  0.8817  0.11483  1.0000
  C   C87       1.0  0.81086  0.7985099999999999  0.02356  1.0000
  C   C88       1.0  0.88131  0.8218999999999999  0.14501  1.0000
  C   C89       1.0  0.83138  0.83006  0.20398999999999998  1.0000
  C   C90       1.0  0.9508799999999997  0.8423499999999998  0.25991  1.0000
  C   C91       1.0  0.12742999999999993  0.84478  0.25601  1.0000
  C   C92       1.0  0.17626999999999993  0.8333399999999997  0.19586  1.0000
  C   C93       1.0  0.056599999999999984  0.82328  0.1416  1.0000
  C   C94       1.0  0.88292  0.85119  0.32095  1.0000
  C   C95       1.0  0.2737  0.85932  0.31119  1.0000
  C   C96       1.0  0.66929  0.38523  0.34919  1.0000
  C   C97       1.0  0.58903  0.32167  0.29653  1.0000
  C   C98       1.0  0.67178  0.28524999999999995  0.24423999999999996  1.0000
  C   C99       1.0  0.83923  0.41137  0.35029  1.0000
  C   C100      1.0  0.9216600000000001  0.37415  0.29751  1.0000
  C   C101      1.0  0.8373700000000002  0.31203999999999993  0.24312999999999999  1.0000
  C   C102      1.0  0.56971  0.41900999999999994  0.40331  1.0000
  C   C103      1.0  0.92949  0.48067999999999994  0.40241999999999994  1.0000
  C   C104      1.0  0.9298299999999999  0.2740599999999999  0.18467999999999998  1.0000
  C   C105      1.0  0.7963000000000001  0.2328899999999999  0.11703999999999999  1.0000
  C   C106      1.0  0.014590000000000018  0.22361  0.19885  1.0000
  C   C107      1.0  0.061519999999999984  0.32234999999999997  0.1765  1.0000
  C   C108      1.0  0.003199999999999997  0.37358  0.16915999999999998  1.0000
  C   C109      1.0  0.11025000000000001  0.4174299999999999  0.15739  1.0000
  C   C110      1.0  0.2845  0.41118  0.15508999999999998  1.0000
  C   C111      1.0  0.34528  0.36230999999999997  0.16604  1.0000
  C   C112      1.0  0.23553999999999997  0.31761999999999996  0.17523999999999998  1.0000
  C   C113      1.0  0.034189999999999936  0.46995999999999993  0.1489  1.0000
  C   C114      1.0  0.41479  0.45186  0.14037  1.0000
  O   O1        1.0  0.0045799999999999765  0.02914999999999998  0.41522999999999993  1.0000
  O   O2        1.0  0.79957  0.98222  0.44749  1.0000
  O   O3        1.0  0.67645  0.09915999999999993  0.5276399999999999  1.0000
  O   O4        1.0  0.3912  0.07403999999999998  0.49102  1.0000
  O   O5        1.0  0.3904099999999999  0.3761799999999999  0.5029999999999999  1.0000
  O   O6        1.0  0.5926400000000001  0.31190999999999997  0.476  1.0000
  O   O7        1.0  0.96632  0.30944  0.49637  1.0000
  O   O8        1.0  0.017029999999999892  0.35638999999999976  0.4341499999999999  1.0000
  O   O9        1.0  0.97662  0.3849399999999998  0.9704399999999999  1.0000
  O   O10       1.0  0.82229  0.4655299999999999  0.01902  1.0000
  O   O11       1.0  0.58302  0.4286399999999999  0.90189  1.0000
  O   O12       1.0  0.3201299999999999  0.41713999999999996  0.9256099999999999  1.0000
  O   O13       1.0  0.015609999999999975  0.12680999999999995  0.62358  1.0000
  O   O14       1.0  0.28140999999999994  0.1653499999999999  0.6878599999999999  1.0000
  O   O15       1.0  0.6584299999999998  0.18795999999999985  0.6913299999999999  1.0000
  O   O16       1.0  0.66026  0.07844  0.6446  1.0000
  O   O17       1.0  0.5897299999999999  0.5857299999999999  0.61465  1.0000
  O   O18       1.0  0.35312999999999994  0.5528499999999998  0.53485  1.0000
  O   O19       1.0  0.15429  0.47326  0.57198  1.0000
  O   O20       1.0  0.90206  0.50847  0.58286  1.0000
  O   O21       1.0  0.88358  0.49616  0.87194  1.0000
  O   O22       1.0  0.11469999999999995  0.5225399999999999  0.83537  1.0000
  O   O23       1.0  0.46916  0.50377  0.81257  1.0000
  O   O24       1.0  0.58312  0.5659  0.92191  1.0000
  O   O25       1.0  0.99544  0.9708599999999998  0.58478  1.0000
  O   O26       1.0  0.20045  0.017779999999999983  0.55251  1.0000
  O   O27       1.0  0.32357  0.90085  0.47236  1.0000
  O   O28       1.0  0.6088199999999999  0.9259699999999998  0.50898  1.0000
  O   O29       1.0  0.60961  0.6238199999999999  0.497  1.0000
  O   O30       1.0  0.40736999999999995  0.6880999999999999  0.5239999999999999  1.0000
  O   O31       1.0  0.03369999999999998  0.69057  0.50363  1.0000
  O   O32       1.0  0.9829900000000001  0.6436199999999999  0.56585  1.0000
  O   O33       1.0  0.0234  0.61506  0.02956  1.0000
  O   O34       1.0  0.1777199999999998  0.5344699999999998  0.9809799999999999  1.0000
  O   O35       1.0  0.41699  0.57137  0.09811  1.0000
  O   O36       1.0  0.6798900000000002  0.58287  0.0744  1.0000
  O   O37       1.0  0.98441  0.8731899999999998  0.3764199999999999  1.0000
  O   O38       1.0  0.7186099999999999  0.83466  0.3121399999999999  1.0000
  O   O39       1.0  0.34158  0.81204  0.30868  1.0000
  O   O40       1.0  0.3397500000000001  0.9215599999999998  0.3554  1.0000
  O   O41       1.0  0.41029  0.41427  0.38535  1.0000
  O   O42       1.0  0.64688  0.4471499999999999  0.46515  1.0000
  O   O43       1.0  0.8457299999999999  0.5267399999999999  0.42801999999999996  1.0000
  O   O44       1.0  0.09795999999999994  0.49153  0.41714999999999997  1.0000
  O   O45       1.0  0.11644  0.50384  0.12806  1.0000
  O   O46       1.0  0.8853199999999999  0.4774699999999999  0.16463999999999998  1.0000
  O   O47       1.0  0.53086  0.4962299999999999  0.18743  1.0000
  O   O48       1.0  0.41689  0.43411  0.07809  1.0000
  F   F1        1.0  0.33307  0.14584  0.21128  1.0000
  F   F2        1.0  0.47474  0.06345  0.17486  1.0000
  F   F3        1.0  0.5844700000000003  0.15729  0.26862  1.0000
  F   F4        1.0  0.09955  0.03399999999999999  0.18292  1.0000
  F   F5        1.0  0.28339  0.9713499999999999  0.18567  1.0000
  F   F6        1.0  0.11643  0.0028400000000000027  0.25968  1.0000
  F   F7        1.0  0.19074999999999998  0.06539  0.85115  1.0000
  F   F8        1.0  0.40904  0.11113999999999999  0.9348099999999999  1.0000
  F   F9        1.0  0.43384000000000006  0.11149000000000005  0.84232  1.0000
  F   F10       1.0  0.06758999999999997  0.1493199999999999  0.9660799999999999  1.0000
  F   F11       1.0  0.31544  0.21419  0.02817  1.0000
  F   F12       1.0  0.11652999999999998  0.25711999999999996  0.99734  1.0000
  F   F13       1.0  0.12538000000000005  0.7883999999999999  0.93694  1.0000
  F   F14       1.0  0.3002  0.82279  0.88899  1.0000
  F   F15       1.0  0.3163599999999999  0.72882  0.88873  1.0000
  F   F16       1.0  0.9168300000000001  0.81915  0.85353  1.0000
  F   F17       1.0  0.10020999999999997  0.81459  0.78851  1.0000
  F   F18       1.0  0.8577399999999998  0.7427799999999998  0.74565  1.0000
  F   F19       1.0  0.66695  0.85416  0.7887199999999999  1.0000
  F   F20       1.0  0.5252799999999999  0.93656  0.82515  1.0000
  F   F21       1.0  0.41555  0.84272  0.73138  1.0000
  F   F22       1.0  0.90047  0.966  0.8170799999999999  1.0000
  F   F23       1.0  0.7166200000000003  0.028649999999999974  0.81433  1.0000
  F   F24       1.0  0.88359  0.99716  0.7403199999999999  1.0000
  F   F25       1.0  0.80927  0.93462  0.14885  1.0000
  F   F26       1.0  0.59098  0.88887  0.06519  1.0000
  F   F27       1.0  0.56617  0.88852  0.15768  1.0000
  F   F28       1.0  0.9324300000000001  0.85069  0.03392  1.0000
  F   F29       1.0  0.68458  0.78581  0.97184  1.0000
  F   F30       1.0  0.88348  0.74289  0.00266  1.0000
  F   F31       1.0  0.8746399999999999  0.21160999999999996  0.06307  1.0000
  F   F32       1.0  0.69982  0.17722  0.11101  1.0000
  F   F33       1.0  0.68366  0.27118999999999993  0.11128  1.0000
  F   F34       1.0  0.08319  0.18085  0.14647  1.0000
  F   F35       1.0  0.89981  0.18540999999999994  0.21148999999999998  1.0000
  F   F36       1.0  0.14228  0.25722  0.25434999999999997  1.0000
