data_image0
_chemical_formula_structural       Zn6H116C180N8O24
_chemical_formula_sum              "Zn6 H116 C180 N8 O24"
_cell_length_a       19.91509
_cell_length_b       20.92056
_cell_length_c       21.81224
_cell_angle_alpha    116.40552000000001
_cell_angle_beta     97.68067
_cell_angle_gamma    101.51969999999999

_symmetry_space_group_name_H-M    'P 1'
_symmetry_Int_Tables_number       1

loop_
  _symmetry_equiv_pos_as_xyz
  'x,y,z'

loop_
  _atom_site_type_symbol
  _atom_site_label
  _atom_site_symmetry_multiplicity
  _atom_site_fract_x
  _atom_site_fract_y
  _atom_site_fract_z
  _atom_site_occupancy
  Zn  Zn1       1.0  0.90792  0.37152  0.40715  1.0000
  Zn  Zn2       1.0  0.7358199999999999  0.30281999999999987  0.40045  1.0000
  Zn  Zn3       1.0  0.5770899999999999  0.33401  0.4543400000000001  1.0000
  Zn  Zn4       1.0  0.09208999999999998  0.62848  0.59285  1.0000
  Zn  Zn5       1.0  0.26417999999999997  0.6971800000000001  0.59954  1.0000
  Zn  Zn6       1.0  0.42291999999999996  0.6659899999999999  0.54566  1.0000
  H   H1        1.0  0.12663999999999997  0.32132999999999995  0.32364  1.0000
  H   H2        1.0  0.16724  0.46976999999999997  0.54911  1.0000
  H   H3        1.0  0.26669  0.44247  0.50285  1.0000
  H   H4        1.0  0.23122999999999996  0.3186  0.34801  1.0000
  H   H5        1.0  0.38208  0.46573  0.51217  1.0000
  H   H6        1.0  0.5018499999999999  0.4470800000000001  0.5281100000000001  1.0000
  H   H7        1.0  0.31807999999999986  0.25808  0.31392  1.0000
  H   H8        1.0  0.9995299999999999  0.316  0.31475000000000003  1.0000
  H   H9        1.0  0.44203999999999993  0.2502  0.33838  1.0000
  H   H10       1.0  0.97098  0.48933  0.63735  1.0000
  H   H11       1.0  0.8706099999999999  0.35519  0.16303  1.0000
  H   H12       1.0  0.894  0.55156  0.3585  1.0000
  H   H13       1.0  0.8678199999999999  0.42815999999999993  0.09908  1.0000
  H   H14       1.0  0.7156499999999998  0.0831  0.24305  1.0000
  H   H15       1.0  0.98412  0.5683499999999999  0.76513  1.0000
  H   H16       1.0  0.9433599999999999  0.6809  0.2449  1.0000
  H   H17       1.0  0.9586199999999999  0.6186199999999998  0.9882900000000001  1.0000
  H   H18       1.0  0.74629  0.46149  0.59651  1.0000
  H   H19       1.0  0.72778  0.9576099999999999  0.16753  1.0000
  H   H20       1.0  0.038509999999999996  0.45538999999999996  0.53044  1.0000
  H   H21       1.0  0.7872299999999999  0.74365  0.12851  1.0000
  H   H22       1.0  0.95716  0.5571099999999999  0.86129  1.0000
  H   H23       1.0  0.7590799999999999  0.5396499999999999  0.7243100000000001  1.0000
  H   H24       1.0  0.9462699999999998  0.82555  0.044330000000000015  1.0000
  H   H25       1.0  0.8118899999999999  0.48440999999999995  0.054830000000000004  1.0000
  H   H26       1.0  0.80335  0.72063  0.94784  1.0000
  H   H27       1.0  0.95464  0.05110000000000001  0.22795000000000004  1.0000
  H   H28       1.0  0.94179  0.75449  0.18275  1.0000
  H   H29       1.0  0.80075  0.65824  0.82052  1.0000
  H   H30       1.0  0.89065  0.6247899999999998  0.2957  1.0000
  H   H31       1.0  0.7709699999999999  0.8689099999999998  0.18919  1.0000
  H   H32       1.0  0.8117199999999999  0.55815  0.9926900000000001  1.0000
  H   H33       1.0  0.94178  0.17617  0.30519  1.0000
  H   H34       1.0  0.93056  0.95166  0.10592  1.0000
  H   H35       1.0  0.5116  0.09604999999999997  0.26024  1.0000
  H   H36       1.0  0.7051599999999999  0.01585  0.34591  1.0000
  H   H37       1.0  0.69806  0.14386999999999994  0.41599  1.0000
  H   H38       1.0  0.69048  0.7386499999999999  0.026410000000000006  1.0000
  H   H39       1.0  0.68161  0.7757299999999999  0.24496000000000004  1.0000
  H   H40       1.0  0.6191000000000001  0.53972  0.66348  1.0000
  H   H41       1.0  0.68062  0.66589  0.89915  1.0000
  H   H42       1.0  0.7399899999999998  0.48685999999999996  0.22697000000000003  1.0000
  H   H43       1.0  0.5471299999999998  0.5265899999999999  0.28635  1.0000
  H   H44       1.0  0.51817  0.96736  0.18927000000000002  1.0000
  H   H45       1.0  0.5755899999999999  0.76036  0.05119  1.0000
  H   H46       1.0  0.55489  0.47012000000000004  0.8947100000000001  1.0000
  H   H47       1.0  0.56651  0.8871599999999998  0.11796  1.0000
  H   H48       1.0  0.66924  0.9006699999999999  0.31189  1.0000
  H   H49       1.0  0.62375  0.6126300000000001  0.7908800000000001  1.0000
  H   H50       1.0  0.7428799999999995  0.41256  0.28756  1.0000
  H   H51       1.0  0.58421  0.33882  0.67822  1.0000
  H   H52       1.0  0.56612  0.54244  0.022000000000000002  1.0000
  H   H53       1.0  0.54268  0.6598899999999999  0.17801  1.0000
  H   H54       1.0  0.73857  0.54707  0.18156  1.0000
  H   H55       1.0  0.55251  0.45295  0.34747  1.0000
  H   H56       1.0  0.7341100000000002  0.61952  0.11980000000000002  1.0000
  H   H57       1.0  0.5449599999999999  0.5856  0.23874  1.0000
  H   H58       1.0  0.5973199999999999  0.41197999999999996  0.80771  1.0000
  H   H59       1.0  0.8733699999999999  0.67867  0.67636  1.0000
  H   H60       1.0  0.83276  0.53023  0.45088  1.0000
  H   H61       1.0  0.7333099999999999  0.55753  0.49715000000000004  1.0000
  H   H62       1.0  0.7687699999999998  0.6813999999999999  0.6519800000000001  1.0000
  H   H63       1.0  0.6179200000000001  0.5342699999999999  0.48783  1.0000
  H   H64       1.0  0.49815999999999994  0.55292  0.47188  1.0000
  H   H65       1.0  0.68192  0.74192  0.68608  1.0000
  H   H66       1.0  0.0004800000000000229  0.684  0.6852400000000001  1.0000
  H   H67       1.0  0.55797  0.7498000000000001  0.6616200000000001  1.0000
  H   H68       1.0  0.029030000000000028  0.5106700000000001  0.36265000000000003  1.0000
  H   H69       1.0  0.12938999999999995  0.6448099999999998  0.83697  1.0000
  H   H70       1.0  0.10600000000000004  0.44844000000000006  0.6415000000000001  1.0000
  H   H71       1.0  0.13218000000000002  0.57184  0.9009200000000002  1.0000
  H   H72       1.0  0.2843499999999999  0.9168999999999999  0.75694  1.0000
  H   H73       1.0  0.01588000000000001  0.43165  0.23487000000000002  1.0000
  H   H74       1.0  0.05664999999999997  0.31909999999999994  0.75509  1.0000
  H   H75       1.0  0.04138  0.38138  0.011700000000000002  1.0000
  H   H76       1.0  0.25371  0.53851  0.40349  1.0000
  H   H77       1.0  0.2722200000000001  0.04239000000000007  0.8324700000000003  1.0000
  H   H78       1.0  0.96149  0.5446  0.46956  1.0000
  H   H79       1.0  0.21277  0.25635  0.87149  1.0000
  H   H80       1.0  0.04284000000000001  0.44289  0.13871  1.0000
  H   H81       1.0  0.24092  0.46035  0.27569  1.0000
  H   H82       1.0  0.053730000000000035  0.17445000000000013  0.9556700000000001  1.0000
  H   H83       1.0  0.18810999999999997  0.51558  0.94517  1.0000
  H   H84       1.0  0.19664999999999996  0.27937  0.05216  1.0000
  H   H85       1.0  0.04535999999999999  0.9489  0.77204  1.0000
  H   H86       1.0  0.05821000000000005  0.24550000000000005  0.8172500000000003  1.0000
  H   H87       1.0  0.19925  0.34176  0.17948  1.0000
  H   H88       1.0  0.10935  0.37521  0.7043  1.0000
  H   H89       1.0  0.22902999999999998  0.13109000000000007  0.8108000000000001  1.0000
  H   H90       1.0  0.18828  0.44185  0.007300000000000001  1.0000
  H   H91       1.0  0.058219999999999994  0.82383  0.69481  1.0000
  H   H92       1.0  0.06943999999999996  0.04833999999999996  0.89408  1.0000
  H   H93       1.0  0.4884  0.90395  0.73976  1.0000
  H   H94       1.0  0.29483999999999994  0.9841499999999999  0.65409  1.0000
  H   H95       1.0  0.30193999999999993  0.85613  0.58401  1.0000
  H   H96       1.0  0.30952  0.26135000000000014  0.9735900000000001  1.0000
  H   H97       1.0  0.3183900000000001  0.22427000000000008  0.7550300000000001  1.0000
  H   H98       1.0  0.38091  0.46028  0.33652  1.0000
  H   H99       1.0  0.31938  0.33411  0.10084  1.0000
  H   H100      1.0  0.26000999999999996  0.5131399999999999  0.77303  1.0000
  H   H101      1.0  0.45286999999999994  0.4734100000000001  0.7136500000000001  1.0000
  H   H102      1.0  0.48183  0.03264000000000002  0.81073  1.0000
  H   H103      1.0  0.42440999999999995  0.23963999999999994  0.9488100000000002  1.0000
  H   H104      1.0  0.44511  0.52988  0.10529  1.0000
  H   H105      1.0  0.4334899999999999  0.11284000000000005  0.8820400000000002  1.0000
  H   H106      1.0  0.33076  0.09933  0.6881  1.0000
  H   H107      1.0  0.37624999999999986  0.38737000000000005  0.20911  1.0000
  H   H108      1.0  0.25712  0.58744  0.71244  1.0000
  H   H109      1.0  0.41579  0.66118  0.32177000000000006  1.0000
  H   H110      1.0  0.43388  0.4575599999999999  0.978  1.0000
  H   H111      1.0  0.45732  0.34010999999999997  0.8219800000000002  1.0000
  H   H112      1.0  0.26144  0.45292999999999994  0.81844  1.0000
  H   H113      1.0  0.44748999999999994  0.54705  0.65253  1.0000
  H   H114      1.0  0.26589  0.3804799999999999  0.88019  1.0000
  H   H115      1.0  0.45504000000000017  0.4144  0.76126  1.0000
  H   H116      1.0  0.40268  0.58802  0.19229  1.0000
  C   C1        1.0  0.10992  0.35124  0.37133  1.0000
  C   C2        1.0  0.13232  0.43358  0.49623000000000006  1.0000
  C   C3        1.0  0.23429  0.40219  0.44958  1.0000
  C   C4        1.0  0.15886999999999998  0.39517  0.43809  1.0000
  C   C5        1.0  0.26451  0.3603799999999999  0.40041000000000004  1.0000
  C   C6        1.0  0.8498099999999997  0.42104999999999987  0.53158  1.0000
  C   C7        1.0  0.39194  0.41612  0.47269  1.0000
  C   C8        1.0  0.3382800000000001  0.36102000000000006  0.4122600000000001  1.0000
  C   C9        1.0  0.45894  0.40678  0.48177  1.0000
  C   C10       1.0  0.35737  0.30144  0.36204  1.0000
  C   C11       1.0  0.039060000000000004  0.34755  0.36533  1.0000
  C   C12       1.0  0.82224  0.21115  0.32949  1.0000
  C   C13       1.0  0.42578  0.29643  0.37497  1.0000
  C   C14       1.0  0.9247399999999999  0.50039  0.6567000000000001  1.0000
  C   C15       1.0  0.8724000000000001  0.55963  0.7543500000000001  1.0000
  C   C16       1.0  0.8281599999999999  0.13707000000000005  0.27969000000000005  1.0000
  C   C17       1.0  0.88234  0.44819  0.26473  1.0000
  C   C18       1.0  0.88771  0.40277999999999997  0.30148  1.0000
  C   C19       1.0  0.87807  0.6020600000000002  0.83087  1.0000
  C   C20       1.0  0.8793299999999998  0.53245  0.19245  1.0000
  C   C21       1.0  0.87439  0.4142499999999999  0.19124  1.0000
  C   C22       1.0  0.88831  0.5246  0.30166  1.0000
  C   C23       1.0  0.8727199999999999  0.45546999999999993  0.15581  1.0000
  C   C24       1.0  0.7676999999999999  0.07551  0.23974  1.0000
  C   C25       1.0  0.8579299999999999  0.4694499999999999  0.60844  1.0000
  C   C26       1.0  0.93185  0.54457  0.72867  1.0000
  C   C27       1.0  0.9133199999999999  0.65355  0.18995000000000004  1.0000
  C   C28       1.0  0.9244399999999999  0.6275  0.95139  1.0000
  C   C29       1.0  0.8799  0.6725000000000001  0.9762200000000001  1.0000
  C   C30       1.0  0.7983800000000001  0.48501000000000005  0.6333900000000001  1.0000
  C   C31       1.0  0.77479  0.005369999999999981  0.19744  1.0000
  C   C32       1.0  0.060339999999999984  0.42655999999999994  0.48624  1.0000
  C   C33       1.0  0.8421199999999998  0.99525  0.19289  1.0000
  C   C34       1.0  0.8500299999999998  0.9199999999999999  0.15274  1.0000
  C   C35       1.0  0.87729  0.6613799999999999  0.0833  1.0000
  C   C36       1.0  0.81874  0.7892699999999998  0.12372  1.0000
  C   C37       1.0  0.9234999999999997  0.5931399999999999  0.87993  1.0000
  C   C38       1.0  0.80587  0.52993  0.70531  1.0000
  C   C39       1.0  0.9083599999999998  0.8355899999999998  0.0766  1.0000
  C   C40       1.0  0.84189  0.5432599999999999  0.08314  1.0000
  C   C41       1.0  0.83669  0.6845499999999999  0.9284200000000001  1.0000
  C   C42       1.0  0.8684199999999999  0.77635  0.08291000000000001  1.0000
  C   C43       1.0  0.90225  0.05807  0.23065000000000002  1.0000
  C   C44       1.0  0.9132299999999999  0.69532  0.1551  1.0000
  C   C45       1.0  0.83566  0.6494599999999999  0.8570100000000002  1.0000
  C   C46       1.0  0.87812  0.57638  0.155  1.0000
  C   C47       1.0  0.8870499999999999  0.56591  0.2661800000000001  1.0000
  C   C48       1.0  0.8095699999999999  0.8599  0.15764  1.0000
  C   C49       1.0  0.8411  0.58463  0.04777  1.0000
  C   C50       1.0  0.8954499999999999  0.12793000000000004  0.27403000000000005  1.0000
  C   C51       1.0  0.89933  0.90632  0.11135  1.0000
  C   C52       1.0  0.6007999999999998  0.20548999999999998  0.38449  1.0000
  C   C53       1.0  0.5537499999999999  0.07784999999999997  0.27857  1.0000
  C   C54       1.0  0.6514099999999999  0.38398  0.35951  1.0000
  C   C55       1.0  0.6482099999999998  0.42837  0.32197  1.0000
  C   C56       1.0  0.66169  0.032329999999999984  0.32732  1.0000
  C   C57       1.0  0.64369  0.51401  0.25175  1.0000
  C   C58       1.0  0.60424  0.12833  0.34284  1.0000
  C   C59       1.0  0.62841  0.64585  0.03329  1.0000
  C   C60       1.0  0.64187  0.55915  0.2154  1.0000
  C   C61       1.0  0.6295199999999999  0.7583199999999999  0.14298  1.0000
  C   C62       1.0  0.65846  0.10470999999999998  0.36665  1.0000
  C   C63       1.0  0.61187  0.9811999999999999  0.26228  1.0000
  C   C64       1.0  0.60161  0.43474999999999997  0.66299  1.0000
  C   C65       1.0  0.6172  0.9050599999999998  0.22079000000000001  1.0000
  C   C66       1.0  0.65995  0.68008  0.99732  1.0000
  C   C67       1.0  0.65641  0.80013  0.21705  1.0000
  C   C68       1.0  0.6137399999999998  0.51235  0.69564  1.0000
  C   C69       1.0  0.6540399999999998  0.6385200000000001  0.9252400000000001  1.0000
  C   C70       1.0  0.6981999999999999  0.48027999999999993  0.25288  1.0000
  C   C71       1.0  0.59101  0.5029299999999999  0.28636  1.0000
  C   C72       1.0  0.55794  0.005770000000000011  0.23874  1.0000
  C   C73       1.0  0.61723  0.56181  0.88603  1.0000
  C   C74       1.0  0.61176  0.51828  0.8097  1.0000
  C   C75       1.0  0.59698  0.7913199999999998  0.10823000000000002  1.0000
  C   C76       1.0  0.58587  0.52854  0.92295  1.0000
  C   C77       1.0  0.59138  0.86313  0.14661  1.0000
  C   C78       1.0  0.63776  0.6441899999999999  0.14453000000000002  1.0000
  C   C79       1.0  0.64971  0.87121  0.25461  1.0000
  C   C80       1.0  0.6175199999999998  0.5531000000000001  0.7673900000000001  1.0000
  C   C81       1.0  0.70041  0.43804000000000004  0.2870500000000001  1.0000
  C   C82       1.0  0.59415  0.39905999999999997  0.70405  1.0000
  C   C83       1.0  0.59114  0.56941  0.99484  1.0000
  C   C84       1.0  0.5952399999999999  0.39093999999999995  0.58563  1.0000
  C   C85       1.0  0.58521  0.6345  0.17895  1.0000
  C   C86       1.0  0.69463  0.57049  0.18106  1.0000
  C   C87       1.0  0.59346  0.46124999999999994  0.32114  1.0000
  C   C88       1.0  0.69282  0.61214  0.14616  1.0000
  C   C89       1.0  0.58738  0.59274  0.21366999999999997  1.0000
  C   C90       1.0  0.6004000000000002  0.4403600000000001  0.7763100000000001  1.0000
  C   C91       1.0  0.8900799999999999  0.6487600000000001  0.6286600000000001  1.0000
  C   C92       1.0  0.8676799999999999  0.56642  0.50377  1.0000
  C   C93       1.0  0.7657099999999999  0.59781  0.5504100000000001  1.0000
  C   C94       1.0  0.8411299999999999  0.60483  0.56191  1.0000
  C   C95       1.0  0.73549  0.6396200000000001  0.5995900000000001  1.0000
  C   C96       1.0  0.15018999999999996  0.57895  0.46842  1.0000
  C   C97       1.0  0.60806  0.58388  0.5273  1.0000
  C   C98       1.0  0.66172  0.63898  0.58774  1.0000
  C   C99       1.0  0.5410599999999999  0.59322  0.51823  1.0000
  C   C100      1.0  0.6426399999999999  0.6985599999999998  0.6379600000000001  1.0000
  C   C101      1.0  0.96094  0.65245  0.63467  1.0000
  C   C102      1.0  0.17776  0.7888499999999999  0.6705  1.0000
  C   C103      1.0  0.57422  0.70356  0.62503  1.0000
  C   C104      1.0  0.07526000000000001  0.4996  0.34330000000000005  1.0000
  C   C105      1.0  0.12759999999999996  0.44037  0.24565  1.0000
  C   C106      1.0  0.17185  0.86293  0.7203  1.0000
  C   C107      1.0  0.11765999999999997  0.5518099999999999  0.73526  1.0000
  C   C108      1.0  0.11229999999999997  0.59722  0.69852  1.0000
  C   C109      1.0  0.12192999999999998  0.39794  0.16912000000000002  1.0000
  C   C110      1.0  0.12067  0.46755  0.80755  1.0000
  C   C111      1.0  0.12561  0.58575  0.80876  1.0000
  C   C112      1.0  0.11168999999999997  0.4754  0.69834  1.0000
  C   C113      1.0  0.12728  0.54453  0.84419  1.0000
  C   C114      1.0  0.23229999999999998  0.92449  0.76025  1.0000
  C   C115      1.0  0.14207000000000003  0.53055  0.3915600000000001  1.0000
  C   C116      1.0  0.06815  0.45542999999999995  0.27133000000000007  1.0000
  C   C117      1.0  0.08667999999999997  0.34644999999999987  0.81005  1.0000
  C   C118      1.0  0.07556  0.3725  0.04861  1.0000
  C   C119      1.0  0.12011  0.32749  0.023780000000000003  1.0000
  C   C120      1.0  0.20161999999999997  0.51499  0.3666  1.0000
  C   C121      1.0  0.2252200000000001  0.9946300000000001  0.8025600000000003  1.0000
  C   C122      1.0  0.9396599999999997  0.57344  0.51375  1.0000
  C   C123      1.0  0.15789000000000009  0.004740000000000051  0.8071100000000002  1.0000
  C   C124      1.0  0.14997999999999997  0.07999999999999993  0.84726  1.0000
  C   C125      1.0  0.12272000000000001  0.33862  0.9167  1.0000
  C   C126      1.0  0.18126  0.21072999999999997  0.87628  1.0000
  C   C127      1.0  0.07649999999999998  0.40686  0.12007  1.0000
  C   C128      1.0  0.19412999999999997  0.4700699999999999  0.29469  1.0000
  C   C129      1.0  0.09165000000000001  0.16441000000000008  0.9234000000000001  1.0000
  C   C130      1.0  0.15811000000000003  0.45674  0.91686  1.0000
  C   C131      1.0  0.16331  0.31543999999999994  0.07157000000000001  1.0000
  C   C132      1.0  0.13158  0.22365000000000004  0.9170900000000001  1.0000
  C   C133      1.0  0.09774999999999999  0.9419199999999999  0.76935  1.0000
  C   C134      1.0  0.08678000000000001  0.30468000000000006  0.8449  1.0000
  C   C135      1.0  0.16434  0.35054  0.14299  1.0000
  C   C136      1.0  0.12188999999999998  0.42362  0.845  1.0000
  C   C137      1.0  0.11294999999999998  0.43409  0.73382  1.0000
  C   C138      1.0  0.19043  0.1401  0.84236  1.0000
  C   C139      1.0  0.1589  0.41537  0.95223  1.0000
  C   C140      1.0  0.10455  0.87207  0.72597  1.0000
  C   C141      1.0  0.10067000000000004  0.09367  0.8886500000000002  1.0000
  C   C142      1.0  0.3992  0.79451  0.6155000000000002  1.0000
  C   C143      1.0  0.4462499999999999  0.9221499999999999  0.7214300000000001  1.0000
  C   C144      1.0  0.3485899999999999  0.61602  0.6404900000000001  1.0000
  C   C145      1.0  0.35178999999999994  0.5716299999999999  0.67803  1.0000
  C   C146      1.0  0.3383099999999999  0.9676699999999999  0.67268  1.0000
  C   C147      1.0  0.35631  0.4859899999999999  0.74824  1.0000
  C   C148      1.0  0.39576  0.87167  0.65716  1.0000
  C   C149      1.0  0.37159999999999993  0.35415  0.96671  1.0000
  C   C150      1.0  0.35813  0.44085000000000013  0.7846000000000001  1.0000
  C   C151      1.0  0.37049  0.24168000000000003  0.8570200000000001  1.0000
  C   C152      1.0  0.34153999999999995  0.8952899999999999  0.63335  1.0000
  C   C153      1.0  0.38813  0.01880000000000001  0.73771  1.0000
  C   C154      1.0  0.39839  0.5652499999999999  0.337  1.0000
  C   C155      1.0  0.38280000000000003  0.09494000000000004  0.7792100000000001  1.0000
  C   C156      1.0  0.34005  0.31992  0.00268  1.0000
  C   C157      1.0  0.34359000000000006  0.19987000000000002  0.7829500000000001  1.0000
  C   C158      1.0  0.38627  0.48764999999999986  0.3043600000000001  1.0000
  C   C159      1.0  0.3459599999999999  0.36148  0.07476  1.0000
  C   C160      1.0  0.30179999999999996  0.5197200000000001  0.7471200000000001  1.0000
  C   C161      1.0  0.40899  0.49707  0.71363  1.0000
  C   C162      1.0  0.44205999999999995  0.99423  0.76126  1.0000
  C   C163      1.0  0.38276999999999994  0.43819  0.11397000000000002  1.0000
  C   C164      1.0  0.38824000000000003  0.48172  0.1903  1.0000
  C   C165      1.0  0.40302000000000016  0.20868000000000012  0.8917600000000001  1.0000
  C   C166      1.0  0.41412999999999994  0.47145999999999993  0.07705  1.0000
  C   C167      1.0  0.4086199999999999  0.13687000000000005  0.8533900000000001  1.0000
  C   C168      1.0  0.36225000000000007  0.3558100000000001  0.85546  1.0000
  C   C169      1.0  0.35029  0.12879  0.74539  1.0000
  C   C170      1.0  0.38248  0.44689  0.23261  1.0000
  C   C171      1.0  0.29959  0.56196  0.71295  1.0000
  C   C172      1.0  0.40585  0.60094  0.29595  1.0000
  C   C173      1.0  0.40885999999999995  0.43059  0.00515  1.0000
  C   C174      1.0  0.40475999999999995  0.6090599999999999  0.41436000000000006  1.0000
  C   C175      1.0  0.41479  0.36549999999999994  0.82104  1.0000
  C   C176      1.0  0.30537999999999993  0.4295100000000001  0.8189300000000002  1.0000
  C   C177      1.0  0.40655  0.53875  0.6788600000000001  1.0000
  C   C178      1.0  0.30717999999999995  0.38785  0.85384  1.0000
  C   C179      1.0  0.41261999999999993  0.40726  0.78633  1.0000
  C   C180      1.0  0.3996  0.55964  0.22369  1.0000
  N   N1        1.0  0.4757399999999999  0.34763999999999995  0.4345200000000001  1.0000
  N   N2        1.0  0.01426999999999999  0.38445  0.422  1.0000
  N   N3        1.0  0.87778  0.70428  0.04819  1.0000
  N   N4        1.0  0.63481  0.68526  0.10700000000000001  1.0000
  N   N5        1.0  0.52426  0.6523599999999999  0.5654700000000001  1.0000
  N   N6        1.0  0.9857299999999999  0.61555  0.578  1.0000
  N   N7        1.0  0.12221999999999998  0.29572  0.95181  1.0000
  N   N8        1.0  0.36518999999999996  0.3147400000000001  0.89299  1.0000
  O   O1        1.0  0.7599499999999999  0.21788999999999997  0.33189  1.0000
  O   O2        1.0  0.8797899999999997  0.26257  0.36795  1.0000
  O   O3        1.0  0.9056899999999999  0.41612  0.50915  1.0000
  O   O4        1.0  0.8811599999999999  0.43272999999999995  0.36676  1.0000
  O   O5        1.0  0.78623  0.3880100000000001  0.49276000000000003  1.0000
  O   O6        1.0  0.89937  0.34113  0.27095  1.0000
  O   O7        1.0  0.65707  0.25748  0.43061  1.0000
  O   O8        1.0  0.69329  0.343  0.34443  1.0000
  O   O9        1.0  0.61897  0.42699  0.55393  1.0000
  O   O10       1.0  0.54305  0.22122  0.37614  1.0000
  O   O11       1.0  0.56561  0.3212300000000001  0.5519400000000001  1.0000
  O   O12       1.0  0.6134199999999999  0.39071  0.40325  1.0000
  O   O13       1.0  0.24005999999999994  0.7821099999999999  0.6681  1.0000
  O   O14       1.0  0.12021000000000005  0.7374300000000001  0.6320500000000001  1.0000
  O   O15       1.0  0.09430999999999999  0.58388  0.49085  1.0000
  O   O16       1.0  0.11883999999999999  0.56727  0.63323  1.0000
  O   O17       1.0  0.21376999999999996  0.61199  0.50724  1.0000
  O   O18       1.0  0.10062999999999997  0.6588699999999998  0.72905  1.0000
  O   O19       1.0  0.34292999999999996  0.7425199999999998  0.56939  1.0000
  O   O20       1.0  0.3067099999999999  0.657  0.65556  1.0000
  O   O21       1.0  0.38102999999999987  0.5730099999999999  0.4460700000000001  1.0000
  O   O22       1.0  0.4569499999999999  0.7787799999999998  0.62386  1.0000
  O   O23       1.0  0.4343899999999999  0.67877  0.44806  1.0000
  O   O24       1.0  0.38658  0.60929  0.59675  1.0000
