data_image0
_chemical_formula_structural       Cd8H64C104N40O16
_chemical_formula_sum              "Cd8 H64 C104 N40 O16"
_cell_length_a       11.82153
_cell_length_b       14.37764
_cell_length_c       20.22558
_cell_angle_alpha    89.63387
_cell_angle_beta     90.05397
_cell_angle_gamma    90.06058

_space_group_name_H-M_alt    "P 1"
_space_group_IT_number       1

loop_
  _space_group_symop_operation_xyz
  'x, y, z'

loop_
  _atom_site_type_symbol
  _atom_site_label
  _atom_site_symmetry_multiplicity
  _atom_site_fract_x
  _atom_site_fract_y
  _atom_site_fract_z
  _atom_site_occupancy
  Cd  Cd1       1.0  0.9577299999999999  4.999999999999959e-05  0.74957  1.0000
  Cd  Cd2       1.0  0.54131  0.4993899999999999  0.74865  1.0000
  Cd  Cd3       1.0  0.042269999999999995  0.9999599999999998  0.25042  1.0000
  Cd  Cd4       1.0  0.45869  0.50061  0.25134  1.0000
  Cd  Cd5       1.0  0.75248  0.74881  0.52145  1.0000
  Cd  Cd6       1.0  0.7524499999999998  0.25128  0.9777499999999999  1.0000
  Cd  Cd7       1.0  0.24752  0.25119  0.47854  1.0000
  Cd  Cd8       1.0  0.24756999999999996  0.7487299999999998  0.02225  1.0000
  H   H1        1.0  0.8598299999999999  0.58134  0.61456  1.0000
  H   H2        1.0  0.94684  0.4335  0.57504  1.0000
  H   H3        1.0  0.26925  0.5672299999999998  0.55718  1.0000
  H   H4        1.0  0.18425  0.7158299999999997  0.59911  1.0000
  H   H5        1.0  0.74654  0.8631299999999997  0.7827  1.0000
  H   H6        1.0  0.53701  0.8589699999999998  0.78776  1.0000
  H   H7        1.0  0.37285  0.8496299999999998  0.74362  1.0000
  H   H8        1.0  0.16348  0.8560899999999998  0.74225  1.0000
  H   H9        1.0  0.8595399999999999  0.41837  0.8840200000000001  1.0000
  H   H10       1.0  0.9461999999999999  0.5662999999999998  0.9238199999999999  1.0000
  H   H11       1.0  0.26848  0.4328999999999999  0.94277  1.0000
  H   H12       1.0  0.18376  0.28421  0.9008299999999999  1.0000
  H   H13       1.0  0.7466199999999997  0.13653  0.71658  1.0000
  H   H14       1.0  0.53709  0.14050999999999994  0.7114  1.0000
  H   H15       1.0  0.37358  0.15028  0.75556  1.0000
  H   H16       1.0  0.16415  0.14405  0.75749  1.0000
  H   H17       1.0  0.63911  0.07938  0.88685  1.0000
  H   H18       1.0  0.54995  0.93079  0.92466  1.0000
  H   H19       1.0  0.22870999999999997  0.06588999999999999  0.9416799999999999  1.0000
  H   H20       1.0  0.31621  0.21507999999999997  0.90046  1.0000
  H   H21       1.0  0.75233  0.3645899999999999  0.71586  1.0000
  H   H22       1.0  0.96183  0.3605  0.71129  1.0000
  H   H23       1.0  0.12542  0.3496799999999999  0.75572  1.0000
  H   H24       1.0  0.33488  0.3558399999999999  0.75733  1.0000
  H   H25       1.0  0.64052  0.9201699999999998  0.61218  1.0000
  H   H26       1.0  0.55169  0.06954999999999997  0.5745  1.0000
  H   H27       1.0  0.22979  0.9356999999999999  0.55737  1.0000
  H   H28       1.0  0.31598  0.7860199999999998  0.59887  1.0000
  H   H29       1.0  0.75258  0.63627  0.78318  1.0000
  H   H30       1.0  0.96206  0.6402999999999999  0.78822  1.0000
  H   H31       1.0  0.12607  0.65059  0.74426  1.0000
  H   H32       1.0  0.33547  0.6441199999999998  0.74264  1.0000
  H   H33       1.0  0.14017  0.41867  0.38544  1.0000
  H   H34       1.0  0.05316  0.5664999999999998  0.42496  1.0000
  H   H35       1.0  0.73076  0.4327799999999999  0.44282  1.0000
  H   H36       1.0  0.81575  0.28417  0.40087999999999996  1.0000
  H   H37       1.0  0.25346  0.13686999999999996  0.21730000000000002  1.0000
  H   H38       1.0  0.46298999999999996  0.14103  0.21223  1.0000
  H   H39       1.0  0.6271499999999999  0.15038  0.25638  1.0000
  H   H40       1.0  0.83653  0.14390999999999995  0.25775  1.0000
  H   H41       1.0  0.14047  0.5816399999999998  0.11598  1.0000
  H   H42       1.0  0.0538  0.4337  0.07618  1.0000
  H   H43       1.0  0.73152  0.5671  0.05722  1.0000
  H   H44       1.0  0.81624  0.7158  0.09917  1.0000
  H   H45       1.0  0.25338  0.8634699999999997  0.28342  1.0000
  H   H46       1.0  0.46291999999999994  0.8594899999999999  0.2886  1.0000
  H   H47       1.0  0.6264299999999999  0.8497199999999998  0.24444  1.0000
  H   H48       1.0  0.8358499999999999  0.85595  0.24251  1.0000
  H   H49       1.0  0.3609  0.92063  0.11313  1.0000
  H   H50       1.0  0.45005  0.06921  0.07533  1.0000
  H   H51       1.0  0.77129  0.93412  0.05831  1.0000
  H   H52       1.0  0.6837799999999999  0.78492  0.09952  1.0000
  H   H53       1.0  0.24766999999999997  0.6354199999999998  0.28414  1.0000
  H   H54       1.0  0.03817  0.6395  0.2887  1.0000
  H   H55       1.0  0.87458  0.6503199999999998  0.24428  1.0000
  H   H56       1.0  0.66512  0.6441699999999998  0.24266  1.0000
  H   H57       1.0  0.35948  0.07982999999999997  0.38781  1.0000
  H   H58       1.0  0.44831  0.93045  0.42549  1.0000
  H   H59       1.0  0.7702099999999998  0.06430999999999999  0.44262999999999997  1.0000
  H   H60       1.0  0.6840199999999999  0.21399  0.40112000000000003  1.0000
  H   H61       1.0  0.24742  0.3637299999999999  0.21681  1.0000
  H   H62       1.0  0.03794  0.3596999999999999  0.21178  1.0000
  H   H63       1.0  0.87392  0.34942  0.25574  1.0000
  H   H64       1.0  0.66453  0.35588  0.25735  1.0000
  C   C1        1.0  0.97073  0.7449699999999998  0.63482  1.0000
  C   C2        1.0  0.017979999999999996  0.6576  0.61045  1.0000
  C   C3        1.0  0.94984  0.5783699999999998  0.60311  1.0000
  C   C4        1.0  0.9980999999999999  0.49564999999999987  0.58138  1.0000
  C   C5        1.0  0.11330999999999998  0.4914699999999999  0.56537  1.0000
  C   C6        1.0  0.18068999999999996  0.57122  0.57143  1.0000
  C   C7        1.0  0.13337  0.6532999999999999  0.59446  1.0000
  C   C8        1.0  0.16302  0.40439  0.53764  1.0000
  C   C9        1.0  0.69707  0.9237799999999998  0.76837  1.0000
  C   C10       1.0  0.57963  0.9212999999999998  0.76988  1.0000
  C   C11       1.0  0.3309  0.9166999999999997  0.74727  1.0000
  C   C12       1.0  0.21341999999999997  0.9193899999999998  0.74688  1.0000
  C   C13       1.0  0.9702099999999999  0.25489  0.8645  1.0000
  C   C14       1.0  0.017509999999999998  0.3422499999999999  0.889  1.0000
  C   C15       1.0  0.94937  0.42140999999999995  0.8961199999999999  1.0000
  C   C16       1.0  0.99754  0.50421  0.9180399999999999  1.0000
  C   C17       1.0  0.11269  0.50871  0.93433  1.0000
  C   C18       1.0  0.1799  0.42888  0.92856  1.0000
  C   C19       1.0  0.13279  0.34666999999999987  0.9053999999999999  1.0000
  C   C20       1.0  0.16275  0.59599  0.96199  1.0000
  C   C21       1.0  0.69713  0.07579  0.73081  1.0000
  C   C22       1.0  0.5797199999999999  0.07820999999999999  0.72922  1.0000
  C   C23       1.0  0.33131  0.08323  0.75204  1.0000
  C   C24       1.0  0.21379999999999996  0.0807  0.75271  1.0000
  C   C25       1.0  0.5303  0.24350999999999995  0.86493  1.0000
  C   C26       1.0  0.48177  0.15623000000000004  0.8897099999999999  1.0000
  C   C27       1.0  0.54888  0.07649999999999997  0.8975000000000001  1.0000
  C   C28       1.0  0.49946  0.99342  0.91849  1.0000
  C   C29       1.0  0.3839999999999999  0.98917  0.93383  1.0000
  C   C30       1.0  0.31754  0.06956999999999999  0.92779  1.0000
  C   C31       1.0  0.3660999999999999  0.15202  0.9051999999999999  1.0000
  C   C32       1.0  0.3335  0.90128  0.96105  1.0000
  C   C33       1.0  0.8018  0.4249299999999999  0.73046  1.0000
  C   C34       1.0  0.9192099999999997  0.42243999999999987  0.72916  1.0000
  C   C35       1.0  0.16766  0.4167999999999999  0.75225  1.0000
  C   C36       1.0  0.28518  0.4192899999999999  0.7528  1.0000
  C   C37       1.0  0.5297  0.7562599999999998  0.63319  1.0000
  C   C38       1.0  0.48224999999999996  0.84412  0.60906  1.0000
  C   C39       1.0  0.55024  0.9235399999999998  0.60147  1.0000
  C   C40       1.0  0.50114  0.00694  0.58094  1.0000
  C   C41       1.0  0.38544999999999996  0.011639999999999996  0.56625  1.0000
  C   C42       1.0  0.31844999999999996  0.9314499999999998  0.57158  1.0000
  C   C43       1.0  0.3664599999999999  0.84878  0.59384  1.0000
  C   C44       1.0  0.33498  0.09998  0.54024  1.0000
  C   C45       1.0  0.80194  0.57596  0.76859  1.0000
  C   C46       1.0  0.91937  0.57839  0.7702  1.0000
  C   C47       1.0  0.16807  0.58344  0.74775  1.0000
  C   C48       1.0  0.28556  0.58075  0.74727  1.0000
  C   C49       1.0  0.02927  0.25504  0.36518  1.0000
  C   C50       1.0  0.9820299999999997  0.34239999999999987  0.38955  1.0000
  C   C51       1.0  0.05016  0.4216399999999999  0.39688999999999997  1.0000
  C   C52       1.0  0.0019  0.50435  0.41862  1.0000
  C   C53       1.0  0.8866999999999998  0.50853  0.43462999999999996  1.0000
  C   C54       1.0  0.81932  0.42878999999999995  0.42857  1.0000
  C   C55       1.0  0.8666299999999999  0.3466999999999999  0.40554000000000007  1.0000
  C   C56       1.0  0.83698  0.5956199999999998  0.4623499999999999  1.0000
  C   C57       1.0  0.30293  0.07621999999999997  0.23163  1.0000
  C   C58       1.0  0.42036999999999997  0.07869999999999998  0.23010999999999998  1.0000
  C   C59       1.0  0.6691  0.08329999999999999  0.25273  1.0000
  C   C60       1.0  0.7865899999999998  0.08061  0.25312  1.0000
  C   C61       1.0  0.029789999999999994  0.7451199999999998  0.1355  1.0000
  C   C62       1.0  0.98249  0.6577499999999998  0.11099  1.0000
  C   C63       1.0  0.05063  0.57859  0.10388  1.0000
  C   C64       1.0  0.00246  0.4958  0.08196  1.0000
  C   C65       1.0  0.8873199999999999  0.4912999999999999  0.06566  1.0000
  C   C66       1.0  0.8201  0.57112  0.07144  1.0000
  C   C67       1.0  0.8672099999999999  0.65334  0.09459  1.0000
  C   C68       1.0  0.8372599999999998  0.4040199999999999  0.03801  1.0000
  C   C69       1.0  0.30287  0.9242099999999999  0.26919  1.0000
  C   C70       1.0  0.42028  0.9218  0.27077  1.0000
  C   C71       1.0  0.66869  0.91677  0.24794999999999998  1.0000
  C   C72       1.0  0.7861999999999999  0.91931  0.24729  1.0000
  C   C73       1.0  0.46969  0.7564999999999997  0.13506  1.0000
  C   C74       1.0  0.51823  0.8437699999999998  0.11028000000000002  1.0000
  C   C75       1.0  0.45113  0.92351  0.1025  1.0000
  C   C76       1.0  0.50055  0.006589999999999999  0.0815  1.0000
  C   C77       1.0  0.61602  0.01084  0.06617  1.0000
  C   C78       1.0  0.6824699999999999  0.9304299999999998  0.07221  1.0000
  C   C79       1.0  0.6339  0.84798  0.09479  1.0000
  C   C80       1.0  0.66658  0.09870999999999999  0.03895  1.0000
  C   C81       1.0  0.1982  0.57507  0.26953  1.0000
  C   C82       1.0  0.08078999999999999  0.57756  0.27084  1.0000
  C   C83       1.0  0.8323399999999999  0.5832099999999998  0.24775  1.0000
  C   C84       1.0  0.71482  0.5807099999999998  0.24719  1.0000
  C   C85       1.0  0.4703  0.24374999999999997  0.3668  1.0000
  C   C86       1.0  0.51775  0.15589  0.39094  1.0000
  C   C87       1.0  0.44976  0.07646999999999997  0.39852  1.0000
  C   C88       1.0  0.49886  0.99307  0.4190499999999999  1.0000
  C   C89       1.0  0.6145499999999999  0.9883699999999997  0.43373999999999996  1.0000
  C   C90       1.0  0.68155  0.06856  0.42841999999999997  1.0000
  C   C91       1.0  0.63354  0.15122999999999995  0.40615  1.0000
  C   C92       1.0  0.66502  0.9000199999999998  0.45975  1.0000
  C   C93       1.0  0.19805999999999999  0.42404  0.23141  1.0000
  C   C94       1.0  0.08063  0.42162  0.22979999999999998  1.0000
  C   C95       1.0  0.83193  0.41656999999999994  0.25225  1.0000
  C   C96       1.0  0.7144399999999999  0.4192599999999999  0.25273  1.0000
  C   C97       1.0  0.51792  0.9997599999999999  0.74956  1.0000
  C   C98       1.0  0.39289999999999997  0.9999099999999999  0.74961  1.0000
  C   C99       1.0  0.9810599999999998  0.50036  0.74979  1.0000
  C   C100      1.0  0.10608  0.50018  0.74995  1.0000
  C   C101      1.0  0.48208  0.00023999999999999917  0.25043  1.0000
  C   C102      1.0  0.6071  9.000000000000041e-05  0.25039  1.0000
  C   C103      1.0  0.018939999999999995  0.49964  0.25021  1.0000
  C   C104      1.0  0.89392  0.4998199999999999  0.25004  1.0000
  N   N1        1.0  0.01521  0.7956599999999998  0.68415  1.0000
  N   N2        1.0  0.94337  0.8685399999999998  0.68934  1.0000
  N   N3        1.0  0.8596799999999998  0.86349  0.64536  1.0000
  N   N4        1.0  0.87583  0.78601  0.61079  1.0000
  N   N5        1.0  0.01495  0.20421  0.8153299999999999  1.0000
  N   N6        1.0  0.9428699999999999  0.13143  0.80979  1.0000
  N   N7        1.0  0.85869  0.13653  0.85336  1.0000
  N   N8        1.0  0.87485  0.21395  0.88806  1.0000
  N   N9        1.0  0.48549  0.2949799999999999  0.81566  1.0000
  N   N10       1.0  0.5583799999999999  0.3671299999999999  0.80928  1.0000
  N   N11       1.0  0.64319  0.36098  0.85251  1.0000
  N   N12       1.0  0.62671  0.2834699999999999  0.8877599999999999  1.0000
  N   N13       1.0  0.48331999999999997  0.7032199999999997  0.68111  1.0000
  N   N14       1.0  0.55587  0.63086  0.68703  1.0000
  N   N15       1.0  0.64195  0.6384499999999997  0.64492  1.0000
  N   N16       1.0  0.62661  0.7170499999999997  0.61075  1.0000
  N   N17       1.0  0.9847899999999999  0.20434999999999998  0.31584  1.0000
  N   N18       1.0  0.056629999999999986  0.13146  0.31066  1.0000
  N   N19       1.0  0.14032  0.13650999999999994  0.35464  1.0000
  N   N20       1.0  0.12416999999999999  0.214  0.38921  1.0000
  N   N21       1.0  0.98506  0.79579  0.18467  1.0000
  N   N22       1.0  0.05712999999999999  0.8685799999999999  0.19021  1.0000
  N   N23       1.0  0.1413  0.86348  0.14664  1.0000
  N   N24       1.0  0.12515  0.78606  0.11192999999999999  1.0000
  N   N25       1.0  0.51451  0.7050199999999999  0.18434  1.0000
  N   N26       1.0  0.44163  0.6328799999999998  0.19072  1.0000
  N   N27       1.0  0.35681  0.63902  0.14749  1.0000
  N   N28       1.0  0.37327999999999995  0.71653  0.11224  1.0000
  N   N29       1.0  0.51668  0.29678  0.31889  1.0000
  N   N30       1.0  0.44412999999999997  0.36915  0.31297  1.0000
  N   N31       1.0  0.35806  0.36155  0.35507  1.0000
  N   N32       1.0  0.37338999999999994  0.2829499999999999  0.38925  1.0000
  N   N33       1.0  0.75599  0.9998099999999999  0.74961  1.0000
  N   N34       1.0  0.15487  7.999999999999972e-05  0.74986  1.0000
  N   N35       1.0  0.74295  0.50044  0.74948  1.0000
  N   N36       1.0  0.34408  0.4999699999999999  0.75004  1.0000
  N   N37       1.0  0.24402  0.00019000000000000006  0.25038  1.0000
  N   N38       1.0  0.84513  0.99992  0.25014  1.0000
  N   N39       1.0  0.25705  0.4995599999999999  0.25052  1.0000
  N   N40       1.0  0.65592  0.50003  0.24995999999999996  1.0000
  O   O1        1.0  0.10828  0.3282699999999999  0.5438  1.0000
  O   O2        1.0  0.25725  0.41084999999999994  0.50695  1.0000
  O   O3        1.0  0.10815  0.6721299999999998  0.95612  1.0000
  O   O4        1.0  0.25719999999999993  0.58948  0.99254  1.0000
  O   O5        1.0  0.38855999999999996  0.8252  0.9564399999999998  1.0000
  O   O6        1.0  0.23778  0.9072499999999998  0.99003  1.0000
  O   O7        1.0  0.38886  0.17618  0.54698  1.0000
  O   O8        1.0  0.24021999999999996  0.09388  0.50987  1.0000
  O   O9        1.0  0.8917199999999997  0.6717399999999998  0.45619  1.0000
  O   O10       1.0  0.7427599999999999  0.58916  0.49304  1.0000
  O   O11       1.0  0.89186  0.3278799999999999  0.04387  1.0000
  O   O12       1.0  0.7427999999999999  0.41053  0.00746  1.0000
  O   O13       1.0  0.6115  0.17477999999999994  0.04354  1.0000
  O   O14       1.0  0.76233  0.09272999999999998  0.01  1.0000
  O   O15       1.0  0.61114  0.8238299999999997  0.45302  1.0000
  O   O16       1.0  0.75978  0.9061199999999999  0.49012999999999995  1.0000
