data_image0
_chemical_formula_structural       Y4H72C120N12O36
_chemical_formula_sum              "Y4 H72 C120 N12 O36"
_cell_length_a       7.94115
_cell_length_b       20.491820000000004
_cell_length_c       33.866130000000005
_cell_angle_alpha    90.43047
_cell_angle_beta     90.00045
_cell_angle_gamma    90.00182

_symmetry_space_group_name_H-M    'P 1'
_symmetry_Int_Tables_number       1

loop_
  _symmetry_equiv_pos_as_xyz
  'x,y,z'

loop_
  _atom_site_type_symbol
  _atom_site_label
  _atom_site_symmetry_multiplicity
  _atom_site_fract_x
  _atom_site_fract_y
  _atom_site_fract_z
  _atom_site_occupancy
  Y   Y1        1.0  0.74649  0.49574  0.012530000000000003  1.0000
  Y   Y2        1.0  0.25354  0.9957599999999999  0.51254  1.0000
  Y   Y3        1.0  0.74647  0.004250000000000001  0.48746000000000006  1.0000
  Y   Y4        1.0  0.25352  0.5042699999999999  0.98747  1.0000
  H   H1        1.0  0.79657  0.19394999999999996  0.4502300000000001  1.0000
  H   H2        1.0  0.12108000000000002  0.41318999999999995  0.30842  1.0000
  H   H3        1.0  0.37169  0.9891599999999999  0.38101  1.0000
  H   H4        1.0  0.9708400000000003  0.5348199999999999  0.7449000000000001  1.0000
  H   H5        1.0  0.36428  0.82017  0.49149  1.0000
  H   H6        1.0  0.86017  0.03586  0.30147  1.0000
  H   H7        1.0  0.20341  0.6939399999999999  0.9502400000000001  1.0000
  H   H8        1.0  0.0291  0.03484999999999999  0.24490000000000003  1.0000
  H   H9        1.0  0.87907  0.9132  0.8084300000000002  1.0000
  H   H10       1.0  0.28115  0.7113299999999999  0.46422000000000013  1.0000
  H   H11       1.0  0.62806  0.33207  0.64045  1.0000
  H   H12       1.0  0.79659  0.3060599999999999  0.04976  1.0000
  H   H13       1.0  0.36431  0.67982  0.0085  1.0000
  H   H14       1.0  0.62812  0.16793  0.85956  1.0000
  H   H15       1.0  0.37194  0.66793  0.35955  1.0000
  H   H16       1.0  0.71883  0.21132999999999993  0.9642500000000002  1.0000
  H   H17       1.0  0.84689  0.20164999999999997  0.08493  1.0000
  H   H18       1.0  0.71591  0.79238  0.49553  1.0000
  H   H19       1.0  0.71885  0.2886699999999999  0.53578  1.0000
  H   H20       1.0  0.8499700000000002  0.0033499999999999997  0.92357  1.0000
  H   H21       1.0  0.61233  0.012559999999999997  0.6927  1.0000
  H   H22       1.0  0.9709000000000002  0.9651499999999998  0.7551  1.0000
  H   H23       1.0  0.63572  0.17982999999999993  0.50852  1.0000
  H   H24       1.0  0.62831  0.010839999999999999  0.61899  1.0000
  H   H25       1.0  0.28410000000000013  0.29236  0.99552  1.0000
  H   H26       1.0  0.37188  0.83207  0.14044  1.0000
  H   H27       1.0  0.52113  0.23226  0.64921  1.0000
  H   H28       1.0  0.15590000000000007  0.96647  0.62505  1.0000
  H   H29       1.0  0.43851  0.37571999999999994  0.87874  1.0000
  H   H30       1.0  0.7756200000000002  0.89834  0.93147  1.0000
  H   H31       1.0  0.3876700000000001  0.98744  0.30730000000000013  1.0000
  H   H32       1.0  0.20343  0.80605  0.5497700000000002  1.0000
  H   H33       1.0  0.7159  0.70765  0.00448  1.0000
  H   H34       1.0  0.66727  0.6862399999999999  0.52869  1.0000
  H   H35       1.0  0.28409  0.20762999999999998  0.50448  1.0000
  H   H36       1.0  0.71823  0.11237  0.81959  1.0000
  H   H37       1.0  0.43848  0.12426999999999999  0.62127  1.0000
  H   H38       1.0  0.33273  0.31376  0.47131  1.0000
  H   H39       1.0  0.8440400000000002  0.46647  0.12506000000000006  1.0000
  H   H40       1.0  0.8441000000000002  0.03353  0.37495  1.0000
  H   H41       1.0  0.71812  0.38764  0.6804300000000002  1.0000
  H   H42       1.0  0.28177  0.8876399999999999  0.18042  1.0000
  H   H43       1.0  0.77561  0.60164  0.56851  1.0000
  H   H44       1.0  0.33268  0.18621999999999997  0.02868  1.0000
  H   H45       1.0  0.15311  0.7983499999999999  0.91508  1.0000
  H   H46       1.0  0.28189  0.6123599999999999  0.31957000000000013  1.0000
  H   H47       1.0  0.6122500000000002  0.48745999999999995  0.8073200000000003  1.0000
  H   H48       1.0  0.15002  0.50337  0.42356  1.0000
  H   H49       1.0  0.15596000000000004  0.53353  0.8749400000000003  1.0000
  H   H50       1.0  0.56152  0.8757399999999999  0.37873  1.0000
  H   H51       1.0  0.56149  0.62429  0.12126000000000002  1.0000
  H   H52       1.0  0.8789200000000003  0.5868099999999999  0.69158  1.0000
  H   H53       1.0  0.62833  0.48917  0.8810300000000001  1.0000
  H   H54       1.0  0.12093000000000002  0.0868  0.19158  1.0000
  H   H55       1.0  0.6357000000000003  0.32018  0.9915000000000002  1.0000
  H   H56       1.0  0.38775  0.51255  0.19268  1.0000
  H   H57       1.0  0.13973  0.53586  0.80146  1.0000
  H   H58       1.0  0.22439  0.10166999999999998  0.06853  1.0000
  H   H59       1.0  0.13983000000000007  0.9641399999999999  0.69853  1.0000
  H   H60       1.0  0.8469  0.29836  0.41507  1.0000
  H   H61       1.0  0.37168  0.51084  0.11897000000000002  1.0000
  H   H62       1.0  0.4788400000000001  0.7322799999999999  0.14919000000000004  1.0000
  H   H63       1.0  0.47887  0.76774  0.3508  1.0000
  H   H64       1.0  0.15003  0.9966499999999998  0.07643  1.0000
  H   H65       1.0  0.5211600000000002  0.26772  0.8508100000000002  1.0000
  H   H66       1.0  0.02916  0.46517999999999987  0.2551  1.0000
  H   H67       1.0  0.1531  0.7016399999999999  0.58493  1.0000
  H   H68       1.0  0.66732  0.81378  0.97132  1.0000
  H   H69       1.0  0.22439  0.39835999999999994  0.4314900000000001  1.0000
  H   H70       1.0  0.28117  0.78867  0.03575  1.0000
  H   H71       1.0  0.8602700000000002  0.46414999999999995  0.19854  1.0000
  H   H72       1.0  0.8499800000000002  0.49662999999999996  0.57645  1.0000
  C   C1        1.0  0.9405500000000002  0.22089  0.06489  1.0000
  C   C2        1.0  0.24106000000000005  0.9319699999999997  0.16566  1.0000
  C   C3        1.0  0.8322100000000002  0.49536999999999987  0.60832  1.0000
  C   C4        1.0  0.86662  0.9507  0.8675400000000002  1.0000
  C   C5        1.0  0.53303  0.35479  0.9369  1.0000
  C   C6        1.0  0.07253000000000003  0.38645999999999997  0.383  1.0000
  C   C7        1.0  0.83225  0.004630000000000002  0.8916900000000002  1.0000
  C   C8        1.0  0.79585  0.014539999999999999  0.80967  1.0000
  C   C9        1.0  0.8932200000000002  0.51103  0.8824600000000001  1.0000
  C   C10       1.0  0.03688000000000002  0.30607  0.02065  1.0000
  C   C11       1.0  0.45401  0.72074  0.11829000000000002  1.0000
  C   C12       1.0  0.18784  0.27175  0.01457  1.0000
  C   C13       1.0  0.6247300000000002  0.2674099999999999  0.59413  1.0000
  C   C14       1.0  0.26025  0.9986799999999999  0.36325  1.0000
  C   C15       1.0  0.07245  0.11353  0.11700000000000003  1.0000
  C   C16       1.0  0.61079  0.19201  0.5392  1.0000
  C   C17       1.0  0.50043  0.16034  0.60292  1.0000
  C   C18       1.0  0.75004  0.11966999999999997  0.90376  1.0000
  C   C19       1.0  0.91332  0.27931  0.04529  1.0000
  C   C20       1.0  0.22148000000000007  0.93609  0.12473000000000001  1.0000
  C   C21       1.0  0.13338  0.049309999999999986  0.13246000000000005  1.0000
  C   C22       1.0  0.53301  0.14521  0.56311  1.0000
  C   C23       1.0  0.03686  0.19393  0.47934000000000004  1.0000
  C   C24       1.0  0.38921  0.8079899999999999  0.4608  1.0000
  C   C25       1.0  0.7957500000000002  0.48548  0.6903300000000001  1.0000
  C   C26       1.0  0.8746100000000002  0.9883099999999999  0.7002000000000003  1.0000
  C   C27       1.0  0.94056  0.27912  0.4351100000000001  1.0000
  C   C28       1.0  0.50045  0.33965  0.89709  1.0000
  C   C29       1.0  0.96314  0.80608  0.52066  1.0000
  C   C30       1.0  0.6574100000000003  0.24721999999999994  0.94581  1.0000
  C   C31       1.0  0.3425900000000001  0.75279  0.054190000000000016  1.0000
  C   C32       1.0  0.09343  0.18761999999999995  0.05936000000000001  1.0000
  C   C33       1.0  0.9883800000000003  0.6275599999999999  0.99587  1.0000
  C   C34       1.0  0.76685  0.4763799999999999  0.73378  1.0000
  C   C35       1.0  0.96312  0.69393  0.9793500000000002  1.0000
  C   C36       1.0  0.47865  0.08187999999999998  0.5465700000000002  1.0000
  C   C37       1.0  0.89319  0.98896  0.6175500000000003  1.0000
  C   C38       1.0  0.75894  0.06804  0.83434  1.0000
  C   C39       1.0  0.8121600000000002  0.7717599999999999  0.51458  1.0000
  C   C40       1.0  0.90658  0.81239  0.94064  1.0000
  C   C41       1.0  0.96284  0.47544999999999993  0.14012  1.0000
  C   C42       1.0  0.14914  0.04384  0.17364  1.0000
  C   C43       1.0  0.20415  0.98547  0.19033  1.0000
  C   C44       1.0  0.12547  0.4883  0.2002  1.0000
  C   C45       1.0  0.3425600000000001  0.74722  0.44579000000000013  1.0000
  C   C46       1.0  0.90404  0.9910499999999999  0.5737200000000002  1.0000
  C   C47       1.0  0.65744  0.25278  0.55421  1.0000
  C   C48       1.0  0.81217  0.7282599999999999  0.98543  1.0000
  C   C49       1.0  0.24114000000000005  0.56803  0.33433  1.0000
  C   C50       1.0  0.85073  0.54386  0.67365  1.0000
  C   C51       1.0  0.45401  0.77928  0.38170000000000004  1.0000
  C   C52       1.0  0.49958000000000014  0.83966  0.39708  1.0000
  C   C53       1.0  0.75886  0.43197  0.66567  1.0000
  C   C54       1.0  0.6107800000000002  0.308  0.96081  1.0000
  C   C55       1.0  0.05945  0.77911  0.93511  1.0000
  C   C56       1.0  0.02782  0.52551  0.81888  1.0000
  C   C57       1.0  0.27021  0.5017099999999999  0.17779  1.0000
  C   C58       1.0  0.10681  0.011039999999999996  0.38245  1.0000
  C   C59       1.0  0.24998  0.61967  0.4037500000000001  1.0000
  C   C60       1.0  0.87453  0.5117  0.7998  1.0000
  C   C61       1.0  0.72987  0.0017299999999999993  0.67781  1.0000
  C   C62       1.0  0.16779000000000005  0.50463  0.39168  1.0000
  C   C63       1.0  0.4669900000000001  0.8547899999999999  0.4369  1.0000
  C   C64       1.0  0.9065700000000002  0.68761  0.55936  1.0000
  C   C65       1.0  0.21512000000000006  0.28749  0.46666  1.0000
  C   C66       1.0  0.05944  0.7208799999999997  0.5648900000000002  1.0000
  C   C67       1.0  0.26026  0.50131  0.13674  1.0000
  C   C68       1.0  0.3752900000000001  0.7674299999999998  0.09411  1.0000
  C   C69       1.0  0.9721  0.0255  0.31889000000000006  1.0000
  C   C70       1.0  0.5213400000000002  0.58187  0.046570000000000014  1.0000
  C   C71       1.0  0.23314000000000004  0.97635  0.23379000000000005  1.0000
  C   C72       1.0  0.21509  0.21251  0.03334  1.0000
  C   C73       1.0  0.38922  0.6920099999999999  0.039190000000000016  1.0000
  C   C74       1.0  0.92756  0.8864699999999998  0.8830000000000002  1.0000
  C   C75       1.0  0.22155000000000005  0.56391  0.37526  1.0000
  C   C76       1.0  0.5459900000000002  0.27926  0.8817100000000002  1.0000
  C   C77       1.0  0.20425  0.51453  0.30967  1.0000
  C   C78       1.0  0.72979  0.4983  0.8222100000000002  1.0000
  C   C79       1.0  0.52135  0.9181199999999998  0.4534300000000001  1.0000
  C   C80       1.0  0.08668  0.7793099999999998  0.5453000000000002  1.0000
  C   C81       1.0  0.13348  0.4506899999999999  0.36753  1.0000
  C   C82       1.0  0.16775  0.9953699999999998  0.10831  1.0000
  C   C83       1.0  0.10678  0.48896999999999996  0.11755  1.0000
  C   C84       1.0  0.27013  0.9982699999999999  0.32219  1.0000
  C   C85       1.0  0.01154  0.12756  0.49587000000000003  1.0000
  C   C86       1.0  0.14927  0.45615  0.32636  1.0000
  C   C87       1.0  0.7668600000000002  0.02365  0.7662100000000002  1.0000
  C   C88       1.0  0.96285  0.024549999999999995  0.35988  1.0000
  C   C89       1.0  0.18784  0.22824  0.48542  1.0000
  C   C90       1.0  0.24996000000000004  0.88034  0.09624  1.0000
  C   C91       1.0  0.9274700000000002  0.6135399999999999  0.617  1.0000
  C   C92       1.0  0.011620000000000004  0.3724499999999999  0.004130000000000001  1.0000
  C   C93       1.0  0.09596  0.008950000000000001  0.4262800000000001  1.0000
  C   C94       1.0  0.37527  0.73259  0.40587  1.0000
  C   C95       1.0  0.08668  0.72069  0.95471  1.0000
  C   C96       1.0  0.12539  0.0117  0.2998  1.0000
  C   C97       1.0  0.4786600000000001  0.41812999999999995  0.95343  1.0000
  C   C98       1.0  0.78488  0.7125199999999999  0.53334  1.0000
  C   C99       1.0  0.03715  0.97545  0.64012  1.0000
  C   C100      1.0  0.90404  0.50895  0.92628  1.0000
  C   C101      1.0  0.85086  0.9561599999999999  0.82636  1.0000
  C   C102      1.0  0.0279  0.9744999999999998  0.68112  1.0000
  C   C103      1.0  0.7849100000000002  0.7874899999999999  0.96666  1.0000
  C   C104      1.0  0.09596  0.49105  0.07372  1.0000
  C   C105      1.0  0.46698  0.64521  0.0631  1.0000
  C   C106      1.0  0.5459900000000002  0.22071999999999997  0.6183000000000002  1.0000
  C   C107      1.0  0.7785200000000002  0.06391  0.87527  1.0000
  C   C108      1.0  0.03716  0.52455  0.85988  1.0000
  C   C109      1.0  0.86652  0.54931  0.63247  1.0000
  C   C110      1.0  0.91332  0.2207  0.4547000000000001  1.0000
  C   C111      1.0  0.7784500000000002  0.43609  0.62474  1.0000
  C   C112      1.0  0.73974  0.49869  0.86326  1.0000
  C   C113      1.0  0.09344  0.31239  0.44064000000000003  1.0000
  C   C114      1.0  0.23315  0.52362  0.26622  1.0000
  C   C115      1.0  0.62471  0.23258  0.9059000000000003  1.0000
  C   C116      1.0  0.4995500000000001  0.6603599999999997  0.10291000000000003  1.0000
  C   C117      1.0  0.7500200000000002  0.38034  0.59625  1.0000
  C   C118      1.0  0.98846  0.8724499999999997  0.50413  1.0000
  C   C119      1.0  0.97218  0.47449  0.18112  1.0000
  C   C120      1.0  0.73975  0.0013200000000000009  0.63676  1.0000
  N   N1        1.0  0.3335100000000001  0.6726199999999999  0.3880200000000001  1.0000
  N   N2        1.0  0.12819  0.37098  0.4205500000000001  1.0000
  N   N3        1.0  0.12892000000000006  0.48721  0.2419  1.0000
  N   N4        1.0  0.66649  0.3273799999999999  0.61198  1.0000
  N   N5        1.0  0.87181  0.62902  0.57945  1.0000
  N   N6        1.0  0.8712200000000002  0.98722  0.7419000000000002  1.0000
  N   N7        1.0  0.12812  0.12903  0.07945000000000002  1.0000
  N   N8        1.0  0.66647  0.17261  0.8880400000000003  1.0000
  N   N9        1.0  0.87108  0.5128  0.7581  1.0000
  N   N10       1.0  0.12878000000000006  0.01279  0.25810000000000005  1.0000
  N   N11       1.0  0.33353  0.82739  0.11196  1.0000
  N   N12       1.0  0.87188  0.87097  0.9205500000000001  1.0000
  O   O1        1.0  0.39206  0.04247  0.56726  1.0000
  O   O2        1.0  0.04932  0.51293  0.94223  1.0000
  O   O3        1.0  0.8621800000000002  0.10427  0.49585  1.0000
  O   O4        1.0  0.8587  0.5970599999999999  0.00803  1.0000
  O   O5        1.0  0.01952  0.64908  0.63709  1.0000
  O   O6        1.0  0.6079500000000002  0.9575299999999999  0.43275000000000013  1.0000
  O   O7        1.0  0.8622500000000002  0.3957399999999999  0.00416  1.0000
  O   O8        1.0  0.3417400000000001  0.56168  0.25408  1.0000
  O   O9        1.0  0.95068  0.48707999999999996  0.05777  1.0000
  O   O10       1.0  0.98032  0.14907  0.13709  1.0000
  O   O11       1.0  0.85877  0.90294  0.49197  1.0000
  O   O12       1.0  0.5096900000000002  0.43243999999999994  0.99034  1.0000
  O   O13       1.0  0.01968  0.85093  0.8629100000000002  1.0000
  O   O14       1.0  0.98048  0.35093  0.36291  1.0000
  O   O15       1.0  0.14123000000000005  0.09706  0.50803  1.0000
  O   O16       1.0  0.60792  0.54246  0.06725  1.0000
  O   O17       1.0  0.04933  0.98707  0.55777  1.0000
  O   O18       1.0  0.65833  0.06164999999999999  0.75408  1.0000
  O   O19       1.0  0.7985900000000002  0.38328  0.56168  1.0000
  O   O20       1.0  0.50968  0.06756  0.5096600000000002  1.0000
  O   O21       1.0  0.49031000000000013  0.56756  0.00966  1.0000
  O   O22       1.0  0.6582600000000002  0.43831999999999993  0.7459200000000002  1.0000
  O   O23       1.0  0.49032  0.93245  0.49034  1.0000
  O   O24       1.0  0.9506700000000002  0.01294  0.44223  1.0000
  O   O25       1.0  0.34167  0.9383599999999997  0.24592  1.0000
  O   O26       1.0  0.13775  0.60427  0.9958400000000001  1.0000
  O   O27       1.0  0.7677200000000002  0.50324  0.9460100000000001  1.0000
  O   O28       1.0  0.14130000000000006  0.40293999999999996  0.9919800000000001  1.0000
  O   O29       1.0  0.13782  0.8957399999999999  0.50415  1.0000
  O   O30       1.0  0.23226  0.00323  0.44602  1.0000
  O   O31       1.0  0.20141000000000006  0.61672  0.43832  1.0000
  O   O32       1.0  0.23228000000000004  0.4967599999999999  0.05399000000000002  1.0000
  O   O33       1.0  0.7986300000000002  0.11671999999999998  0.93833  1.0000
  O   O34       1.0  0.76774  0.9967699999999998  0.55398  1.0000
  O   O35       1.0  0.20137000000000005  0.88328  0.06167  1.0000
  O   O36       1.0  0.3920800000000001  0.45754  0.93275  1.0000
