data_image0
_chemical_formula_structural       Mn8H64C136O32F48
_chemical_formula_sum              "Mn8 H64 C136 O32 F48"
_cell_length_a       10.8591
_cell_length_b       20.94418
_cell_length_c       20.941850000000002
_cell_angle_alpha    86.32577
_cell_angle_beta     75.36004
_cell_angle_gamma    75.32493

_symmetry_space_group_name_H-M    'P 1'
_symmetry_Int_Tables_number       1

loop_
  _symmetry_equiv_pos_as_xyz
  'x,y,z'

loop_
  _atom_site_type_symbol
  _atom_site_label
  _atom_site_symmetry_multiplicity
  _atom_site_fract_x
  _atom_site_fract_y
  _atom_site_fract_z
  _atom_site_occupancy
  Mn  Mn1       1.0  0.75923  0.27588  0.18753  1.0000
  Mn  Mn2       1.0  0.4650900000000001  0.8128199999999999  0.77608  1.0000
  Mn  Mn3       1.0  0.22292  0.22425  0.31321  1.0000
  Mn  Mn4       1.0  0.05213000000000011  0.68709  0.72463  1.0000
  Mn  Mn5       1.0  0.24078000000000008  0.72412  0.81247  1.0000
  Mn  Mn6       1.0  0.53491  0.18718  0.22391999999999998  1.0000
  Mn  Mn7       1.0  0.7770799999999999  0.77575  0.68678  1.0000
  Mn  Mn8       1.0  0.94787  0.31292  0.27536  1.0000
  H   H1        1.0  0.97268  0.133  0.13164  1.0000
  H   H2        1.0  0.76365  0.9716500000000001  0.59613  1.0000
  H   H3        1.0  0.13081000000000004  0.48522  0.38807  1.0000
  H   H4        1.0  0.98907  0.8290300000000002  0.11797  1.0000
  H   H5        1.0  0.99504  0.986  0.8886999999999999  1.0000
  H   H6        1.0  0.3938400000000002  0.8688  0.63328  1.0000
  H   H7        1.0  0.23824999999999996  0.36663  0.36836  1.0000
  H   H8        1.0  0.5571599999999999  0.78246  0.03281  1.0000
  H   H9        1.0  0.10689999999999995  0.38081  0.8291400000000001  1.0000
  H   H10       1.0  0.86805  0.70743  0.4953  1.0000
  H   H11       1.0  0.62639  0.28343  0.53345  1.0000
  H   H12       1.0  0.4090800000000002  0.53343  0.21722  1.0000
  H   H13       1.0  0.68145  0.88171  0.32947  1.0000
  H   H14       1.0  0.89311  0.61919  0.17086  1.0000
  H   H15       1.0  0.23511999999999997  0.5962  0.52951  1.0000
  H   H16       1.0  0.71238  0.30244  0.41591  1.0000
  H   H17       1.0  0.7201600000000002  0.08807  0.55869  1.0000
  H   H18       1.0  0.3605600000000001  0.9044299999999998  0.97168  1.0000
  H   H19       1.0  0.07447  0.49562999999999996  0.79213  1.0000
  H   H20       1.0  0.9290199999999997  0.20808000000000001  0.9966499999999999  1.0000
  H   H21       1.0  0.4293699999999999  0.19796  0.08488  1.0000
  H   H22       1.0  0.48173000000000005  0.88862  0.51474  1.0000
  H   H23       1.0  0.86919  0.51478  0.61193  1.0000
  H   H24       1.0  0.004960000000000005  0.014  0.1113  1.0000
  H   H25       1.0  0.8830500000000002  0.61178  0.9860399999999999  1.0000
  H   H26       1.0  0.5909200000000001  0.46657000000000004  0.78278  1.0000
  H   H27       1.0  0.63944  0.09557  0.02832  1.0000
  H   H28       1.0  0.31856  0.1183  0.67053  1.0000
  H   H29       1.0  0.6918299999999998  0.44097  0.58698  1.0000
  H   H30       1.0  0.37361  0.71657  0.46654  1.0000
  H   H31       1.0  0.6061699999999999  0.1312  0.36672  1.0000
  H   H32       1.0  0.8723199999999999  0.91487  0.69718  1.0000
  H   H33       1.0  0.12768  0.08513  0.30282  1.0000
  H   H34       1.0  0.36402  0.0035800000000000003  0.70785  1.0000
  H   H35       1.0  0.30816999999999994  0.55903  0.41302  1.0000
  H   H36       1.0  0.11696  0.38823  0.01396  1.0000
  H   H37       1.0  0.23634999999999998  0.02835  0.40387  1.0000
  H   H38       1.0  0.5182700000000001  0.11138  0.48525  1.0000
  H   H39       1.0  0.36804999999999993  0.41272  0.94135  1.0000
  H   H40       1.0  0.28762999999999994  0.69756  0.58408  1.0000
  H   H41       1.0  0.83908  0.03279  0.71694  1.0000
  H   H42       1.0  0.76176  0.63338  0.63163  1.0000
  H   H43       1.0  0.6679000000000002  0.47075999999999996  0.09572  1.0000
  H   H44       1.0  0.2801100000000001  0.94173  0.08814  1.0000
  H   H45       1.0  0.6319499999999998  0.58729  0.05865  1.0000
  H   H46       1.0  0.010939999999999974  0.17097  0.88202  1.0000
  H   H47       1.0  0.7648899999999998  0.4038  0.47048999999999996  1.0000
  H   H48       1.0  0.9255300000000002  0.50437  0.20786999999999997  1.0000
  H   H49       1.0  0.4428400000000001  0.21753999999999998  0.9671900000000001  1.0000
  H   H50       1.0  0.33211  0.52925  0.90428  1.0000
  H   H51       1.0  0.51359  0.41596  0.19821999999999998  1.0000
  H   H52       1.0  0.27985  0.91193  0.44131  1.0000
  H   H53       1.0  0.10512  0.36803  0.13289  1.0000
  H   H54       1.0  0.63599  0.99642  0.29215  1.0000
  H   H55       1.0  0.13195999999999994  0.29257  0.5047  1.0000
  H   H56       1.0  0.16091999999999998  0.9672100000000001  0.28305  1.0000
  H   H57       1.0  0.57064  0.80204  0.9151199999999999  1.0000
  H   H58       1.0  0.06278  0.32966  0.61918  1.0000
  H   H59       1.0  0.7199000000000001  0.05827  0.91185  1.0000
  H   H60       1.0  0.9372199999999999  0.67034  0.38082  1.0000
  H   H61       1.0  0.07098999999999996  0.79192  0.00335  1.0000
  H   H62       1.0  0.48641999999999996  0.58404  0.8017799999999999  1.0000
  H   H63       1.0  0.027329999999999983  0.8669999999999999  0.86836  1.0000
  H   H64       1.0  0.89488  0.63197  0.8671  1.0000
  C   C1        1.0  0.8291499999999999  0.38756  0.50365  1.0000
  C   C2        1.0  0.9537200000000002  0.88309  0.78094  1.0000
  C   C3        1.0  0.8716200000000001  0.11142  0.88782  1.0000
  C   C4        1.0  0.9979100000000001  0.32028  0.41000999999999993  1.0000
  C   C5        1.0  0.65114  0.778  0.3992  1.0000
  C   C6        1.0  0.21469000000000002  0.4703899999999999  0.34641  1.0000
  C   C7        1.0  0.08530000000000007  0.98142  0.19547  1.0000
  C   C8        1.0  0.014049999999999984  0.0962  0.16439  1.0000
  C   C9        1.0  0.27499000000000007  0.31448  0.90858  1.0000
  C   C10       1.0  0.55841  0.97797  0.32537  1.0000
  C   C11       1.0  0.6969699999999999  0.56924  0.09109  1.0000
  C   C12       1.0  0.13831999999999992  0.47750000000000004  0.82512  1.0000
  C   C13       1.0  0.8987799999999998  0.9306300000000001  0.7392  1.0000
  C   C14       1.0  0.08963000000000006  0.9085  0.18549  1.0000
  C   C15       1.0  0.43307999999999996  0.02038  0.34516  1.0000
  C   C16       1.0  0.36128  0.23974  0.06922  1.0000
  C   C17       1.0  0.15702999999999998  0.41219  0.8464799999999999  1.0000
  C   C18       1.0  0.3336000000000001  0.9957899999999998  0.38786  1.0000
  C   C19       1.0  0.3488599999999999  0.22201  0.6008  1.0000
  C   C20       1.0  0.03568000000000006  0.3254  0.52265  1.0000
  C   C21       1.0  0.78532  0.52962  0.65359  1.0000
  C   C22       1.0  0.5705899999999995  0.56867  0.76031  1.0000
  C   C23       1.0  0.75956  0.61241  0.11156  1.0000
  C   C24       1.0  0.27925999999999995  0.8881099999999998  0.00417  1.0000
  C   C25       1.0  0.6094499999999998  0.16436  0.4036699999999999  1.0000
  C   C26       1.0  0.12838000000000005  0.8885799999999999  0.11218  1.0000
  C   C27       1.0  0.86168  0.5225  0.17488  1.0000
  C   C28       1.0  0.79878  0.47955999999999993  0.15463  1.0000
  C   C29       1.0  0.40822  0.08975  0.31999  1.0000
  C   C30       1.0  0.23348999999999998  0.90925  0.06957  1.0000
  C   C31       1.0  0.5606299999999999  0.68746  0.73395  1.0000
  C   C32       1.0  0.18602999999999983  0.3467  0.029259999999999998  1.0000
  C   C33       1.0  0.7250200000000001  0.68553  0.09142  1.0000
  C   C34       1.0  0.98596  0.9038  0.8356099999999999  1.0000
  C   C35       1.0  0.25178  0.26553  0.18771  1.0000
  C   C36       1.0  0.8710599999999993  0.38866  0.61253  1.0000
  C   C37       1.0  0.82855  0.72233  0.09993  1.0000
  C   C38       1.0  0.72966  0.3605  0.71817  1.0000
  C   C39       1.0  0.95333  0.3451  0.47952999999999996  1.0000
  C   C40       1.0  0.88398  0.17481  0.9781600000000001  1.0000
  C   C41       1.0  0.9147100000000002  0.01859  0.80452  1.0000
  C   C42       1.0  0.2718800000000001  0.82003  0.91027  1.0000
  C   C43       1.0  0.73975  0.48139999999999994  0.69595  1.0000
  C   C44       1.0  0.42941000000000007  0.43133  0.23969  1.0000
  C   C45       1.0  0.33079999999999987  0.73921  0.56868  1.0000
  C   C46       1.0  0.017259999999999994  0.18775  0.23454  1.0000
  C   C47       1.0  0.70501  0.23403  0.31268  1.0000
  C   C48       1.0  0.8168999999999998  0.40874  0.68593  1.0000
  C   C49       1.0  0.3819300000000003  0.38336  0.28138  1.0000
  C   C50       1.0  0.046289999999999984  0.11691  0.21905  1.0000
  C   C51       1.0  0.36865  0.25127  0.00245  1.0000
  C   C52       1.0  0.26024999999999987  0.5186  0.30404  1.0000
  C   C53       1.0  0.06989999999999999  0.84658  0.08706  1.0000
  C   C54       1.0  0.20123000000000002  0.52045  0.84537  1.0000
  C   C55       1.0  0.56692  0.97962  0.65484  1.0000
  C   C56       1.0  0.9827499999999998  0.81226  0.76546  1.0000
  C   C57       1.0  0.7197900000000002  0.69546  0.01859  1.0000
  C   C58       1.0  0.2837200000000001  0.49621  0.8878599999999999  1.0000
  C   C59       1.0  0.22165  0.84534  0.97952  1.0000
  C   C60       1.0  0.5531  0.21708000000000002  0.63962  1.0000
  C   C61       1.0  0.7346099999999998  0.71883  0.8831300000000001  1.0000
  C   C62       1.0  0.59022  0.71761  0.13913  1.0000
  C   C63       1.0  0.4416  0.02203  0.67463  1.0000
  C   C64       1.0  0.3585899999999998  0.9304400000000002  0.40918  1.0000
  C   C65       1.0  0.2654  0.28117  0.11687  1.0000
  C   C66       1.0  0.8211699999999997  0.66453  0.9038400000000001  1.0000
  C   C67       1.0  0.4360700000000001  0.80397  0.48143  1.0000
  C   C68       1.0  0.24044000000000001  0.3876  0.88844  1.0000
  C   C69       1.0  0.6205700000000001  0.24952999999999997  0.498  1.0000
  C   C70       1.0  0.12895000000000004  0.61134  0.38747  1.0000
  C   C71       1.0  0.4395000000000001  0.8466499999999999  0.52955  1.0000
  C   C72       1.0  0.3794399999999999  0.75047  0.50199  1.0000
  C   C73       1.0  0.9643299999999998  0.6746  0.47735  1.0000
  C   C74       1.0  0.30302999999999997  0.43076  0.9089  1.0000
  C   C75       1.0  0.7783599999999999  0.15466  0.02047  1.0000
  C   C76       1.0  0.44690999999999986  0.78292  0.36038  1.0000
  C   C77       1.0  0.10122999999999999  0.06938  0.2608  1.0000
  C   C78       1.0  0.27034  0.6395  0.28183  1.0000
  C   C79       1.0  0.12033000000000002  0.00255  0.24914  1.0000
  C   C80       1.0  0.6692  0.2608  0.43132  1.0000
  C   C81       1.0  0.7207400000000002  0.11188999999999999  0.99583  1.0000
  C   C82       1.0  0.11602000000000004  0.82519  0.02183  1.0000
  C   C83       1.0  0.7281299999999999  0.17997  0.08973  1.0000
  C   C84       1.0  0.3371400000000003  0.78122  0.61655  1.0000
  C   C85       1.0  0.66286  0.21879  0.38345  1.0000
  C   C86       1.0  0.41643  0.08719  0.65305  1.0000
  C   C87       1.0  0.7482300000000001  0.73447  0.81229  1.0000
  C   C88       1.0  0.63022  0.50198  0.74907  1.0000
  C   C89       1.0  0.28021  0.30454  0.9814099999999999  1.0000
  C   C90       1.0  0.21122000000000005  0.5913  0.43088000000000004  1.0000
  C   C91       1.0  0.84297  0.58781  0.15352  1.0000
  C   C92       1.0  0.27448  0.40359999999999996  0.33547  1.0000
  C   C93       1.0  0.9292999999999998  0.40027  0.72184  1.0000
  C   C94       1.0  0.78878  0.40870000000000006  0.56912  1.0000
  C   C95       1.0  0.6664  0.00421  0.61214  1.0000
  C   C96       1.0  0.50339  0.81454  0.40885  1.0000
  C   C97       1.0  0.17145000000000005  0.27767  0.90007  1.0000
  C   C98       1.0  0.04668000000000001  0.6549  0.52046  1.0000
  C   C99       1.0  0.3905499999999999  0.83564  0.59632  1.0000
  C   C100      1.0  0.18311000000000005  0.59126  0.31407  1.0000
  C   C101      1.0  0.81813  0.41004000000000007  0.17934  1.0000
  C   C102      1.0  0.5639299999999998  0.19603  0.51857  1.0000
  C   C103      1.0  0.4966200000000001  0.18546  0.59115  1.0000
  C   C104      1.0  0.51586  0.11212000000000001  0.61083  1.0000
  C   C105      1.0  0.63135  0.74873  0.99755  1.0000
  C   C106      1.0  0.004359999999999995  0.65314  0.41211  1.0000
  C   C107      1.0  0.40978999999999993  0.2824  0.86086  1.0000
  C   C108      1.0  0.9301100000000002  0.15342  0.9129399999999999  1.0000
  C   C109      1.0  0.5917899999999998  0.91025  0.68001  1.0000
  C   C110      1.0  0.72553  0.59641  0.66453  1.0000
  C   C111      1.0  0.04968999999999998  0.10012  0.77873  1.0000
  C   C112      1.0  0.6387300000000002  0.76026  0.93077  1.0000
  C   C113      1.0  0.07069999999999996  0.59973  0.27816  1.0000
  C   C114      1.0  0.9672000000000001  0.9707399999999999  0.84695  1.0000
  C   C115      1.0  0.8796700000000004  0.9974599999999999  0.75086  1.0000
  C   C116      1.0  0.61807  0.61665  0.71861  1.0000
  C   C117      1.0  0.7665099999999999  0.09076  0.9304299999999999  1.0000
  C   C118      1.0  0.43938  0.31254  0.26605  1.0000
  C   C119      1.0  0.0328  0.029259999999999998  0.15305  1.0000
  C   C120      1.0  0.71628  0.50379  0.11213000000000001  1.0000
  C   C121      1.0  0.8139699999999997  0.6533  0.97074  1.0000
  C   C122      1.0  0.18187999999999993  0.58997  0.82065  1.0000
  C   C123      1.0  0.64142  0.06956  0.59082  1.0000
  C   C124      1.0  0.56051  0.15335  0.4704499999999999  1.0000
  C   C125      1.0  0.9103799999999999  0.0915  0.8145  1.0000
  C   C126      1.0  0.00209  0.67972  0.58999  1.0000
  C   C127      1.0  0.9503200000000002  0.8998800000000001  0.22126  1.0000
  C   C128      1.0  0.17084999999999995  0.61244  0.49635000000000007  1.0000
  C   C129      1.0  0.48414999999999997  0.88788  0.38917  1.0000
  C   C130      1.0  0.17884  0.33547  0.09615  1.0000
  C   C131      1.0  0.5835699999999998  0.91281  0.34695  1.0000
  C   C132      1.0  0.9956499999999999  0.34686  0.58788  1.0000
  C   C133      1.0  0.29500000000000004  0.76597  0.68732  1.0000
  C   C134      1.0  0.19193  0.86008  0.21836  1.0000
  C   C135      1.0  0.36979000000000006  0.49802  0.25093  1.0000
  C   C136      1.0  0.8080800000000001  0.13992  0.78164  1.0000
  O   O1        1.0  0.6353599999999999  0.1586  0.12825  1.0000
  O   O2        1.0  0.5029  0.1055  0.27715  1.0000
  O   O3        1.0  0.25413999999999987  0.71313  0.70498  1.0000
  O   O4        1.0  0.5321  0.29504  0.21315  1.0000
  O   O5        1.0  0.7458599999999999  0.28687  0.29502  1.0000
  O   O6        1.0  0.23409999999999997  0.62901  0.84337  1.0000
  O   O7        1.0  0.7659  0.37099  0.15662  1.0000
  O   O8        1.0  0.9234000000000001  0.34253  0.37091  1.0000
  O   O9        1.0  0.8910599999999999  0.72186  0.60603  1.0000
  O   O10       1.0  0.11339000000000005  0.60613  0.77794  1.0000
  O   O11       1.0  0.03937999999999998  0.20586  0.28767  1.0000
  O   O12       1.0  0.78204  0.22197  0.10617000000000001  1.0000
  O   O13       1.0  0.8363800000000002  0.69717  0.76803  1.0000
  O   O14       1.0  0.3646499999999999  0.8414  0.8717500000000001  1.0000
  O   O15       1.0  0.16363000000000014  0.30283  0.23196999999999998  1.0000
  O   O16       1.0  0.9658899999999999  0.23193  0.19699  1.0000
  O   O17       1.0  0.9606199999999999  0.7941400000000001  0.71233  1.0000
  O   O18       1.0  0.21797  0.77803  0.89383  1.0000
  O   O19       1.0  0.8866099999999999  0.39387  0.22206  1.0000
  O   O20       1.0  0.03411000000000012  0.76807  0.80301  1.0000
  O   O21       1.0  0.69733  0.19673  0.26815  1.0000
  O   O22       1.0  0.32685  0.21274999999999997  0.20581  1.0000
  O   O23       1.0  0.39564  0.26806  0.30363  1.0000
  O   O24       1.0  0.7045600000000002  0.87114  0.65767  1.0000
  O   O25       1.0  0.30267000000000005  0.80327  0.73185  1.0000
  O   O26       1.0  0.6731600000000001  0.78726  0.79419  1.0000
  O   O27       1.0  0.10894000000000004  0.27814  0.39397  1.0000
  O   O28       1.0  0.46790000000000015  0.70496  0.78685  1.0000
  O   O29       1.0  0.07660999999999989  0.65747  0.62909  1.0000
  O   O30       1.0  0.49711000000000005  0.8945  0.72285  1.0000
  O   O31       1.0  0.29545  0.12886  0.34233  1.0000
  O   O32       1.0  0.6043600000000001  0.73194  0.69637  1.0000
  F   F1        1.0  0.3071399999999999  0.87911  0.20283  1.0000
  F   F2        1.0  0.3136399999999999  0.79717  0.38065  1.0000
  F   F3        1.0  0.50975  0.29862  0.8791699999999999  1.0000
  F   F4        1.0  0.66639  0.71675  0.42645  1.0000
  F   F5        1.0  0.4126  0.30287  0.7978500000000001  1.0000
  F   F6        1.0  0.7143699999999998  0.8121  0.42845  1.0000
  F   F7        1.0  0.52154  0.1933  0.70169  1.0000
  F   F8        1.0  0.6928600000000001  0.12089  0.79717  1.0000
  F   F9        1.0  0.054940000000000065  0.16477  0.77116  1.0000
  F   F10       1.0  0.29725999999999997  0.64086  0.21464  1.0000
  F   F11       1.0  0.2856299999999999  0.18791  0.57154  1.0000
  F   F12       1.0  0.19320999999999997  0.21592  0.9268  1.0000
  F   F13       1.0  0.7821899999999999  0.20279  0.8032200000000002  1.0000
  F   F14       1.0  0.8599000000000001  0.9303699999999999  0.18732  1.0000
  F   F15       1.0  0.17085000000000006  0.26951  0.8360999999999998  1.0000
  F   F16       1.0  0.8485099999999999  0.14268  0.71441  1.0000
  F   F17       1.0  0.21782  0.79721  0.19678  1.0000
  F   F18       1.0  0.97969  0.56758  0.3115  1.0000
  F   F19       1.0  0.49113  0.71603  0.35585  1.0000
  F   F20       1.0  0.8848  0.42542  0.78418  1.0000
  F   F21       1.0  0.4784700000000001  0.8066999999999999  0.29831  1.0000
  F   F22       1.0  0.09135999999999998  0.07288  0.71735  1.0000
  F   F23       1.0  0.5088699999999999  0.28397  0.64415  1.0000
  F   F24       1.0  0.020320000000000036  0.43242  0.6885  1.0000
  F   F25       1.0  0.7027499999999999  0.35914  0.78536  1.0000
  F   F26       1.0  0.15150000000000002  0.85732  0.28558  1.0000
  F   F27       1.0  0.2836799999999999  0.23129  0.66571  1.0000
  F   F28       1.0  0.33361999999999997  0.28325  0.57355  1.0000
  F   F29       1.0  0.14011  0.06963  0.81268  1.0000
  F   F30       1.0  0.95236  0.68882  0.06929  1.0000
  F   F31       1.0  0.99415  0.33616  0.72716  1.0000
  F   F32       1.0  0.6863699999999998  0.20283  0.61935  1.0000
  F   F33       1.0  0.11519999999999997  0.57458  0.21582  1.0000
  F   F34       1.0  0.9450700000000001  0.8352300000000001  0.22883999999999996  1.0000
  F   F35       1.0  0.21145  0.7022  0.30214  1.0000
  F   F36       1.0  0.5874099999999999  0.69713  0.20213999999999996  1.0000
  F   F37       1.0  0.8291600000000001  0.73049  0.16389  1.0000
  F   F38       1.0  0.61225  0.37793  0.70139  1.0000
  F   F39       1.0  0.9086399999999999  0.92712  0.28265  1.0000
  F   F40       1.0  0.04764000000000008  0.31119  0.9307099999999999  1.0000
  F   F41       1.0  0.56377  0.7847  0.1396  1.0000
  F   F42       1.0  0.005859999999999987  0.66384  0.27284  1.0000
  F   F43       1.0  0.7885600000000001  0.2978  0.69786  1.0000
  F   F44       1.0  0.38776000000000005  0.62208  0.2986  1.0000
  F   F45       1.0  0.71633  0.76872  0.33429  1.0000
  F   F46       1.0  0.43624  0.2153  0.8603999999999999  1.0000
  F   F47       1.0  0.49025000000000013  0.70138  0.12082  1.0000
  F   F48       1.0  0.8067999999999997  0.78408  0.0732  1.0000
