data_image0
_chemical_formula_structural       Cd10H96C168N8O48
_chemical_formula_sum              "Cd10 H96 C168 N8 O48"
_cell_length_a       14.76356
_cell_length_b       15.63795
_cell_length_c       23.71864
_cell_angle_alpha    89.94523
_cell_angle_beta     89.98791999999999
_cell_angle_gamma    107.60156999999998

_space_group_name_H-M_alt    "P 1"
_space_group_IT_number       1

loop_
  _space_group_symop_operation_xyz
  'x, y, z'

loop_
  _atom_site_type_symbol
  _atom_site_label
  _atom_site_symmetry_multiplicity
  _atom_site_fract_x
  _atom_site_fract_y
  _atom_site_fract_z
  _atom_site_occupancy
  Cd  Cd1       1.0  0.25698  0.91325  0.56086  1.0000
  Cd  Cd2       1.0  0.25258999999999987  0.8017099999999998  0.6959100000000001  1.0000
  Cd  Cd3       1.0  0.7430499999999998  0.58593  0.060520000000000004  1.0000
  Cd  Cd4       1.0  0.74805  0.69682  0.19563  1.0000
  Cd  Cd5       1.0  0.7430199999999998  0.08673999999999997  0.43913000000000013  1.0000
  Cd  Cd6       1.0  0.7474199999999998  0.19828  0.3040900000000001  1.0000
  Cd  Cd7       1.0  0.25695  0.4140599999999999  0.9394800000000001  1.0000
  Cd  Cd8       1.0  0.2519499999999999  0.3031799999999999  0.8043700000000001  1.0000
  Cd  Cd9       1.0  0.4999999999999999  0.0  0.5  1.0000
  Cd  Cd10      1.0  0.4999999999999999  0.4999999999999999  0.0  1.0000
  H   H1        1.0  0.5983699999999997  0.82139  0.81108  1.0000
  H   H2        1.0  0.4212399999999999  0.75192  0.6687  1.0000
  H   H3        1.0  0.5139799999999998  0.5374899999999998  0.72533  1.0000
  H   H4        1.0  0.5465999999999998  0.70755  0.71947  1.0000
  H   H5        1.0  0.523  0.77976  0.5439500000000002  1.0000
  H   H6        1.0  0.40805  0.3011  0.62403  1.0000
  H   H7        1.0  0.50963  0.62202  0.56877  1.0000
  H   H8        1.0  0.7995699999999998  0.81553  0.4730400000000001  1.0000
  H   H9        1.0  0.8187899999999999  0.70012  0.77414  1.0000
  H   H10       1.0  0.57572  0.74712  0.90522  1.0000
  H   H11       1.0  0.053709999999999904  0.9055799999999998  0.7413  1.0000
  H   H12       1.0  0.7906899999999999  0.65893  0.50131  1.0000
  H   H13       1.0  0.6178699999999998  0.013969999999999995  0.63792  1.0000
  H   H14       1.0  0.52443  0.37058  0.54833  1.0000
  H   H15       1.0  0.80399  0.6381099999999997  0.8718400000000001  1.0000
  H   H16       1.0  0.7460399999999998  0.9683099999999998  0.6868400000000002  1.0000
  H   H17       1.0  0.89344  0.87805  0.78555  1.0000
  H   H18       1.0  0.63434  0.55369  0.4363500000000001  1.0000
  H   H19       1.0  0.63369  0.6073499999999997  0.65064  1.0000
  H   H20       1.0  0.7268899999999998  0.41445  0.5711  1.0000
  H   H21       1.0  0.9227499999999997  0.82588  0.5804600000000001  1.0000
  H   H22       1.0  0.6902599999999999  0.46294999999999986  0.36588  1.0000
  H   H23       1.0  0.7616999999999998  0.79525  0.62403  1.0000
  H   H24       1.0  0.7865  0.32654  0.49942  1.0000
  H   H25       1.0  0.4014099999999999  0.67805  0.31091  1.0000
  H   H26       1.0  0.579  0.7465  0.16858000000000004  1.0000
  H   H27       1.0  0.48656000000000005  0.9639399999999999  0.22532000000000002  1.0000
  H   H28       1.0  0.45383  0.7915299999999997  0.21893  1.0000
  H   H29       1.0  0.4784199999999999  0.7222999999999999  0.0446  1.0000
  H   H30       1.0  0.5918299999999997  0.19996  0.12364  1.0000
  H   H31       1.0  0.49081999999999987  0.8800599999999997  0.06911  1.0000
  H   H32       1.0  0.20164999999999994  0.68501  0.97377  1.0000
  H   H33       1.0  0.18121  0.7996  0.27408  1.0000
  H   H34       1.0  0.4243  0.75233  0.40497  1.0000
  H   H35       1.0  0.9463999999999997  0.59429  0.24121000000000004  1.0000
  H   H36       1.0  0.20951999999999996  0.8416  0.00166  1.0000
  H   H37       1.0  0.3813899999999999  0.48501  0.13792000000000001  1.0000
  H   H38       1.0  0.4755699999999999  0.13035  0.047970000000000006  1.0000
  H   H39       1.0  0.19634999999999986  0.8618399999999998  0.37161  1.0000
  H   H40       1.0  0.2535399999999999  0.53144  0.1867  1.0000
  H   H41       1.0  0.10664  0.6217  0.28547  1.0000
  H   H42       1.0  0.36577999999999994  0.9466999999999998  0.93649  1.0000
  H   H43       1.0  0.3666199999999999  0.89371  0.15086  1.0000
  H   H44       1.0  0.27239999999999986  0.08683999999999999  0.07027  1.0000
  H   H45       1.0  0.07754999999999995  0.6745399999999999  0.08034  1.0000
  H   H46       1.0  0.31021  0.03666  0.8654100000000001  1.0000
  H   H47       1.0  0.23852  0.70483  0.12385000000000003  1.0000
  H   H48       1.0  0.21395999999999996  0.17459  0.9980100000000001  1.0000
  H   H49       1.0  0.40163  0.1786  0.18892  1.0000
  H   H50       1.0  0.57876  0.24807  0.3313  1.0000
  H   H51       1.0  0.48602  0.4625  0.27467  1.0000
  H   H52       1.0  0.4534  0.29245  0.28053  1.0000
  H   H53       1.0  0.47699999999999987  0.22022999999999995  0.45605  1.0000
  H   H54       1.0  0.5919499999999998  0.6989  0.37597  1.0000
  H   H55       1.0  0.4903699999999998  0.37798  0.43123000000000006  1.0000
  H   H56       1.0  0.20042999999999994  0.18446  0.52696  1.0000
  H   H57       1.0  0.1812099999999999  0.2998699999999999  0.22586  1.0000
  H   H58       1.0  0.42429  0.25287  0.09478000000000002  1.0000
  H   H59       1.0  0.9462899999999997  0.09440999999999997  0.2587  1.0000
  H   H60       1.0  0.20930999999999989  0.3410699999999999  0.49869  1.0000
  H   H61       1.0  0.3821299999999999  0.98602  0.3620800000000001  1.0000
  H   H62       1.0  0.47556999999999977  0.6294099999999998  0.45167  1.0000
  H   H63       1.0  0.19600999999999988  0.36187999999999987  0.12815  1.0000
  H   H64       1.0  0.2539599999999999  0.03169  0.31316  1.0000
  H   H65       1.0  0.10656999999999996  0.12193999999999999  0.21444000000000005  1.0000
  H   H66       1.0  0.36565999999999993  0.44629999999999986  0.56365  1.0000
  H   H67       1.0  0.3663099999999999  0.3926499999999999  0.34936  1.0000
  H   H68       1.0  0.2731099999999999  0.58554  0.4289  1.0000
  H   H69       1.0  0.07724999999999997  0.17412  0.41954  1.0000
  H   H70       1.0  0.3097399999999998  0.5370499999999998  0.63412  1.0000
  H   H71       1.0  0.2382999999999999  0.20474  0.37597  1.0000
  H   H72       1.0  0.21349999999999994  0.67346  0.50058  1.0000
  H   H73       1.0  0.5985899999999998  0.32194  0.6890900000000001  1.0000
  H   H74       1.0  0.4209999999999999  0.25348999999999994  0.83142  1.0000
  H   H75       1.0  0.5134399999999998  0.03605  0.7746800000000001  1.0000
  H   H76       1.0  0.54617  0.20846999999999993  0.78107  1.0000
  H   H77       1.0  0.52158  0.27768999999999994  0.9553900000000001  1.0000
  H   H78       1.0  0.40817  0.80004  0.87636  1.0000
  H   H79       1.0  0.5091799999999999  0.11992999999999997  0.93089  1.0000
  H   H80       1.0  0.7983599999999998  0.31499  0.026230000000000003  1.0000
  H   H81       1.0  0.8187899999999999  0.20039  0.72592  1.0000
  H   H82       1.0  0.5756999999999998  0.24767  0.59503  1.0000
  H   H83       1.0  0.053599999999999995  0.40571  0.75879  1.0000
  H   H84       1.0  0.7904799999999996  0.15839999999999999  0.99834  1.0000
  H   H85       1.0  0.6186099999999997  0.5149799999999999  0.8620800000000001  1.0000
  H   H86       1.0  0.5244299999999997  0.8696399999999997  0.95203  1.0000
  H   H87       1.0  0.8036499999999998  0.13814999999999994  0.62839  1.0000
  H   H88       1.0  0.7464599999999998  0.46856  0.8133  1.0000
  H   H89       1.0  0.8933599999999999  0.37829  0.71453  1.0000
  H   H90       1.0  0.63422  0.05329  0.06351  1.0000
  H   H91       1.0  0.6333799999999999  0.10628999999999997  0.84914  1.0000
  H   H92       1.0  0.7275999999999998  0.9131599999999997  0.92973  1.0000
  H   H93       1.0  0.92245  0.32546  0.91966  1.0000
  H   H94       1.0  0.6897899999999998  0.96334  0.13459  1.0000
  H   H95       1.0  0.7614799999999998  0.29517  0.8761500000000002  1.0000
  H   H96       1.0  0.78604  0.8254099999999998  0.0019900000000000004  1.0000
  C   C1        1.0  0.7114699999999999  0.7669699999999998  0.78656  1.0000
  C   C2        1.0  0.64159  0.7793299999999997  0.8235500000000002  1.0000
  C   C3        1.0  0.4915399999999999  0.8002299999999998  0.67367  1.0000
  C   C4        1.0  0.4514599999999999  0.41683999999999993  0.6782700000000002  1.0000
  C   C5        1.0  0.51731  0.50226  0.68619  1.0000
  C   C6        1.0  0.5117899999999997  0.8869  0.65079  1.0000
  C   C7        1.0  0.56195  0.7745799999999998  0.7016800000000001  1.0000
  C   C8        1.0  0.66184  0.8069499999999997  0.50683  1.0000
  C   C9        1.0  0.58108  0.7525399999999998  0.5349  1.0000
  C   C10       1.0  0.6769699999999997  0.48967  0.50821  1.0000
  C   C11       1.0  0.58423  0.49477  0.59373  1.0000
  C   C12       1.0  0.4575699999999998  0.36814999999999987  0.6294100000000001  1.0000
  C   C13       1.0  0.6538799999999999  0.83526  0.7061100000000001  1.0000
  C   C14       1.0  0.43917  0.9163  0.61904  1.0000
  C   C15       1.0  0.57405  0.6646299999999998  0.54917  1.0000
  C   C16       1.0  0.73705  0.77246  0.49442  1.0000
  C   C17       1.0  0.7676399999999998  0.71259  0.8034300000000001  1.0000
  C   C18       1.0  0.6297999999999998  0.73907  0.8764000000000002  1.0000
  C   C19       1.0  0.3747799999999999  0.3807  0.72125  1.0000
  C   C20       1.0  0.6898099999999998  0.69017  0.89464  1.0000
  C   C21       1.0  0.6661699999999998  0.9012399999999998  0.49134  1.0000
  C   C22       1.0  0.9891599999999997  0.8803699999999998  0.7165000000000002  1.0000
  C   C23       1.0  0.7318899999999998  0.68531  0.50987  1.0000
  C   C24       1.0  0.6494499999999997  0.6299599999999997  0.53652  1.0000
  C   C25       1.0  0.9973399999999998  0.8646799999999998  0.65874  1.0000
  C   C26       1.0  0.60377  0.9471699999999997  0.65567  1.0000
  C   C27       1.0  0.68183  0.6528499999999998  0.9531700000000002  1.0000
  C   C28       1.0  0.52317  0.4066  0.58732  1.0000
  C   C29       1.0  0.75865  0.67715  0.8574700000000001  1.0000
  C   C30       1.0  0.8178899999999997  0.8318199999999998  0.7079900000000001  1.0000
  C   C31       1.0  0.6747599999999996  0.9217899999999998  0.68278  1.0000
  C   C32       1.0  0.90026  0.86501  0.74101  1.0000
  C   C33       1.0  0.6682199999999998  0.50462  0.4501600000000001  1.0000
  C   C34       1.0  0.58361  0.54084  0.64476  1.0000
  C   C35       1.0  0.7196999999999999  0.42527  0.52623  1.0000
  C   C36       1.0  0.09331999999999999  0.8785  0.63327  1.0000
  C   C37       1.0  0.9150799999999997  0.83616  0.62535  1.0000
  C   C38       1.0  0.6996299999999998  0.45421  0.41082000000000013  1.0000
  C   C39       1.0  0.82558  0.81926  0.6496000000000001  1.0000
  C   C40       1.0  0.7525099999999998  0.3762199999999999  0.48648  1.0000
  C   C41       1.0  0.7417099999999999  0.3893  0.42853  1.0000
  C   C42       1.0  0.76963  0.33068  0.38611  1.0000
  C   C43       1.0  0.2886  0.73273  0.28634  1.0000
  C   C44       1.0  0.35833  0.72025  0.32338  1.0000
  C   C45       1.0  0.50856  0.69837  0.17353000000000005  1.0000
  C   C46       1.0  0.54834  0.08456  0.17806  1.0000
  C   C47       1.0  0.4829499999999999  0.9989799999999999  0.18611  1.0000
  C   C48       1.0  0.4881899999999999  0.61162  0.15086  1.0000
  C   C49       1.0  0.4382199999999998  0.7244199999999997  0.20133000000000006  1.0000
  C   C50       1.0  0.33928  0.69439  0.007910000000000002  1.0000
  C   C51       1.0  0.4200199999999998  0.7491899999999998  0.03566  1.0000
  C   C52       1.0  0.32299999999999995  0.011249999999999996  0.007960000000000002  1.0000
  C   C53       1.0  0.41551  0.00635  0.09372000000000001  1.0000
  C   C54       1.0  0.54231  0.13293  0.12902  1.0000
  C   C55       1.0  0.3461099999999998  0.6641199999999998  0.20589  1.0000
  C   C56       1.0  0.5608799999999998  0.5819  0.11931000000000001  1.0000
  C   C57       1.0  0.4265599999999998  0.8370599999999998  0.04962000000000001  1.0000
  C   C58       1.0  0.26382  0.72841  0.9952  1.0000
  C   C59       1.0  0.23246999999999987  0.7871499999999998  0.30329  1.0000
  C   C60       1.0  0.3702499999999999  0.76054  0.37618  1.0000
  C   C61       1.0  0.6243299999999998  0.12166999999999997  0.22112  1.0000
  C   C62       1.0  0.3105899999999998  0.8097999999999999  0.39446  1.0000
  C   C63       1.0  0.33523  0.60018  0.99269  1.0000
  C   C64       1.0  0.010989999999999925  0.6195799999999998  0.21640000000000004  1.0000
  C   C65       1.0  0.2685199999999998  0.8155099999999997  0.01033  1.0000
  C   C66       1.0  0.35076  0.87118  0.03686  1.0000
  C   C67       1.0  0.002950000000000018  0.63543  0.15861  1.0000
  C   C68       1.0  0.3959099999999999  0.55182  0.15565000000000004  1.0000
  C   C69       1.0  0.31912999999999986  0.8471799999999999  0.45305  1.0000
  C   C70       1.0  0.4767099999999999  0.09440999999999997  0.08704000000000002  1.0000
  C   C71       1.0  0.24166999999999994  0.82273  0.3573  1.0000
  C   C72       1.0  0.18222999999999992  0.6680199999999997  0.20785000000000006  1.0000
  C   C73       1.0  0.3250099999999998  0.5776099999999997  0.18262  1.0000
  C   C74       1.0  0.09983999999999997  0.63485  0.24091  1.0000
  C   C75       1.0  0.33209  0.99608  0.9499600000000001  1.0000
  C   C76       1.0  0.4164999999999998  0.9602999999999998  0.14481  1.0000
  C   C77       1.0  0.2802599999999999  0.07584999999999997  0.025520000000000004  1.0000
  C   C78       1.0  0.9068999999999996  0.6213599999999998  0.13321  1.0000
  C   C79       1.0  0.08522  0.66413  0.12522  1.0000
  C   C80       1.0  0.30067  0.04611  0.91025  1.0000
  C   C81       1.0  0.17465999999999993  0.6808099999999999  0.14946  1.0000
  C   C82       1.0  0.24778999999999995  0.12467  0.9854200000000001  1.0000
  C   C83       1.0  0.25837  0.11112  0.92751  1.0000
  C   C84       1.0  0.23076999999999992  0.17031  0.88511  1.0000
  C   C85       1.0  0.28853  0.23303  0.21344  1.0000
  C   C86       1.0  0.3584099999999999  0.22067  0.17644000000000004  1.0000
  C   C87       1.0  0.5084599999999999  0.19975999999999994  0.32633  1.0000
  C   C88       1.0  0.5485399999999998  0.58315  0.32173  1.0000
  C   C89       1.0  0.48269  0.49772999999999995  0.31381  1.0000
  C   C90       1.0  0.4882099999999999  0.11309  0.3492100000000001  1.0000
  C   C91       1.0  0.43805  0.22540999999999994  0.29831  1.0000
  C   C92       1.0  0.3381599999999999  0.19304  0.4931700000000001  1.0000
  C   C93       1.0  0.4189199999999999  0.24745999999999996  0.46509  1.0000
  C   C94       1.0  0.3230299999999998  0.5103199999999999  0.49178  1.0000
  C   C95       1.0  0.41576999999999986  0.50523  0.40627000000000013  1.0000
  C   C96       1.0  0.5424299999999999  0.6318399999999997  0.37059  1.0000
  C   C97       1.0  0.34613  0.16473  0.29388  1.0000
  C   C98       1.0  0.56083  0.08369999999999997  0.38095  1.0000
  C   C99       1.0  0.4259499999999999  0.33536  0.45083000000000006  1.0000
  C   C100      1.0  0.26295  0.22754  0.50558  1.0000
  C   C101      1.0  0.23236  0.28741  0.19657  1.0000
  C   C102      1.0  0.3701999999999999  0.26092  0.1236  1.0000
  C   C103      1.0  0.62522  0.6193  0.27875  1.0000
  C   C104      1.0  0.31019  0.30983  0.10536000000000002  1.0000
  C   C105      1.0  0.33383  0.09876  0.50865  1.0000
  C   C106      1.0  0.010840000000000004  0.11962  0.2835  1.0000
  C   C107      1.0  0.26811  0.31468  0.49013  1.0000
  C   C108      1.0  0.3505499999999998  0.3700399999999999  0.46347  1.0000
  C   C109      1.0  0.002659999999999995  0.13532  0.34126  1.0000
  C   C110      1.0  0.39623  0.05283  0.3443300000000001  1.0000
  C   C111      1.0  0.3181699999999999  0.3471499999999999  0.04683  1.0000
  C   C112      1.0  0.47682999999999987  0.5934  0.4126700000000001  1.0000
  C   C113      1.0  0.24134999999999995  0.32284  0.14252  1.0000
  C   C114      1.0  0.18210999999999997  0.16817999999999994  0.29201  1.0000
  C   C115      1.0  0.32524  0.07820999999999997  0.31722  1.0000
  C   C116      1.0  0.09974  0.13498999999999994  0.25899  1.0000
  C   C117      1.0  0.33178  0.49537  0.54984  1.0000
  C   C118      1.0  0.41638999999999987  0.45916  0.35524  1.0000
  C   C119      1.0  0.28029999999999994  0.5747299999999997  0.4737600000000001  1.0000
  C   C120      1.0  0.90668  0.12148999999999997  0.36673  1.0000
  C   C121      1.0  0.08491999999999997  0.16384  0.37465  1.0000
  C   C122      1.0  0.30037  0.54578  0.58918  1.0000
  C   C123      1.0  0.17441999999999994  0.18073  0.35040000000000004  1.0000
  C   C124      1.0  0.24748999999999993  0.62378  0.51352  1.0000
  C   C125      1.0  0.25828999999999996  0.61069  0.57147  1.0000
  C   C126      1.0  0.23037  0.66932  0.6138900000000002  1.0000
  C   C127      1.0  0.7113999999999998  0.26726  0.71365  1.0000
  C   C128      1.0  0.6416699999999997  0.27974  0.67662  1.0000
  C   C129      1.0  0.4914399999999999  0.30163  0.8264700000000001  1.0000
  C   C130      1.0  0.45166  0.91543  0.82194  1.0000
  C   C131      1.0  0.51705  0.00102  0.81389  1.0000
  C   C132      1.0  0.5118099999999998  0.38838  0.84914  1.0000
  C   C133      1.0  0.56178  0.27557  0.79867  1.0000
  C   C134      1.0  0.6607199999999998  0.3056099999999999  0.9920900000000002  1.0000
  C   C135      1.0  0.57998  0.2508  0.9643400000000002  1.0000
  C   C136      1.0  0.6769999999999999  0.9887399999999997  0.99204  1.0000
  C   C137      1.0  0.58449  0.99365  0.90627  1.0000
  C   C138      1.0  0.45768999999999993  0.86707  0.87098  1.0000
  C   C139      1.0  0.6538999999999998  0.33587  0.7941100000000002  1.0000
  C   C140      1.0  0.4391199999999999  0.4181  0.88069  1.0000
  C   C141      1.0  0.57344  0.16292999999999994  0.95038  1.0000
  C   C142      1.0  0.7361799999999998  0.2715899999999999  0.0048000000000000004  1.0000
  C   C143      1.0  0.7675299999999998  0.21285  0.6967  1.0000
  C   C144      1.0  0.6297499999999999  0.23945999999999995  0.62382  1.0000
  C   C145      1.0  0.3756699999999999  0.8783199999999998  0.77888  1.0000
  C   C146      1.0  0.6894099999999999  0.19019  0.60554  1.0000
  C   C147      1.0  0.66477  0.39982  0.0073100000000000005  1.0000
  C   C148      1.0  0.98901  0.38041  0.7836  1.0000
  C   C149      1.0  0.7314799999999999  0.18449  0.9896700000000002  1.0000
  C   C150      1.0  0.64924  0.12882  0.96313  1.0000
  C   C151      1.0  0.9970499999999998  0.36456  0.8413800000000002  1.0000
  C   C152      1.0  0.6040899999999998  0.4481699999999999  0.84435  1.0000
  C   C153      1.0  0.68087  0.15282  0.54695  1.0000
  C   C154      1.0  0.5232899999999998  0.9055899999999998  0.9129600000000001  1.0000
  C   C155      1.0  0.7583299999999997  0.17725999999999997  0.6427  1.0000
  C   C156      1.0  0.81777  0.33197  0.79215  1.0000
  C   C157      1.0  0.6749899999999998  0.42238999999999993  0.81738  1.0000
  C   C158      1.0  0.9001599999999997  0.3651399999999999  0.7590900000000003  1.0000
  C   C159      1.0  0.66791  0.00391  0.05003000000000001  1.0000
  C   C160      1.0  0.5835  0.03969  0.85518  1.0000
  C   C161      1.0  0.7197399999999997  0.9241499999999998  0.9744800000000002  1.0000
  C   C162      1.0  0.0931  0.37863  0.8667900000000001  1.0000
  C   C163      1.0  0.91478  0.33587  0.87478  1.0000
  C   C164      1.0  0.6993299999999999  0.9538899999999998  0.08975000000000001  1.0000
  C   C165      1.0  0.8253399999999999  0.31919  0.8505400000000002  1.0000
  C   C166      1.0  0.7522099999999999  0.8753299999999998  0.01458  1.0000
  C   C167      1.0  0.74163  0.8888699999999998  0.07248  1.0000
  C   C168      1.0  0.7692299999999997  0.82969  0.11489000000000003  1.0000
  N   N1        1.0  0.7270099999999998  0.80991  0.73374  1.0000
  N   N2        1.0  0.6415099999999998  0.5391399999999998  0.54825  1.0000
  N   N3        1.0  0.2731099999999998  0.6897799999999997  0.23353  1.0000
  N   N4        1.0  0.35816  0.9619099999999998  0.04835  1.0000
  N   N5        1.0  0.2729899999999999  0.19007999999999994  0.26626  1.0000
  N   N6        1.0  0.35848999999999986  0.4608599999999999  0.45175  1.0000
  N   N7        1.0  0.7268899999999998  0.31021  0.7664600000000001  1.0000
  N   N8        1.0  0.64185  0.03808  0.95165  1.0000
  O   O1        1.0  0.46360999999999986  0.9913699999999998  0.5943  1.0000
  O   O2        1.0  0.6132599999999998  0.9353899999999998  0.52018  1.0000
  O   O3        1.0  0.16408  0.88776  0.66659  1.0000
  O   O4        1.0  0.72283  0.9390299999999998  0.45193000000000005  1.0000
  O   O5        1.0  0.3536799999999999  0.86193  0.61691  1.0000
  O   O6        1.0  0.60463  0.6416499999999999  0.98013  1.0000
  O   O7        1.0  0.32267  0.2988099999999999  0.71701  1.0000
  O   O8        1.0  0.10004999999999992  0.8831399999999998  0.57995  1.0000
  O   O9        1.0  0.7559999999999998  0.63636  0.97177  1.0000
  O   O10       1.0  0.3646099999999999  0.43264  0.76025  1.0000
  O   O11       1.0  0.7325099999999998  0.32881  0.33653  1.0000
  O   O12       1.0  0.8224699999999998  0.28451  0.40029  1.0000
  O   O13       1.0  0.53659  0.50683  0.09469  1.0000
  O   O14       1.0  0.39034  0.56715  0.02043  1.0000
  O   O15       1.0  0.83609  0.6099  0.16682  1.0000
  O   O16       1.0  0.2765599999999998  0.5615099999999997  0.9545200000000003  1.0000
  O   O17       1.0  0.6463  0.63642  0.11705  1.0000
  O   O18       1.0  0.39598999999999995  0.8568399999999998  0.48006  1.0000
  O   O19       1.0  0.6744999999999998  0.20414  0.21717000000000003  1.0000
  O   O20       1.0  0.9001599999999996  0.6187899999999997  0.07988  1.0000
  O   O21       1.0  0.2457299999999999  0.86524  0.47163  1.0000
  O   O22       1.0  0.63589  0.06981999999999997  0.25996  1.0000
  O   O23       1.0  0.26356  0.16928  0.83462  1.0000
  O   O24       1.0  0.18232  0.22031  0.9002200000000001  1.0000
  O   O25       1.0  0.53639  0.00863  0.40569  1.0000
  O   O26       1.0  0.38673999999999986  0.0646  0.47982000000000014  1.0000
  O   O27       1.0  0.8359199999999998  0.11223999999999999  0.33341  1.0000
  O   O28       1.0  0.2771699999999999  0.06096  0.5480700000000001  1.0000
  O   O29       1.0  0.64632  0.13807  0.3830900000000001  1.0000
  O   O30       1.0  0.39536999999999994  0.35833999999999994  0.01987  1.0000
  O   O31       1.0  0.6773299999999998  0.70118  0.28299  1.0000
  O   O32       1.0  0.8999499999999998  0.11685999999999998  0.42005  1.0000
  O   O33       1.0  0.24399999999999988  0.3636299999999999  0.028230000000000005  1.0000
  O   O34       1.0  0.63539  0.56735  0.23975000000000002  1.0000
  O   O35       1.0  0.26749  0.67119  0.66346  1.0000
  O   O36       1.0  0.17753  0.71549  0.59971  1.0000
  O   O37       1.0  0.46340999999999993  0.4931699999999999  0.90531  1.0000
  O   O38       1.0  0.6096599999999998  0.43285  0.9795700000000003  1.0000
  O   O39       1.0  0.16391  0.39009  0.8331800000000001  1.0000
  O   O40       1.0  0.72344  0.43848  0.04548  1.0000
  O   O41       1.0  0.3536999999999999  0.3635799999999999  0.88295  1.0000
  O   O42       1.0  0.60401  0.14315  0.51993  1.0000
  O   O43       1.0  0.3254999999999999  0.79586  0.78283  1.0000
  O   O44       1.0  0.09983999999999997  0.38121  0.9201200000000002  1.0000
  O   O45       1.0  0.75427  0.13474999999999995  0.52837  1.0000
  O   O46       1.0  0.3641099999999999  0.93017  0.7400400000000003  1.0000
  O   O47       1.0  0.73644  0.83072  0.16537000000000002  1.0000
  O   O48       1.0  0.8176799999999999  0.7796799999999998  0.09978  1.0000
