data_image0
_chemical_formula_structural       Ag4H112C152N16
_chemical_formula_sum              "Ag4 H112 C152 N16"
_cell_length_a       16.70936
_cell_length_b       16.71044
_cell_length_c       17.84024
_cell_angle_alpha    117.98436000000001
_cell_angle_beta     117.97806
_cell_angle_gamma    89.92592999999998

_space_group_name_H-M_alt    "P 1"
_space_group_IT_number       1

loop_
  _space_group_symop_operation_xyz
  'x, y, z'

loop_
  _atom_site_type_symbol
  _atom_site_label
  _atom_site_symmetry_multiplicity
  _atom_site_fract_x
  _atom_site_fract_y
  _atom_site_fract_z
  _atom_site_occupancy
  Ag  Ag1       1.0  0.36465  0.36499  0.72972  1.0000
  Ag  Ag2       1.0  0.63496  0.63537  0.27022  1.0000
  Ag  Ag3       1.0  0.88537  0.38498  0.77023  1.0000
  Ag  Ag4       1.0  0.6149600000000001  0.11465  0.22973  1.0000
  H   H1        1.0  0.11608  0.03647000000000002  0.46030000000000004  1.0000
  H   H2        1.0  0.05339  0.8661  0.33445  1.0000
  H   H3        1.0  0.33739  0.8393  0.44078  1.0000
  H   H4        1.0  0.40091  0.008880000000000015  0.56359  1.0000
  H   H5        1.0  0.1701700000000001  0.7265300000000001  0.19202000000000005  1.0000
  H   H6        1.0  0.27204  0.72255  0.28578  1.0000
  H   H7        1.0  0.26372  0.70993  0.42156  1.0000
  H   H8        1.0  0.018159999999999992  0.72557  0.19517  1.0000
  H   H9        1.0  0.01622999999999999  0.71843  0.29058  1.0000
  H   H10       1.0  0.03188  0.47771  0.06181  1.0000
  H   H11       1.0  0.13421000000000002  0.43955000000000005  0.8605700000000001  1.0000
  H   H12       1.0  0.06901000000000015  0.49585000000000007  0.9668000000000001  1.0000
  H   H13       1.0  0.3495500000000001  0.6041100000000001  0.23002000000000006  1.0000
  H   H14       1.0  0.41601  0.5469  0.12333  1.0000
  H   H15       1.0  0.34426000000000007  0.42384  0.46037  1.0000
  H   H16       1.0  0.28110000000000007  0.46824000000000005  0.33444000000000007  1.0000
  H   H17       1.0  0.10339  0.60139  0.44051  1.0000
  H   H18       1.0  0.16268000000000002  0.55472  0.56344  1.0000
  H   H19       1.0  0.02185000000000001  0.46533  0.19184  1.0000
  H   H20       1.0  0.013800000000000014  0.5631  0.28562  1.0000
  H   H21       1.0  0.15799000000000005  0.71156  0.4215300000000001  1.0000
  H   H22       1.0  0.17707  0.4696  0.19515  1.0000
  H   H23       1.0  0.27444  0.57215  0.29061  1.0000
  H   H24       1.0  0.03007  0.58405  0.06186  1.0000
  H   H25       1.0  0.7262500000000002  0.42094000000000004  0.8605400000000001  1.0000
  H   H26       1.0  0.89766  0.47077  0.96665  1.0000
  H   H27       1.0  0.88045  0.62577  0.22999  1.0000
  H   H28       1.0  0.7073500000000003  0.5763  0.12326000000000001  1.0000
  H   H29       1.0  0.57592  0.88381  0.53975  1.0000
  H   H30       1.0  0.5315500000000002  0.94657  0.66579  1.0000
  H   H31       1.0  0.39876  0.66257  0.55925  1.0000
  H   H32       1.0  0.44549  0.59907  0.43631  1.0000
  H   H33       1.0  0.53472  0.82972  0.80813  1.0000
  H   H34       1.0  0.43707000000000024  0.72792  0.71432  1.0000
  H   H35       1.0  0.28853  0.73625  0.57841  1.0000
  H   H36       1.0  0.53042  0.98167  0.80491  1.0000
  H   H37       1.0  0.42778  0.9836199999999999  0.70948  1.0000
  H   H38       1.0  0.4159400000000001  0.9681399999999999  0.93811  1.0000
  H   H39       1.0  0.5791799999999999  0.8658  0.13944  1.0000
  H   H40       1.0  0.52933  0.93097  0.0332  1.0000
  H   H41       1.0  0.3742800000000001  0.65046  0.76995  1.0000
  H   H42       1.0  0.42374  0.58406  0.8767  1.0000
  H   H43       1.0  0.96372  0.65595  0.53973  1.0000
  H   H44       1.0  0.13406  0.71905  0.66565  1.0000
  H   H45       1.0  0.16059999999999997  0.89651  0.55919  1.0000
  H   H46       1.0  0.99102  0.83728  0.43635  1.0000
  H   H47       1.0  0.2734  0.97825  0.80801  1.0000
  H   H48       1.0  0.27733  0.98625  0.71428  1.0000
  H   H49       1.0  0.2900700000000001  0.84199  0.57849  1.0000
  H   H50       1.0  0.27454999999999996  0.82305  0.80475  1.0000
  H   H51       1.0  0.28173  0.72557  0.70933  1.0000
  H   H52       1.0  0.52231  0.9698700000000001  0.9382000000000003  1.0000
  H   H53       1.0  0.5603400000000004  0.27375  0.1395  1.0000
  H   H54       1.0  0.50405  0.10235999999999999  0.03336  1.0000
  H   H55       1.0  0.3957500000000001  0.11952999999999996  0.77003  1.0000
  H   H56       1.0  0.453  0.29261  0.87674  1.0000
  H   H57       1.0  0.13381  0.32595  0.039810000000000005  1.0000
  H   H58       1.0  0.19658  0.28161  0.16585  1.0000
  H   H59       1.0  0.91259  0.14878  0.0593  1.0000
  H   H60       1.0  0.84907  0.19548999999999997  0.93636  1.0000
  H   H61       1.0  0.07971  0.28468  0.3081  1.0000
  H   H62       1.0  0.9779200000000001  0.18701  0.21429  1.0000
  H   H63       1.0  0.9862700000000001  0.03848000000000001  0.07840000000000001  1.0000
  H   H64       1.0  0.23167000000000001  0.28038  0.30489  1.0000
  H   H65       1.0  0.23364000000000004  0.17774  0.20945  1.0000
  H   H66       1.0  0.21815000000000007  0.16592  0.4381  1.0000
  H   H67       1.0  0.11579  0.32919  0.63944  1.0000
  H   H68       1.0  0.18098  0.2793  0.5332  1.0000
  H   H69       1.0  0.90046  0.12433999999999999  0.26996  1.0000
  H   H70       1.0  0.8340599999999999  0.1738  0.37671  1.0000
  H   H71       1.0  0.90594  0.71369  0.03969  1.0000
  H   H72       1.0  0.96903  0.88401  0.16556  1.0000
  H   H73       1.0  0.14653  0.91055  0.05919000000000001  1.0000
  H   H74       1.0  0.08731000000000001  0.74098  0.93634  1.0000
  H   H75       1.0  0.22827000000000003  0.023399999999999994  0.30802  1.0000
  H   H76       1.0  0.23627999999999996  0.02729999999999999  0.21429  1.0000
  H   H77       1.0  0.09201  0.04002  0.07846  1.0000
  H   H78       1.0  0.07304  0.024529999999999986  0.30474  1.0000
  H   H79       1.0  0.97559  0.031709999999999995  0.20933  1.0000
  H   H80       1.0  0.21988000000000008  0.27230000000000004  0.4381900000000001  1.0000
  H   H81       1.0  0.5237300000000001  0.31034  0.63947  1.0000
  H   H82       1.0  0.35234  0.25403  0.53333  1.0000
  H   H83       1.0  0.36954  0.14576  0.27002  1.0000
  H   H84       1.0  0.5426300000000001  0.20303  0.37677  1.0000
  H   H85       1.0  0.67385  0.09429000000000007  0.96037  1.0000
  H   H86       1.0  0.7182800000000001  0.031140000000000112  0.8344600000000002  1.0000
  H   H87       1.0  0.85137  0.8533900000000001  0.9404900000000002  1.0000
  H   H88       1.0  0.8047000000000002  0.91266  0.06341  1.0000
  H   H89       1.0  0.7153  0.77187  0.69181  1.0000
  H   H90       1.0  0.8130400000000001  0.7638000000000001  0.7855800000000001  1.0000
  H   H91       1.0  0.9615300000000001  0.90797  0.9215000000000001  1.0000
  H   H92       1.0  0.71957  0.9270600000000002  0.6951400000000002  1.0000
  H   H93       1.0  0.8221400000000002  0.02442999999999998  0.7906  1.0000
  H   H94       1.0  0.8340500000000002  0.78008  0.56186  1.0000
  H   H95       1.0  0.67093  0.47625  0.36053  1.0000
  H   H96       1.0  0.7207400000000002  0.64765  0.46664000000000005  1.0000
  H   H97       1.0  0.8757900000000002  0.63045  0.72999  1.0000
  H   H98       1.0  0.82632  0.45735000000000003  0.62326  1.0000
  H   H99       1.0  0.2864499999999999  0.8660799999999998  0.96032  1.0000
  H   H100      1.0  0.11608  0.80338  0.83444  1.0000
  H   H101      1.0  0.08927000000000006  0.08739000000000004  0.9407500000000001  1.0000
  H   H102      1.0  0.2588700000000001  0.15088  0.06357  1.0000
  H   H103      1.0  0.97651  0.92017  0.69201  1.0000
  H   H104      1.0  0.9725400000000003  0.022030000000000067  0.7857700000000001  1.0000
  H   H105      1.0  0.95992  0.013700000000000013  0.92155  1.0000
  H   H106      1.0  0.9755500000000001  0.7681700000000001  0.6951700000000001  1.0000
  H   H107      1.0  0.9684100000000001  0.76623  0.79056  1.0000
  H   H108      1.0  0.72768  0.7818700000000001  0.56178  1.0000
  H   H109      1.0  0.68951  0.88421  0.36056  1.0000
  H   H110      1.0  0.7458100000000001  0.81901  0.46678  1.0000
  H   H111      1.0  0.8541100000000001  0.09954000000000006  0.7300100000000002  1.0000
  H   H112      1.0  0.7968900000000001  0.16600000000000012  0.6233200000000002  1.0000
  C   C1        1.0  0.29841  0.13178000000000006  0.59736  1.0000
  C   C2        1.0  0.2632800000000001  0.03556  0.52304  1.0000
  C   C3        1.0  0.16403  0.99288  0.45566  1.0000
  C   C4        1.0  0.12943000000000002  0.89657  0.38504  1.0000
  C   C5        1.0  0.18959  0.83779  0.37824  1.0000
  C   C6        1.0  0.28817000000000015  0.88165  0.4440800000000001  1.0000
  C   C7        1.0  0.32485000000000014  0.9776200000000002  0.51442  1.0000
  C   C8        1.0  0.15367  0.73108  0.30819  1.0000
  C   C9        1.0  0.19459  0.69703  0.23998  1.0000
  C   C10       1.0  0.0452  0.69519  0.24218  1.0000
  C   C11       1.0  0.16313000000000002  0.58782  0.17404  1.0000
  C   C12       1.0  0.31328  0.45368  0.91903  1.0000
  C   C13       1.0  0.27951  0.48891  0.98449  1.0000
  C   C14       1.0  0.18135000000000015  0.4754900000000001  0.9414300000000001  1.0000
  C   C15       1.0  0.14496  0.50783  0.00267  1.0000
  C   C16       1.0  0.20374  0.55394  0.10744  1.0000
  C   C17       1.0  0.30178  0.56771  0.14919  1.0000
  C   C18       1.0  0.34012000000000014  0.53581  0.08951  1.0000
  C   C19       1.0  0.29864  0.46559  0.59716  1.0000
  C   C20       1.0  0.25967  0.48751000000000005  0.52289  1.0000
  C   C21       1.0  0.2916300000000001  0.46275  0.45561  1.0000
  C   C22       1.0  0.25564  0.4884  0.38498  1.0000
  C   C23       1.0  0.18874000000000002  0.54042  0.37816000000000005  1.0000
  C   C24       1.0  0.15589000000000006  0.56237  0.4438600000000001  1.0000
  C   C25       1.0  0.18948  0.53681  0.51421  1.0000
  C   C26       1.0  0.15456  0.57703  0.30812  1.0000
  C   C27       1.0  0.04544999999999999  0.54283  0.23987  1.0000
  C   C28       1.0  0.19705000000000003  0.54698  0.24219  1.0000
  C   C29       1.0  0.010980000000000004  0.58615  0.17402  1.0000
  C   C30       1.0  0.60567  0.4655  0.91906  1.0000
  C   C31       1.0  0.7049000000000001  0.4954900000000001  0.9844600000000001  1.0000
  C   C32       1.0  0.7599600000000003  0.4658600000000001  0.9413900000000002  1.0000
  C   C33       1.0  0.85762  0.4947  0.0025800000000000007  1.0000
  C   C34       1.0  0.9037000000000001  0.5534  0.10738  1.0000
  C   C35       1.0  0.8474200000000002  0.58135  0.14915  1.0000
  C   C36       1.0  0.7493900000000002  0.55358  0.08945  1.0000
  C   C37       1.0  0.18646  0.68637  0.37279  1.0000
  C   C38       1.0  0.05516  0.55509  0.11025  1.0000
  C   C39       1.0  0.53446  0.70159  0.4028  1.0000
  C   C40       1.0  0.51252  0.7367  0.47709  1.0000
  C   C41       1.0  0.5371300000000002  0.8359499999999999  0.5445  1.0000
  C   C42       1.0  0.51149  0.87054  0.61514  1.0000
  C   C43       1.0  0.45959  0.81036  0.62184  1.0000
  C   C44       1.0  0.43772999999999995  0.71178  0.55599  1.0000
  C   C45       1.0  0.4633300000000001  0.6751  0.4856500000000001  1.0000
  C   C46       1.0  0.423  0.8462500000000001  0.6919  1.0000
  C   C47       1.0  0.45725  0.80535  0.76009  1.0000
  C   C48       1.0  0.4530200000000001  0.9547000000000001  0.7579000000000001  1.0000
  C   C49       1.0  0.41394  0.83689  0.82596  1.0000
  C   C50       1.0  0.53454  0.68677  0.08099  1.0000
  C   C51       1.0  0.50456  0.72053  0.01555  1.0000
  C   C52       1.0  0.5342300000000002  0.81867  0.05858  1.0000
  C   C53       1.0  0.5054100000000001  0.8550500000000001  0.9973300000000003  1.0000
  C   C54       1.0  0.44671  0.79628  0.89256  1.0000
  C   C55       1.0  0.41873000000000016  0.6982500000000001  0.8508000000000001  1.0000
  C   C56       1.0  0.44646000000000013  0.65994  0.91051  1.0000
  C   C57       1.0  0.8682400000000002  0.70132  0.40261000000000013  1.0000
  C   C58       1.0  0.96448  0.7403800000000001  0.47694000000000003  1.0000
  C   C59       1.0  0.007200000000000105  0.70853  0.54436  1.0000
  C   C60       1.0  0.10353000000000005  0.74448  0.61502  1.0000
  C   C61       1.0  0.16223000000000012  0.81134  0.6217500000000001  1.0000
  C   C62       1.0  0.11830999999999994  0.84409  0.55593  1.0000
  C   C63       1.0  0.022360000000000043  0.8104899999999999  0.48558  1.0000
  C   C64       1.0  0.26894  0.84551  0.69184  1.0000
  C   C65       1.0  0.30292  0.9546400000000002  0.76007  1.0000
  C   C66       1.0  0.30492  0.80299  0.75775  1.0000
  C   C67       1.0  0.41212  0.9890399999999999  0.826  1.0000
  C   C68       1.0  0.5464  0.39429  0.08097  1.0000
  C   C69       1.0  0.51101  0.29507  0.01557  1.0000
  C   C70       1.0  0.52441  0.24003000000000002  0.05865  1.0000
  C   C71       1.0  0.49207000000000006  0.14237000000000002  0.99743  1.0000
  C   C72       1.0  0.44596000000000013  0.09631000000000002  0.89263  1.0000
  C   C73       1.0  0.43218  0.15256  0.85087  1.0000
  C   C74       1.0  0.46409000000000017  0.25059000000000015  0.9105700000000002  1.0000
  C   C75       1.0  0.31364  0.81351  0.62721  1.0000
  C   C76       1.0  0.44493000000000005  0.9448500000000001  0.8897500000000002  1.0000
  C   C77       1.0  0.95158  0.28442  0.9028  1.0000
  C   C78       1.0  0.98668  0.26248000000000005  0.97706  1.0000
  C   C79       1.0  0.08592  0.28714  0.04451000000000001  1.0000
  C   C80       1.0  0.12054  0.26151  0.11516  1.0000
  C   C81       1.0  0.060350000000000015  0.20959  0.12184000000000002  1.0000
  C   C82       1.0  0.9617700000000001  0.18772  0.056  1.0000
  C   C83       1.0  0.9250900000000002  0.21330999999999997  0.98565  1.0000
  C   C84       1.0  0.09623  0.17295  0.19187  1.0000
  C   C85       1.0  0.05535  0.2072  0.26008  1.0000
  C   C86       1.0  0.20470000000000005  0.20297  0.25788  1.0000
  C   C87       1.0  0.08686000000000006  0.16390000000000002  0.32594000000000006  1.0000
  C   C88       1.0  0.93677  0.28458  0.58099  1.0000
  C   C89       1.0  0.97051  0.25458  0.51553  1.0000
  C   C90       1.0  0.06864999999999996  0.28423  0.55857  1.0000
  C   C91       1.0  0.10504000000000008  0.25539  0.49733000000000005  1.0000
  C   C92       1.0  0.04626000000000005  0.19670000000000004  0.39255000000000007  1.0000
  C   C93       1.0  0.94824  0.16876  0.3508  1.0000
  C   C94       1.0  0.90993  0.19649  0.4105  1.0000
  C   C95       1.0  0.95131  0.61824  0.90261  1.0000
  C   C96       1.0  0.9903900000000003  0.7144500000000001  0.9769400000000003  1.0000
  C   C97       1.0  0.9585300000000001  0.75718  0.04433  1.0000
  C   C98       1.0  0.9945  0.8535  0.11499000000000001  1.0000
  C   C99       1.0  0.061340000000000006  0.91221  0.12174  1.0000
  C   C100      1.0  0.09411  0.86828  0.05594  1.0000
  C   C101      1.0  0.06052000000000015  0.7723200000000002  0.9855700000000002  1.0000
  C   C102      1.0  0.09552  0.018900000000000014  0.19183  1.0000
  C   C103      1.0  0.20464000000000004  0.052869999999999986  0.26005  1.0000
  C   C104      1.0  0.05299000000000001  0.05487999999999998  0.25774  1.0000
  C   C105      1.0  0.23903000000000005  0.16207  0.32598  1.0000
  C   C106      1.0  0.6443  0.29643  0.58101  1.0000
  C   C107      1.0  0.54508  0.26103  0.51558  1.0000
  C   C108      1.0  0.49002000000000007  0.27441  0.55863  1.0000
  C   C109      1.0  0.39237  0.24205999999999997  0.49741  1.0000
  C   C110      1.0  0.34631  0.19595  0.39262  1.0000
  C   C111      1.0  0.4025700000000001  0.18218000000000004  0.35086000000000006  1.0000
  C   C112      1.0  0.50061  0.21411  0.41058  1.0000
  C   C113      1.0  0.06353000000000002  0.06359  0.1272  1.0000
  C   C114      1.0  0.19483000000000006  0.1949  0.38974  1.0000
  C   C115      1.0  0.7156  0.04864000000000001  0.09717000000000002  1.0000
  C   C116      1.0  0.73749  0.009660000000000002  0.022870000000000005  1.0000
  C   C117      1.0  0.71275  0.04166  0.95562  1.0000
  C   C118      1.0  0.7384000000000002  0.005680000000000041  0.8850000000000001  1.0000
  C   C119      1.0  0.7903800000000003  0.9387400000000001  0.8781600000000003  1.0000
  C   C120      1.0  0.8123600000000001  0.9059000000000003  0.9438700000000002  1.0000
  C   C121      1.0  0.78679  0.93947  0.014210000000000004  1.0000
  C   C122      1.0  0.827  0.90456  0.80812  1.0000
  C   C123      1.0  0.7928  0.79543  0.73983  1.0000
  C   C124      1.0  0.79696  0.94704  0.74217  1.0000
  C   C125      1.0  0.83615  0.76096  0.67398  1.0000
  C   C126      1.0  0.7155100000000003  0.35568  0.41907  1.0000
  C   C127      1.0  0.7455  0.45491  0.48445  1.0000
  C   C128      1.0  0.71584  0.50997  0.44137000000000004  1.0000
  C   C129      1.0  0.7446900000000003  0.60763  0.50256  1.0000
  C   C130      1.0  0.80339  0.65368  0.60736  1.0000
  C   C131      1.0  0.83136  0.5974300000000001  0.6491500000000001  1.0000
  C   C132      1.0  0.8035899999999999  0.49939  0.58945  1.0000
  C   C133      1.0  0.3817700000000001  0.04841  0.09733  1.0000
  C   C134      1.0  0.28555  0.01327  0.02305  1.0000
  C   C135      1.0  0.2428700000000001  0.91403  0.9556600000000002  1.0000
  C   C136      1.0  0.1465500000000001  0.87942  0.8850300000000001  1.0000
  C   C137      1.0  0.08775000000000002  0.93958  0.87824  1.0000
  C   C138      1.0  0.13163  0.038170000000000016  0.94404  1.0000
  C   C139      1.0  0.22760000000000005  0.07484  0.01439  1.0000
  C   C140      1.0  0.9810600000000002  0.90367  0.80813  1.0000
  C   C141      1.0  0.9470100000000002  0.94459  0.73996  1.0000
  C   C142      1.0  0.9451700000000001  0.7952  0.74216  1.0000
  C   C143      1.0  0.83783  0.91312  0.67404  1.0000
  C   C144      1.0  0.7036500000000002  0.06329000000000001  0.41902  1.0000
  C   C145      1.0  0.7388900000000003  0.029519999999999956  0.48447  1.0000
  C   C146      1.0  0.72545  0.93135  0.44142  1.0000
  C   C147      1.0  0.7578  0.89495  0.50265  1.0000
  C   C148      1.0  0.80393  0.95373  0.60743  1.0000
  C   C149      1.0  0.8177  0.05177000000000002  0.6491800000000001  1.0000
  C   C150      1.0  0.7858000000000003  0.09011000000000004  0.5895  1.0000
  C   C151      1.0  0.93635  0.9364500000000001  0.8727700000000002  1.0000
  C   C152      1.0  0.80508  0.8051500000000001  0.61023  1.0000
  N   N1        1.0  0.32649000000000006  0.21208  0.6620800000000001  1.0000
  N   N2        1.0  0.33472  0.42201000000000005  0.8594200000000001  1.0000
  N   N3        1.0  0.3352800000000001  0.45003000000000004  0.6618700000000001  1.0000
  N   N4        1.0  0.5246100000000002  0.43779  0.85952  1.0000
  N   N5        1.0  0.55  0.67361  0.33811  1.0000
  N   N6        1.0  0.56216  0.66534  0.14062  1.0000
  N   N7        1.0  0.7879400000000002  0.66466  0.33792  1.0000
  N   N8        1.0  0.5782400000000002  0.47536  0.14051  1.0000
  N   N9        1.0  0.9236100000000002  0.29994000000000004  0.8380800000000002  1.0000
  N   N10       1.0  0.9153200000000002  0.31219  0.64059  1.0000
  N   N11       1.0  0.91463  0.53793  0.83793  1.0000
  N   N12       1.0  0.7253500000000004  0.3282400000000001  0.6405500000000002  1.0000
  N   N13       1.0  0.70003  0.08528  0.16188  1.0000
  N   N14       1.0  0.6878  0.27461  0.35954  1.0000
  N   N15       1.0  0.4620700000000001  0.07654  0.16208  1.0000
  N   N16       1.0  0.6719600000000003  0.08473000000000003  0.35942  1.0000
