data_image0
_chemical_formula_structural       Cd8H80C176O64
_chemical_formula_sum              "Cd8 H80 C176 O64"
_cell_length_a       15.59207
_cell_length_b       15.63291
_cell_length_c       32.89351
_cell_angle_alpha    89.98278000000002
_cell_angle_beta     89.90008
_cell_angle_gamma    90.06944

_symmetry_space_group_name_H-M    'P 1'
_symmetry_Int_Tables_number       1

loop_
  _symmetry_equiv_pos_as_xyz
  'x,y,z'

loop_
  _atom_site_type_symbol
  _atom_site_label
  _atom_site_symmetry_multiplicity
  _atom_site_fract_x
  _atom_site_fract_y
  _atom_site_fract_z
  _atom_site_occupancy
  Cd  Cd1       1.0  0.2742600000000001  0.72982  0.08022000000000003  1.0000
  Cd  Cd2       1.0  0.7273100000000002  0.27137  0.5807200000000002  1.0000
  Cd  Cd3       1.0  0.7734300000000002  0.77362  0.83018  1.0000
  Cd  Cd4       1.0  0.22807000000000005  0.22758  0.33027  1.0000
  Cd  Cd5       1.0  0.22791  0.22842  0.6695800000000001  1.0000
  Cd  Cd6       1.0  0.7755700000000002  0.77263  0.16968  1.0000
  Cd  Cd7       1.0  0.73045  0.27364  0.92015  1.0000
  Cd  Cd8       1.0  0.2712500000000001  0.72778  0.4200700000000001  1.0000
  H   H1        1.0  0.06916000000000003  0.40773  0.21106  1.0000
  H   H2        1.0  0.3361  0.4221600000000001  0.24032  1.0000
  H   H3        1.0  0.3596700000000001  0.52833  0.18371000000000007  1.0000
  H   H4        1.0  0.9084300000000002  0.4362  0.02542  1.0000
  H   H5        1.0  0.6552900000000003  0.51976  0.99529  1.0000
  H   H6        1.0  0.6571400000000002  0.6236400000000002  0.05387  1.0000
  H   H7        1.0  0.14811000000000005  0.50716  0.08916  1.0000
  H   H8        1.0  0.024370000000000006  0.52143  0.04388  1.0000
  H   H9        1.0  0.85592  0.54274  0.14856000000000005  1.0000
  H   H10       1.0  0.9780000000000002  0.52099  0.19362  1.0000
  H   H11       1.0  0.9310700000000002  0.59122  0.71207  1.0000
  H   H12       1.0  0.66385  0.57758  0.7412500000000002  1.0000
  H   H13       1.0  0.6405000000000002  0.47159  0.68455  1.0000
  H   H14       1.0  0.09093000000000002  0.56279  0.52526  1.0000
  H   H15       1.0  0.3440900000000001  0.47961  0.49422000000000005  1.0000
  H   H16       1.0  0.34331000000000006  0.37693  0.55335  1.0000
  H   H17       1.0  0.8526900000000002  0.4924100000000001  0.59031  1.0000
  H   H18       1.0  0.9757800000000002  0.47857  0.54483  1.0000
  H   H19       1.0  0.14499  0.45669  0.64906  1.0000
  H   H20       1.0  0.023020000000000006  0.47823  0.6944100000000002  1.0000
  H   H21       1.0  0.09311000000000003  0.56947  0.9616400000000003  1.0000
  H   H22       1.0  0.07726000000000002  0.83541  0.9916300000000001  1.0000
  H   H23       1.0  0.9716800000000002  0.85873  0.93468  1.0000
  H   H24       1.0  0.06609  0.40946  0.77505  1.0000
  H   H25       1.0  0.9796600000000002  0.15846  0.7439000000000002  1.0000
  H   H26       1.0  0.8770600000000002  0.15915000000000007  0.8032900000000002  1.0000
  H   H27       1.0  0.9954600000000002  0.64805  0.8399700000000002  1.0000
  H   H28       1.0  0.9817400000000002  0.52494  0.79438  1.0000
  H   H29       1.0  0.9595000000000002  0.35606  0.89863  1.0000
  H   H30       1.0  0.9796100000000002  0.47789  0.94404  1.0000
  H   H31       1.0  0.9117400000000001  0.43119  0.46407  1.0000
  H   H32       1.0  0.9263700000000002  0.16451  0.49238  1.0000
  H   H33       1.0  0.02797  0.14143  0.4336600000000001  1.0000
  H   H34       1.0  0.9368200000000002  0.59183  0.27534  1.0000
  H   H35       1.0  0.023680000000000007  0.84347  0.2445  1.0000
  H   H36       1.0  0.12455000000000002  0.84264  0.30424  1.0000
  H   H37       1.0  0.004320000000000002  0.3536300000000001  0.3402400000000001  1.0000
  H   H38       1.0  0.01881000000000001  0.4768500000000001  0.29491  1.0000
  H   H39       1.0  0.041220000000000014  0.64487  0.39949  1.0000
  H   H40       1.0  0.02019  0.52303  0.44460000000000005  1.0000
  H   H41       1.0  0.4299600000000001  0.90887  0.53768  1.0000
  H   H42       1.0  0.16271  0.9239800000000002  0.50913  1.0000
  H   H43       1.0  0.14013  0.02883  0.56644  1.0000
  H   H44       1.0  0.5913100000000002  0.9354400000000003  0.72395  1.0000
  H   H45       1.0  0.8437100000000002  0.02005  0.75505  1.0000
  H   H46       1.0  0.8436800000000002  0.12197  0.69564  1.0000
  H   H47       1.0  0.3525500000000001  0.005600000000000002  0.6601  1.0000
  H   H48       1.0  0.4763900000000001  0.01903  0.70526  1.0000
  H   H49       1.0  0.6446300000000003  0.041160000000000016  0.60043  1.0000
  H   H50       1.0  0.5221300000000002  0.02095  0.55547  1.0000
  H   H51       1.0  0.5706900000000003  0.08958  0.03679000000000002  1.0000
  H   H52       1.0  0.8377900000000003  0.07376  0.0078  1.0000
  H   H53       1.0  0.8605000000000003  0.97013  0.06569000000000003  1.0000
  H   H54       1.0  0.4093000000000001  0.06569  0.22418  1.0000
  H   H55       1.0  0.15705  0.97988  0.25544  1.0000
  H   H56       1.0  0.15871000000000005  0.87654  0.19662000000000004  1.0000
  H   H57       1.0  0.64856  0.9942200000000002  0.15956  1.0000
  H   H58       1.0  0.52528  0.98121  0.20515000000000005  1.0000
  H   H59       1.0  0.3558400000000001  0.95952  0.10103  1.0000
  H   H60       1.0  0.4781200000000001  0.97932  0.0555  1.0000
  H   H61       1.0  0.4100800000000001  0.06997  0.7882900000000003  1.0000
  H   H62       1.0  0.4237200000000001  0.33661  0.7595400000000002  1.0000
  H   H63       1.0  0.5283900000000002  0.36007  0.81683  1.0000
  H   H64       1.0  0.43602000000000013  0.9084400000000002  0.97433  1.0000
  H   H65       1.0  0.5201100000000002  0.65605  0.00449  1.0000
  H   H66       1.0  0.62496  0.65854  0.94611  1.0000
  H   H67       1.0  0.50731  0.14795  0.91071  1.0000
  H   H68       1.0  0.52144  0.02449  0.9559300000000002  1.0000
  H   H69       1.0  0.5433600000000002  0.85679  0.85126  1.0000
  H   H70       1.0  0.52154  0.9788000000000002  0.80619  1.0000
  H   H71       1.0  0.58912  0.93197  0.28736  1.0000
  H   H72       1.0  0.5765400000000003  0.66582  0.25782  1.0000
  H   H73       1.0  0.4715900000000001  0.64101  0.31506  1.0000
  H   H74       1.0  0.56333  0.08877  0.4735900000000001  1.0000
  H   H75       1.0  0.4802900000000001  0.34021  0.50617  1.0000
  H   H76       1.0  0.3767000000000001  0.34112  0.44746  1.0000
  H   H77       1.0  0.4915600000000001  0.85199  0.40951  1.0000
  H   H78       1.0  0.4776900000000001  0.97497  0.45506  1.0000
  H   H79       1.0  0.4561600000000001  0.144  0.3508100000000001  1.0000
  H   H80       1.0  0.47716  0.02236  0.30542  1.0000
  C   C1        1.0  0.24122000000000005  0.59663  0.13474  1.0000
  C   C2        1.0  0.1867  0.34979  0.26379  1.0000
  C   C3        1.0  0.22766000000000006  0.52712  0.16512000000000004  1.0000
  C   C4        1.0  0.14356000000000005  0.49265  0.17214  1.0000
  C   C5        1.0  0.13150000000000006  0.43693  0.20549  1.0000
  C   C6        1.0  0.20028000000000007  0.4122  0.2296  1.0000
  C   C7        1.0  0.2834  0.44395  0.22129000000000004  1.0000
  C   C8        1.0  0.29637  0.5018  0.18971  1.0000
  C   C9        1.0  0.7852800000000002  0.65197  0.10656000000000003  1.0000
  C   C10       1.0  0.77895  0.40492  0.9749900000000001  1.0000
  C   C11       1.0  0.78368  0.58749  0.07316000000000003  1.0000
  C   C12       1.0  0.85707  0.53451  0.06536  1.0000
  C   C13       1.0  0.8553600000000002  0.47966  0.03129  1.0000
  C   C14       1.0  0.7828900000000002  0.4733100000000001  0.00703  1.0000
  C   C15       1.0  0.71115  0.52614  0.01489  1.0000
  C   C16       1.0  0.7120200000000002  0.58278  0.04751  1.0000
  C   C17       1.0  0.07205  0.50966  0.145  1.0000
  C   C18       1.0  0.08412000000000003  0.5130300000000002  0.10215  1.0000
  C   C19       1.0  0.014440000000000003  0.5205400000000002  0.07662  1.0000
  C   C20       1.0  0.9304000000000002  0.53087  0.09257  1.0000
  C   C21       1.0  0.9192400000000002  0.5332200000000002  0.13542  1.0000
  C   C22       1.0  0.9881600000000003  0.51996  0.16091000000000005  1.0000
  C   C23       1.0  0.7589300000000002  0.40318  0.6356800000000002  1.0000
  C   C24       1.0  0.81316  0.65195  0.7636600000000002  1.0000
  C   C25       1.0  0.7726900000000002  0.47233  0.66614  1.0000
  C   C26       1.0  0.8569900000000003  0.50619  0.67325  1.0000
  C   C27       1.0  0.8687900000000002  0.56203  0.7065  1.0000
  C   C28       1.0  0.7997600000000002  0.58757  0.7303800000000003  1.0000
  C   C29       1.0  0.7166900000000003  0.5557  0.7222600000000002  1.0000
  C   C30       1.0  0.7038300000000002  0.49783  0.6907100000000003  1.0000
  C   C31       1.0  0.21637  0.34825  0.6060900000000002  1.0000
  C   C32       1.0  0.21922000000000005  0.59349  0.47407  1.0000
  C   C33       1.0  0.21709000000000006  0.41313  0.57296  1.0000
  C   C34       1.0  0.14333000000000007  0.4658100000000001  0.56556  1.0000
  C   C35       1.0  0.14432  0.5198500000000003  0.53121  1.0000
  C   C36       1.0  0.21631000000000006  0.5258  0.50645  1.0000
  C   C37       1.0  0.28854000000000013  0.4735  0.51411  1.0000
  C   C38       1.0  0.2883500000000001  0.41762  0.54697  1.0000
  C   C39       1.0  0.9287200000000002  0.48953  0.64604  1.0000
  C   C40       1.0  0.9166500000000002  0.4867  0.60322  1.0000
  C   C41       1.0  0.9862400000000002  0.47961  0.5775000000000002  1.0000
  C   C42       1.0  0.07038  0.4692900000000001  0.5931700000000002  1.0000
  C   C43       1.0  0.08166  0.46644  0.63604  1.0000
  C   C44       1.0  0.012760000000000007  0.47932  0.6617200000000002  1.0000
  C   C45       1.0  0.9049400000000002  0.741  0.8851600000000002  1.0000
  C   C46       1.0  0.15208  0.68689  0.01398  1.0000
  C   C47       1.0  0.9735200000000003  0.72724  0.91595  1.0000
  C   C48       1.0  0.007820000000000004  0.64339  0.92294  1.0000
  C   C49       1.0  0.06354  0.63147  0.95622  1.0000
  C   C50       1.0  0.08829000000000002  0.70009  0.9804100000000001  1.0000
  C   C51       1.0  0.05596000000000002  0.78283  0.9724400000000002  1.0000
  C   C52       1.0  0.9983200000000001  0.79572  0.94078  1.0000
  C   C53       1.0  0.8503600000000002  0.28556  0.8567500000000002  1.0000
  C   C54       1.0  0.09512  0.28174  0.7236600000000002  1.0000
  C   C55       1.0  0.9143100000000002  0.28487  0.8229500000000002  1.0000
  C   C56       1.0  0.9678000000000002  0.35803  0.81533  1.0000
  C   C57       1.0  0.02210000000000001  0.35678  0.78096  1.0000
  C   C58       1.0  0.027180000000000006  0.28522  0.75612  1.0000
  C   C59       1.0  0.9739400000000002  0.21368  0.7638700000000002  1.0000
  C   C60       1.0  0.9180800000000002  0.21395  0.7968800000000003  1.0000
  C   C61       1.0  0.9914300000000003  0.57199  0.8956300000000003  1.0000
  C   C62       1.0  0.9892800000000003  0.58413  0.8528  1.0000
  C   C63       1.0  0.9823300000000003  0.51474  0.82709  1.0000
  C   C64       1.0  0.9717700000000002  0.4308200000000001  0.8428200000000002  1.0000
  C   C65       1.0  0.9688600000000003  0.4194300000000001  0.88566  1.0000
  C   C66       1.0  0.9811300000000002  0.48816  0.91133  1.0000
  C   C67       1.0  0.09493000000000003  0.25928  0.38472000000000006  1.0000
  C   C68       1.0  0.8539600000000003  0.31359  0.51647  1.0000
  C   C69       1.0  0.026730000000000004  0.27333  0.4157400000000001  1.0000
  C   C70       1.0  0.99346  0.35733  0.42343  1.0000
  C   C71       1.0  0.9400200000000002  0.369  0.45773000000000014  1.0000
  C   C72       1.0  0.9160300000000002  0.3002  0.4819900000000001  1.0000
  C   C73       1.0  0.9468500000000002  0.21734  0.47310000000000013  1.0000
  C   C74       1.0  0.0022900000000000012  0.20454  0.44046  1.0000
  C   C75       1.0  0.14952000000000004  0.7177600000000002  0.3579400000000001  1.0000
  C   C76       1.0  0.9086500000000002  0.7207  0.22379000000000004  1.0000
  C   C77       1.0  0.08620000000000003  0.7173400000000002  0.32404  1.0000
  C   C78       1.0  0.033250000000000016  0.6438300000000002  0.31614  1.0000
  C   C79       1.0  0.9801400000000002  0.64491  0.28143  1.0000
  C   C80       1.0  0.9755100000000002  0.71655  0.25657000000000013  1.0000
  C   C81       1.0  0.028580000000000008  0.78819  0.26451  1.0000
  C   C82       1.0  0.08338000000000002  0.78804  0.29778  1.0000
  C   C83       1.0  0.008600000000000003  0.42901  0.39612  1.0000
  C   C84       1.0  0.01067  0.41736  0.35322  1.0000
  C   C85       1.0  0.018  0.48693  0.3276400000000001  1.0000
  C   C86       1.0  0.028820000000000005  0.57079  0.3435  1.0000
  C   C87       1.0  0.03148  0.58174  0.3863600000000001  1.0000
  C   C88       1.0  0.01871  0.51285  0.41191  1.0000
  C   C89       1.0  0.2587500000000001  0.09532  0.61546  1.0000
  C   C90       1.0  0.3114200000000001  0.84967  0.4860200000000001  1.0000
  C   C91       1.0  0.2723300000000001  0.02722  0.5844800000000002  1.0000
  C   C92       1.0  0.35633  0.9932600000000003  0.57705  1.0000
  C   C93       1.0  0.3678200000000001  0.93809  0.54352  1.0000
  C   C94       1.0  0.29859000000000013  0.91332  0.51966  1.0000
  C   C95       1.0  0.21572000000000005  0.9452500000000003  0.5281100000000002  1.0000
  C   C96       1.0  0.20325000000000004  0.00247  0.55997  1.0000
  C   C97       1.0  0.7179800000000002  0.14924  0.6422900000000002  1.0000
  C   C98       1.0  0.7188200000000002  0.90606  0.7754  1.0000
  C   C99       1.0  0.7174600000000002  0.08553  0.67601  1.0000
  C   C100      1.0  0.64362  0.03287  0.68372  1.0000
  C   C101      1.0  0.6445900000000002  0.97875  0.71804  1.0000
  C   C102      1.0  0.7164100000000002  0.97319  0.74277  1.0000
  C   C103      1.0  0.78847  0.025780000000000008  0.7350400000000002  1.0000
  C   C104      1.0  0.7885500000000002  0.08134  0.70204  1.0000
  C   C105      1.0  0.4281900000000001  0.009380000000000003  0.60416  1.0000
  C   C106      1.0  0.41648000000000013  0.01165  0.64704  1.0000
  C   C107      1.0  0.48631000000000013  0.0186  0.67252  1.0000
  C   C108      1.0  0.57032  0.029160000000000005  0.6564900000000002  1.0000
  C   C109      1.0  0.5812700000000002  0.03193  0.61363  1.0000
  C   C110      1.0  0.5121  0.01949  0.58819  1.0000
  C   C111      1.0  0.7415400000000002  0.90423  0.11496  1.0000
  C   C112      1.0  0.68889  0.14800000000000005  0.98493  1.0000
  C   C113      1.0  0.7283300000000003  0.9722700000000002  0.08395  1.0000
  C   C114      1.0  0.6442600000000003  0.00602  0.07651  1.0000
  C   C115      1.0  0.6327600000000002  0.06036  0.042700000000000016  1.0000
  C   C116      1.0  0.70199  0.08457000000000003  0.01861000000000001  1.0000
  C   C117      1.0  0.78487  0.05284  0.027030000000000005  1.0000
  C   C118      1.0  0.7974000000000002  0.9964000000000002  0.05918000000000002  1.0000
  C   C119      1.0  0.2854500000000001  0.8500500000000002  0.14311  1.0000
  C   C120      1.0  0.28095  0.09552  0.27544  1.0000
  C   C121      1.0  0.28464  0.9138700000000001  0.17681  1.0000
  C   C122      1.0  0.35782000000000014  0.96738  0.18428000000000005  1.0000
  C   C123      1.0  0.35633  0.021940000000000008  0.21846  1.0000
  C   C124      1.0  0.2842400000000001  0.02749  0.24316000000000004  1.0000
  C   C125      1.0  0.21267000000000005  0.97419  0.23557000000000006  1.0000
  C   C126      1.0  0.21339  0.9178300000000001  0.20285  1.0000
  C   C127      1.0  0.5725  0.9905200000000001  0.10385  1.0000
  C   C128      1.0  0.58455  0.98842  0.1467  1.0000
  C   C129      1.0  0.5149500000000002  0.98179  0.17245  1.0000
  C   C130      1.0  0.4308400000000001  0.97134  0.15676  1.0000
  C   C131      1.0  0.4194200000000001  0.9685700000000003  0.11391  1.0000
  C   C132      1.0  0.4883800000000001  0.98068  0.08819  1.0000
  C   C133      1.0  0.5969300000000002  0.24149  0.8655700000000002  1.0000
  C   C134      1.0  0.3498900000000001  0.18719  0.73661  1.0000
  C   C135      1.0  0.52767  0.22818  0.83505  1.0000
  C   C136      1.0  0.4940400000000001  0.14406  0.8276800000000002  1.0000
  C   C137      1.0  0.4388600000000001  0.1322  0.79415  1.0000
  C   C138      1.0  0.4135800000000001  0.20098  0.7702400000000003  1.0000
  C   C139      1.0  0.44513  0.28392  0.77864  1.0000
  C   C140      1.0  0.50238  0.29686  0.8104700000000002  1.0000
  C   C141      1.0  0.6537700000000002  0.78579  0.89351  1.0000
  C   C142      1.0  0.4049700000000001  0.7791200000000001  0.02492  1.0000
  C   C143      1.0  0.5888600000000003  0.78484  0.92689  1.0000
  C   C144      1.0  0.5352800000000002  0.85777  0.9345200000000002  1.0000
  C   C145      1.0  0.4798600000000001  0.85572  0.9685100000000002  1.0000
  C   C146      1.0  0.4734700000000001  0.78332  0.99278  1.0000
  C   C147      1.0  0.5266800000000001  0.71193  0.98496  1.0000
  C   C148      1.0  0.5839000000000002  0.71319  0.95249  1.0000
  C   C149      1.0  0.51057  0.07250000000000002  0.8548000000000002  1.0000
  C   C150      1.0  0.51337  0.08425  0.89767  1.0000
  C   C151      1.0  0.5207400000000001  0.01464  0.9232  1.0000
  C   C152      1.0  0.5314900000000002  0.9309300000000003  0.90726  1.0000
  C   C153      1.0  0.5339700000000002  0.91995  0.86438  1.0000
  C   C154      1.0  0.5207700000000002  0.98882  0.83891  1.0000
  C   C155      1.0  0.4029200000000001  0.75871  0.36441  1.0000
  C   C156      1.0  0.6501000000000002  0.81524  0.23534  1.0000
  C   C157      1.0  0.4719500000000001  0.77257  0.33374  1.0000
  C   C158      1.0  0.5052200000000002  0.85693  0.3265500000000001  1.0000
  C   C159      1.0  0.56055  0.86952  0.29303000000000007  1.0000
  C   C160      1.0  0.5861400000000002  0.80116  0.26896  1.0000
  C   C161      1.0  0.55472  0.71807  0.2770900000000001  1.0000
  C   C162      1.0  0.4975100000000001  0.7043900000000002  0.30896  1.0000
  C   C163      1.0  0.3482000000000001  0.21621  0.39348  1.0000
  C   C164      1.0  0.5953900000000001  0.21519  0.5251900000000003  1.0000
  C   C165      1.0  0.41252  0.21571  0.42697  1.0000
  C   C166      1.0  0.4651000000000001  0.14187  0.4341300000000001  1.0000
  C   C167      1.0  0.5201100000000002  0.14212  0.4681500000000001  1.0000
  C   C168      1.0  0.5268100000000002  0.21336  0.4931  1.0000
  C   C169      1.0  0.4740300000000001  0.28537  0.4860000000000001  1.0000
  C   C170      1.0  0.4175000000000001  0.28606  0.45334000000000013  1.0000
  C   C171      1.0  0.4883900000000001  0.92813  0.35382  1.0000
  C   C172      1.0  0.4855000000000001  0.91588  0.3966600000000001  1.0000
  C   C173      1.0  0.47837  0.9852100000000003  0.4223500000000001  1.0000
  C   C174      1.0  0.4681200000000001  0.06917  0.4066  1.0000
  C   C175      1.0  0.4654200000000001  0.08064  0.36377  1.0000
  C   C176      1.0  0.4781900000000001  0.012  0.33811000000000013  1.0000
  O   O1        1.0  0.29873  0.58816  0.10767  1.0000
  O   O2        1.0  0.19431000000000007  0.66255  0.13763000000000006  1.0000
  O   O3        1.0  0.25181  0.33715  0.28705  1.0000
  O   O4        1.0  0.11579000000000002  0.31295  0.2684300000000001  1.0000
  O   O5        1.0  0.73147  0.6445100000000002  0.13540000000000002  1.0000
  O   O6        1.0  0.84058  0.71109  0.10487000000000003  1.0000
  O   O7        1.0  0.7060000000000002  0.39353  0.9575800000000002  1.0000
  O   O8        1.0  0.8442600000000002  0.36019  0.9673800000000002  1.0000
  O   O9        1.0  0.7012400000000002  0.41168  0.60879  1.0000
  O   O10       1.0  0.8059800000000003  0.33735  0.63845  1.0000
  O   O11       1.0  0.74924  0.66282  0.78798  1.0000
  O   O12       1.0  0.8828800000000002  0.69193  0.76613  1.0000
  O   O13       1.0  0.2716900000000001  0.35495  0.6342800000000001  1.0000
  O   O14       1.0  0.16047000000000006  0.28968  0.6044400000000002  1.0000
  O   O15       1.0  0.29352  0.61038  0.4588600000000001  1.0000
  O   O16       1.0  0.15163000000000004  0.6322300000000001  0.4643  1.0000
  O   O17       1.0  0.9135300000000002  0.80022  0.8590000000000001  1.0000
  O   O18       1.0  0.8397400000000003  0.69247  0.88686  1.0000
  O   O19       1.0  0.16063  0.74964  0.03895000000000001  1.0000
  O   O20       1.0  0.19406000000000007  0.61857  0.01618  1.0000
  O   O21       1.0  0.8575100000000002  0.22965  0.8846300000000002  1.0000
  O   O22       1.0  0.7922300000000002  0.34191  0.85639  1.0000
  O   O23       1.0  0.10829  0.20815000000000006  0.7072  1.0000
  O   O24       1.0  0.13767000000000004  0.34767  0.7149100000000003  1.0000
  O   O25       1.0  0.08632000000000002  0.19925000000000007  0.3591300000000001  1.0000
  O   O26       1.0  0.16036  0.30769  0.3858900000000001  1.0000
  O   O27       1.0  0.8351800000000003  0.24636  0.53734  1.0000
  O   O28       1.0  0.8230300000000003  0.3863  0.52322  1.0000
  O   O29       1.0  0.14231  0.77414  0.3855200000000001  1.0000
  O   O30       1.0  0.20813000000000006  0.66177  0.35751  1.0000
  O   O31       1.0  0.89143  0.79588  0.21006000000000005  1.0000
  O   O32       1.0  0.8709300000000002  0.6538  0.21216  1.0000
  O   O33       1.0  0.19926000000000005  0.08656  0.6414900000000002  1.0000
  O   O34       1.0  0.3075200000000001  0.1604  0.61406  1.0000
  O   O35       1.0  0.24673000000000006  0.83854  0.46228000000000014  1.0000
  O   O36       1.0  0.38121  0.8103700000000003  0.48264  1.0000
  O   O37       1.0  0.7745400000000002  0.14221  0.6146800000000002  1.0000
  O   O38       1.0  0.6618800000000002  0.20783  0.64261  1.0000
  O   O39       1.0  0.7923400000000003  0.89161  0.7918  1.0000
  O   O40       1.0  0.6514800000000002  0.8658800000000002  0.78442  1.0000
  O   O41       1.0  0.8006300000000002  0.91309  0.14117000000000005  1.0000
  O   O42       1.0  0.6928200000000002  0.8393  0.11322  1.0000
  O   O43       1.0  0.7535600000000002  0.1607  0.96136  1.0000
  O   O44       1.0  0.6183400000000002  0.18607  0.98156  1.0000
  O   O45       1.0  0.22955000000000006  0.8572700000000001  0.11525  1.0000
  O   O46       1.0  0.34194  0.7919600000000002  0.14352000000000006  1.0000
  O   O47       1.0  0.20785000000000006  0.10825000000000001  0.2926600000000001  1.0000
  O   O48       1.0  0.34716000000000014  0.13842000000000004  0.28336  1.0000
  O   O49       1.0  0.5884500000000003  0.29862  0.8926800000000003  1.0000
  O   O50       1.0  0.66285  0.19449  0.86254  1.0000
  O   O51       1.0  0.33731  0.25154  0.71294  1.0000
  O   O52       1.0  0.31213000000000013  0.11659  0.73318  1.0000
  O   O53       1.0  0.64495  0.73197  0.86482  1.0000
  O   O54       1.0  0.7141400000000002  0.83977  0.8950300000000002  1.0000
  O   O55       1.0  0.39378000000000013  0.70625  0.04237  1.0000
  O   O56       1.0  0.3600500000000001  0.84416  0.03260000000000001  1.0000
  O   O57       1.0  0.41166000000000014  0.70155  0.39152  1.0000
  O   O58       1.0  0.3370300000000001  0.8058  0.36164  1.0000
  O   O59       1.0  0.6677700000000002  0.74879  0.21375000000000005  1.0000
  O   O60       1.0  0.6832700000000003  0.8876  0.23008  1.0000
  O   O61       1.0  0.3554000000000001  0.27243  0.3657600000000001  1.0000
  O   O62       1.0  0.2896800000000001  0.16007000000000005  0.394  1.0000
  O   O63       1.0  0.61068  0.28885  0.5413  1.0000
  O   O64       1.0  0.63553  0.14793  0.53384  1.0000
