data_image0
_chemical_formula_structural       Zn12H96C204S24O48
_chemical_formula_sum              "Zn12 H96 C204 S24 O48"
_cell_length_a       19.60343
_cell_length_b       19.59518
_cell_length_c       19.639910000000004
_cell_angle_alpha    90.07479
_cell_angle_beta     89.93856
_cell_angle_gamma    120.00252

_symmetry_space_group_name_H-M    'P 1'
_symmetry_Int_Tables_number       1

loop_
  _symmetry_equiv_pos_as_xyz
  'x,y,z'

loop_
  _atom_site_type_symbol
  _atom_site_label
  _atom_site_symmetry_multiplicity
  _atom_site_fract_x
  _atom_site_fract_y
  _atom_site_fract_z
  _atom_site_occupancy
  Zn  Zn1       1.0  0.56235  0.28681  0.12333000000000002  1.0000
  Zn  Zn2       1.0  0.61261  0.23889999999999997  0.9549700000000001  1.0000
  Zn  Zn3       1.0  0.7130800000000002  0.27542999999999995  0.79009  1.0000
  Zn  Zn4       1.0  0.7609  0.37351999999999996  0.62434  1.0000
  Zn  Zn5       1.0  0.7242700000000001  0.43763  0.45936  1.0000
  Zn  Zn6       1.0  0.62624  0.38725  0.29087  1.0000
  Zn  Zn7       1.0  0.43767000000000006  0.71101  0.62182  1.0000
  Zn  Zn8       1.0  0.38719  0.76125  0.45601000000000014  1.0000
  Zn  Zn9       1.0  0.2889800000000001  0.72668  0.28825000000000006  1.0000
  Zn  Zn10      1.0  0.23902999999999988  0.6262399999999998  0.12270000000000002  1.0000
  Zn  Zn11      1.0  0.27351  0.56237  0.9553100000000001  1.0000
  Zn  Zn12      1.0  0.37382  0.61276  0.78929  1.0000
  H   H1        1.0  0.03813  0.40286  0.14419  1.0000
  H   H2        1.0  0.08086000000000003  0.21273  0.00939  1.0000
  H   H3        1.0  0.9420500000000002  0.25916  0.15253000000000003  1.0000
  H   H4        1.0  0.17886  0.35681  0.0048  1.0000
  H   H5        1.0  0.8012999999999999  0.28507  0.00595  1.0000
  H   H6        1.0  0.8831100000000001  0.22104999999999994  0.00634  1.0000
  H   H7        1.0  0.74059  0.06735999999999998  0.16821000000000003  1.0000
  H   H8        1.0  0.6580200000000003  0.13149  0.16663  1.0000
  H   H9        1.0  0.8105100000000002  0.5385  0.22845  1.0000
  H   H10       1.0  0.8937800000000002  0.6834899999999998  0.21801000000000004  1.0000
  H   H11       1.0  0.7432  0.68185  0.057490000000000006  1.0000
  H   H12       1.0  0.6585800000000003  0.53653  0.0701  1.0000
  H   H13       1.0  0.18528999999999995  0.8609499999999998  0.22756000000000004  1.0000
  H   H14       1.0  0.08566000000000001  0.90147  0.20337  1.0000
  H   H15       1.0  0.95627  0.6953799999999998  0.07802000000000002  1.0000
  H   H16       1.0  0.054289999999999984  0.65368  0.10534  1.0000
  H   H17       1.0  0.5976599999999997  0.6358599999999998  0.81107  1.0000
  H   H18       1.0  0.7873100000000002  0.86818  0.6761  1.0000
  H   H19       1.0  0.74146  0.68358  0.8190900000000001  1.0000
  H   H20       1.0  0.6434599999999999  0.8223199999999998  0.67177  1.0000
  H   H21       1.0  0.71374  0.51442  0.67614  1.0000
  H   H22       1.0  0.7778  0.6602099999999997  0.67429  1.0000
  H   H23       1.0  0.93364  0.6749199999999997  0.83547  1.0000
  H   H24       1.0  0.8694999999999999  0.5280899999999997  0.8361000000000001  1.0000
  H   H25       1.0  0.4610400000000001  0.27315999999999996  0.8944400000000001  1.0000
  H   H26       1.0  0.31586  0.2101  0.8845300000000001  1.0000
  H   H27       1.0  0.31839000000000006  0.06096  0.72414  1.0000
  H   H28       1.0  0.46376  0.12285  0.73638  1.0000
  H   H29       1.0  0.13933  0.32468  0.89441  1.0000
  H   H30       1.0  0.09902000000000001  0.18442  0.87016  1.0000
  H   H31       1.0  0.30475  0.26108  0.74441  1.0000
  H   H32       1.0  0.34633000000000014  0.40079  0.7718900000000002  1.0000
  H   H33       1.0  0.36457000000000017  0.96282  0.47746000000000005  1.0000
  H   H34       1.0  0.13189999999999996  0.91909  0.3424  1.0000
  H   H35       1.0  0.31642  0.058549999999999984  0.4854100000000001  1.0000
  H   H36       1.0  0.17795999999999995  0.8212599999999998  0.33807  1.0000
  H   H37       1.0  0.48454000000000014  0.19959  0.34136000000000005  1.0000
  H   H38       1.0  0.33884  0.11784  0.34007  1.0000
  H   H39       1.0  0.3249200000000001  0.25852  0.50235  1.0000
  H   H40       1.0  0.47158  0.34139  0.50248  1.0000
  H   H41       1.0  0.72712  0.18871999999999994  0.56139  1.0000
  H   H42       1.0  0.78962  0.10611  0.5510900000000001  1.0000
  H   H43       1.0  0.93938  0.25778  0.39139000000000007  1.0000
  H   H44       1.0  0.87768  0.34149999999999997  0.40358  1.0000
  H   H45       1.0  0.67529  0.81476  0.56063  1.0000
  H   H46       1.0  0.81555  0.9142299999999998  0.53639  1.0000
  H   H47       1.0  0.7395400000000002  0.043699999999999996  0.41075  1.0000
  H   H48       1.0  0.5997000000000001  0.9459  0.43804  1.0000
  H   H49       1.0  0.9620900000000001  0.59687  0.64498  1.0000
  H   H50       1.0  0.91857  0.78623  0.5102900000000001  1.0000
  H   H51       1.0  0.0587099999999999  0.7406799999999998  0.6523300000000002  1.0000
  H   H52       1.0  0.8200399999999998  0.6421499999999999  0.50706  1.0000
  H   H53       1.0  0.19977999999999993  0.7140899999999998  0.5075900000000001  1.0000
  H   H54       1.0  0.11760999999999996  0.7776699999999999  0.50698  1.0000
  H   H55       1.0  0.25903000000000004  0.9326  0.66874  1.0000
  H   H56       1.0  0.3420400000000001  0.86901  0.66802  1.0000
  H   H57       1.0  0.18943  0.46198999999999996  0.7267000000000001  1.0000
  H   H58       1.0  0.10574999999999998  0.3168099999999999  0.71692  1.0000
  H   H59       1.0  0.25644000000000006  0.31689  0.5566900000000002  1.0000
  H   H60       1.0  0.34134  0.4622099999999999  0.5688400000000001  1.0000
  H   H61       1.0  0.81459  0.13868999999999995  0.72859  1.0000
  H   H62       1.0  0.9142000000000002  0.09817999999999998  0.70364  1.0000
  H   H63       1.0  0.043  0.30424  0.57831  1.0000
  H   H64       1.0  0.94525  0.34606  0.6066100000000002  1.0000
  H   H65       1.0  0.40304000000000006  0.36568  0.31028  1.0000
  H   H66       1.0  0.21363000000000001  0.13192  0.17603  1.0000
  H   H67       1.0  0.2593  0.31755  0.31862000000000007  1.0000
  H   H68       1.0  0.35767  0.17821  0.17198000000000002  1.0000
  H   H69       1.0  0.28575  0.48544999999999994  0.17443  1.0000
  H   H70       1.0  0.22218999999999992  0.3397699999999999  0.17354  1.0000
  H   H71       1.0  0.06705999999999998  0.3264299999999999  0.33520000000000005  1.0000
  H   H72       1.0  0.13077000000000003  0.473  0.33491  1.0000
  H   H73       1.0  0.53768  0.727  0.39316  1.0000
  H   H74       1.0  0.68289  0.7883899999999998  0.38371  1.0000
  H   H75       1.0  0.6832100000000001  0.93905  0.22359  1.0000
  H   H76       1.0  0.53793  0.87879  0.23556  1.0000
  H   H77       1.0  0.8600900000000001  0.67545  0.3966900000000001  1.0000
  H   H78       1.0  0.9015500000000001  0.81571  0.3713500000000001  1.0000
  H   H79       1.0  0.6964000000000002  0.73878  0.24498000000000003  1.0000
  H   H80       1.0  0.65384  0.59918  0.27343000000000006  1.0000
  H   H81       1.0  0.6340900000000003  0.0369  0.97676  1.0000
  H   H82       1.0  0.86819  0.08153999999999997  0.8429  1.0000
  H   H83       1.0  0.6827  0.94163  0.9852900000000001  1.0000
  H   H84       1.0  0.8216800000000001  0.17913  0.83882  1.0000
  H   H85       1.0  0.5151899999999998  0.8007699999999998  0.84109  1.0000
  H   H86       1.0  0.66092  0.8824999999999997  0.8403000000000002  1.0000
  H   H87       1.0  0.6737200000000001  0.74092  0.00204  1.0000
  H   H88       1.0  0.52713  0.65822  0.00146  1.0000
  H   H89       1.0  0.2727499999999998  0.8110099999999998  0.06004000000000001  1.0000
  H   H90       1.0  0.2108799999999999  0.8944499999999999  0.05023  1.0000
  H   H91       1.0  0.060669999999999995  0.74336  0.8903400000000001  1.0000
  H   H92       1.0  0.12124999999999997  0.6586099999999999  0.9024100000000002  1.0000
  H   H93       1.0  0.3246400000000001  0.18558  0.061700000000000005  1.0000
  H   H94       1.0  0.18449000000000004  0.08605  0.03699  1.0000
  H   H95       1.0  0.2615  0.95701  0.9112300000000001  1.0000
  H   H96       1.0  0.40107  0.05469999999999999  0.9393400000000001  1.0000
  C   C1        1.0  0.90399  0.9919499999999999  0.09486  1.0000
  C   C2        1.0  0.9055699999999999  0.9238999999999998  0.10384000000000003  1.0000
  C   C3        1.0  0.94825  0.14116  0.08428  1.0000
  C   C4        1.0  0.8677800000000001  0.10342  0.08893000000000001  1.0000
  C   C5        1.0  0.87386  0.7793199999999998  0.12772  1.0000
  C   C6        1.0  0.9543800000000001  0.8244  0.12824  1.0000
  C   C7        1.0  0.11327000000000002  0.38809  0.07313  1.0000
  C   C8        1.0  0.04627000000000001  0.36047999999999997  0.11472  1.0000
  C   C9        1.0  0.07183  0.25426  0.0395  1.0000
  C   C10       1.0  0.0039899999999999936  0.2261  0.08058  1.0000
  C   C11       1.0  0.9927700000000002  0.28046  0.11909  1.0000
  C   C12       1.0  0.12627  0.33446  0.03619  1.0000
  C   C13       1.0  0.17091000000000003  0.4736  0.07036000000000002  1.0000
  C   C14       1.0  0.7250200000000002  0.21267999999999995  0.08679000000000002  1.0000
  C   C15       1.0  0.78908  0.23813  0.04193000000000001  1.0000
  C   C16       1.0  0.83485  0.20225  0.04228  1.0000
  C   C17       1.0  0.81852  0.14051  0.08804  1.0000
  C   C18       1.0  0.75371  0.11484999999999997  0.13252  1.0000
  C   C19       1.0  0.70783  0.1508  0.13224  1.0000
  C   C20       1.0  0.6736500000000001  0.24815999999999996  0.08395000000000002  1.0000
  C   C21       1.0  0.72925  0.528  0.14979  1.0000
  C   C22       1.0  0.79622  0.5703  0.19100000000000003  1.0000
  C   C23       1.0  0.8431700000000001  0.6516499999999997  0.18479  1.0000
  C   C24       1.0  0.825  0.69342  0.13659000000000002  1.0000
  C   C25       1.0  0.7574100000000001  0.6505999999999997  0.09565000000000003  1.0000
  C   C26       1.0  0.7103600000000002  0.56924  0.10197  1.0000
  C   C27       1.0  0.6778  0.4412699999999999  0.15817  1.0000
  C   C28       1.0  0.12422000000000002  0.7533  0.16998  1.0000
  C   C29       1.0  0.13422000000000006  0.82434  0.19606000000000004  1.0000
  C   C30       1.0  0.07890999999999998  0.84718  0.18187  1.0000
  C   C31       1.0  0.012689999999999866  0.7996899999999998  0.14094  1.0000
  C   C32       1.0  0.005189999999999968  0.73043  0.11211000000000002  1.0000
  C   C33       1.0  0.05981999999999988  0.7072399999999998  0.12709  1.0000
  C   C34       1.0  0.18127999999999997  0.72625  0.1858  1.0000
  C   C35       1.0  0.008150000000000155  0.91208  0.7613000000000001  1.0000
  C   C36       1.0  0.07618000000000003  0.98172  0.7702300000000001  1.0000
  C   C37       1.0  0.85908  0.8072  0.75051  1.0000
  C   C38       1.0  0.8967300000000002  0.76438  0.75546  1.0000
  C   C39       1.0  0.22066  0.09445  0.7941000000000003  1.0000
  C   C40       1.0  0.17575  0.13009  0.79453  1.0000
  C   C41       1.0  0.61209  0.72518  0.73976  1.0000
  C   C42       1.0  0.6399400000000002  0.68611  0.78138  1.0000
  C   C43       1.0  0.74582  0.81761  0.7061  1.0000
  C   C44       1.0  0.77418  0.7780599999999998  0.7469600000000002  1.0000
  C   C45       1.0  0.7199800000000002  0.71274  0.78564  1.0000
  C   C46       1.0  0.6656400000000001  0.7918099999999998  0.70291  1.0000
  C   C47       1.0  0.5266  0.69733  0.7368800000000001  1.0000
  C   C48       1.0  0.7874000000000001  0.5121999999999998  0.7565  1.0000
  C   C49       1.0  0.7613  0.54994  0.7113700000000002  1.0000
  C   C50       1.0  0.7971800000000001  0.63159  0.71053  1.0000
  C   C51       1.0  0.8595900000000001  0.67799  0.75543  1.0000
  C   C52       1.0  0.88568  0.6397  0.8004  1.0000
  C   C53       1.0  0.84975  0.55783  0.8013100000000002  1.0000
  C   C54       1.0  0.7521800000000002  0.4253599999999999  0.75397  1.0000
  C   C55       1.0  0.47184000000000004  0.20244  0.8157  1.0000
  C   C56       1.0  0.42936  0.22693  0.8569900000000001  1.0000
  C   C57       1.0  0.34800000000000003  0.1919  0.85101  1.0000
  C   C58       1.0  0.3065  0.13167  0.80287  1.0000
  C   C59       1.0  0.34948  0.10702  0.76193  1.0000
  C   C60       1.0  0.43086000000000013  0.14191  0.76807  1.0000
  C   C61       1.0  0.5584400000000002  0.23778999999999997  0.82431  1.0000
  C   C62       1.0  0.24686000000000002  0.37114  0.83664  1.0000
  C   C63       1.0  0.17589  0.31016  0.8627900000000001  1.0000
  C   C64       1.0  0.15311  0.23197999999999996  0.8484800000000001  1.0000
  C   C65       1.0  0.2004700000000001  0.21317  0.80734  1.0000
  C   C66       1.0  0.26964  0.27492  0.77851  1.0000
  C   C67       1.0  0.29283  0.35275  0.7936500000000002  1.0000
  C   C68       1.0  0.27403  0.45528  0.85247  1.0000
  C   C69       1.0  0.08779  0.09626999999999997  0.42790000000000006  1.0000
  C   C70       1.0  0.01822  0.0947  0.43694000000000005  1.0000
  C   C71       1.0  0.19252000000000002  0.05188  0.41714  1.0000
  C   C72       1.0  0.23524000000000003  0.13237  0.42196  1.0000
  C   C73       1.0  0.9055400000000001  0.12642  0.46113  1.0000
  C   C74       1.0  0.87003  0.04583999999999999  0.46143000000000006  1.0000
  C   C75       1.0  0.27489999999999987  0.88718  0.40629  1.0000
  C   C76       1.0  0.31411  0.95435  0.44782000000000005  1.0000
  C   C77       1.0  0.1824000000000001  0.92828  0.37253  1.0000
  C   C78       1.0  0.2217999999999999  0.9961999999999999  0.41354  1.0000
  C   C79       1.0  0.2873400000000001  0.007679999999999999  0.45205  1.0000
  C   C80       1.0  0.20830999999999988  0.8739699999999998  0.36933  1.0000
  C   C81       1.0  0.30255000000000004  0.82932  0.40357  1.0000
  C   C82       1.0  0.4872  0.2752  0.4224300000000001  1.0000
  C   C83       1.0  0.44927  0.21158  0.37698  1.0000
  C   C84       1.0  0.36766  0.16584  0.37636  1.0000
  C   C85       1.0  0.3215400000000001  0.18171  0.42173000000000005  1.0000
  C   C86       1.0  0.35997  0.24603000000000003  0.46684  1.0000
  C   C87       1.0  0.44179000000000007  0.29194  0.46756000000000003  1.0000
  C   C88       1.0  0.57411  0.32651  0.4202100000000001  1.0000
  C   C89       1.0  0.7981399999999998  0.27034  0.4829500000000001  1.0000
  C   C90       1.0  0.77344  0.20328  0.52406  1.0000
  C   C91       1.0  0.8081900000000001  0.15667999999999996  0.51791  1.0000
  C   C92       1.0  0.8684800000000003  0.17524999999999993  0.46992  1.0000
  C   C93       1.0  0.8934  0.24301  0.42918  1.0000
  C   C94       1.0  0.8586300000000002  0.28965  0.43535  1.0000
  C   C95       1.0  0.76307  0.32184  0.49154000000000003  1.0000
  C   C96       1.0  0.62903  0.87597  0.503  1.0000
  C   C97       1.0  0.68993  0.86585  0.5290900000000001  1.0000
  C   C98       1.0  0.7681400000000002  0.9211099999999999  0.51492  1.0000
  C   C99       1.0  0.7870199999999999  0.9874099999999999  0.4740500000000001  1.0000
  C   C100      1.0  0.72543  0.99486  0.44501  1.0000
  C   C101      1.0  0.64755  0.9402799999999998  0.45995  1.0000
  C   C102      1.0  0.54489  0.8189999999999997  0.51903  1.0000
  C   C103      1.0  0.09576  0.007349999999999996  0.59488  1.0000
  C   C104      1.0  0.09399000000000002  0.07536  0.60374  1.0000
  C   C105      1.0  0.05191000000000009  0.8582  0.58408  1.0000
  C   C106      1.0  0.13236999999999985  0.8960199999999998  0.58905  1.0000
  C   C107      1.0  0.12571  0.22017999999999993  0.6271700000000001  1.0000
  C   C108      1.0  0.04517999999999998  0.17512999999999995  0.62804  1.0000
  C   C109      1.0  0.88647  0.61133  0.57467  1.0000
  C   C110      1.0  0.95406  0.6391899999999998  0.61543  1.0000
  C   C111      1.0  0.92786  0.74484  0.54029  1.0000
  C   C112      1.0  0.9961700000000002  0.77327  0.5807300000000001  1.0000
  C   C113      1.0  0.007729999999999941  0.7192199999999997  0.6192200000000001  1.0000
  C   C114      1.0  0.87317  0.66466  0.5377100000000001  1.0000
  C   C115      1.0  0.8285800000000001  0.5259099999999999  0.57284  1.0000
  C   C116      1.0  0.27579  0.7872499999999998  0.58817  1.0000
  C   C117      1.0  0.21185999999999997  0.76144  0.5431500000000001  1.0000
  C   C118      1.0  0.16589  0.7971  0.54295  1.0000
  C   C119      1.0  0.18183  0.85912  0.5884  1.0000
  C   C120      1.0  0.24641999999999994  0.88511  0.6331000000000001  1.0000
  C   C121      1.0  0.2925  0.84935  0.6333200000000001  1.0000
  C   C122      1.0  0.3272  0.7517  0.58554  1.0000
  C   C123      1.0  0.27042000000000005  0.47136  0.64828  1.0000
  C   C124      1.0  0.20341999999999993  0.4295799999999999  0.68953  1.0000
  C   C125      1.0  0.15639999999999998  0.3482299999999999  0.68365  1.0000
  C   C126      1.0  0.17463  0.30611  0.63571  1.0000
  C   C127      1.0  0.24228000000000002  0.34847  0.59466  1.0000
  C   C128      1.0  0.2894300000000001  0.42984  0.6007000000000001  1.0000
  C   C129      1.0  0.3219000000000001  0.55793  0.6565400000000001  1.0000
  C   C130      1.0  0.8754600000000001  0.24627999999999997  0.671  1.0000
  C   C131      1.0  0.8655700000000001  0.17525999999999994  0.69693  1.0000
  C   C132      1.0  0.92086  0.15244999999999995  0.68231  1.0000
  C   C133      1.0  0.98688  0.19986  0.64108  1.0000
  C   C134      1.0  0.9942700000000001  0.2691699999999999  0.6125700000000001  1.0000
  C   C135      1.0  0.93978  0.2924299999999999  0.62807  1.0000
  C   C136      1.0  0.8186500000000001  0.27356  0.6872100000000001  1.0000
  C   C137      1.0  0.9922300000000001  0.08818999999999998  0.26146  1.0000
  C   C138      1.0  0.9242500000000001  0.01842  0.27044000000000007  1.0000
  C   C139      1.0  0.14155  0.19338999999999995  0.2505  1.0000
  C   C140      1.0  0.10378999999999998  0.23613999999999996  0.2554  1.0000
  C   C141      1.0  0.77968  0.9051999999999998  0.29422  1.0000
  C   C142      1.0  0.82487  0.86988  0.29523  1.0000
  C   C143      1.0  0.38868  0.27542999999999995  0.23972000000000002  1.0000
  C   C144      1.0  0.36086000000000007  0.31502  0.28087  1.0000
  C   C145      1.0  0.2549  0.18278999999999998  0.20597  1.0000
  C   C146      1.0  0.22650000000000003  0.22252  0.24678000000000005  1.0000
  C   C147      1.0  0.28076  0.28826  0.28515000000000007  1.0000
  C   C148      1.0  0.3351300000000001  0.20863  0.20295  1.0000
  C   C149      1.0  0.47403  0.30248  0.23725  1.0000
  C   C150      1.0  0.21256999999999998  0.48838999999999994  0.25504  1.0000
  C   C151      1.0  0.23841000000000004  0.45023  0.20995  1.0000
  C   C152      1.0  0.20278000000000007  0.36859  0.20965  1.0000
  C   C153      1.0  0.14071  0.32254  0.25498  1.0000
  C   C154      1.0  0.11471000000000002  0.36123  0.29974000000000006  1.0000
  C   C155      1.0  0.15046  0.4431  0.30014  1.0000
  C   C156      1.0  0.24811000000000002  0.57533  0.2523000000000001  1.0000
  C   C157      1.0  0.5286100000000001  0.79875  0.31493000000000004  1.0000
  C   C158      1.0  0.5702700000000003  0.77341  0.35612  1.0000
  C   C159      1.0  0.6515899999999999  0.8076999999999999  0.35042  1.0000
  C   C160      1.0  0.6938  0.86812  0.30266  1.0000
  C   C161      1.0  0.65153  0.8933599999999999  0.26151  1.0000
  C   C162      1.0  0.5702000000000002  0.8591899999999998  0.2674  1.0000
  C   C163      1.0  0.44209  0.7639899999999997  0.32322  1.0000
  C   C164      1.0  0.75303  0.6290599999999997  0.3387  1.0000
  C   C165      1.0  0.8239600000000001  0.69011  0.36478  1.0000
  C   C166      1.0  0.8472  0.76825  0.34997  1.0000
  C   C167      1.0  0.80014  0.78689  0.30842  1.0000
  C   C168      1.0  0.731  0.72501  0.27962000000000004  1.0000
  C   C169      1.0  0.70737  0.6472099999999997  0.29521  1.0000
  C   C170      1.0  0.72587  0.5451199999999998  0.35539  1.0000
  C   C171      1.0  0.91189  0.9039099999999998  0.9282400000000001  1.0000
  C   C172      1.0  0.9816000000000001  0.9056599999999998  0.9371500000000001  1.0000
  C   C173      1.0  0.80688  0.9481199999999999  0.91726  1.0000
  C   C174      1.0  0.76416  0.8676199999999997  0.92225  1.0000
  C   C175      1.0  0.09469999999999998  0.87425  0.96067  1.0000
  C   C176      1.0  0.13020999999999996  0.95481  0.96134  1.0000
  C   C177      1.0  0.72441  0.11279999999999998  0.90632  1.0000
  C   C178      1.0  0.6848300000000003  0.04544  0.94743  1.0000
  C   C179      1.0  0.81724  0.07187  0.87271  1.0000
  C   C180      1.0  0.7776200000000002  0.0038299999999999996  0.91352  1.0000
  C   C181      1.0  0.7118100000000004  0.99229  0.95179  1.0000
  C   C182      1.0  0.79127  0.12613  0.8696600000000001  1.0000
  C   C183      1.0  0.69724  0.17096  0.90374  1.0000
  C   C184      1.0  0.51191  0.72456  0.9216600000000003  1.0000
  C   C185      1.0  0.55025  0.78848  0.8766  1.0000
  C   C186      1.0  0.63188  0.8342599999999998  0.8763100000000001  1.0000
  C   C187      1.0  0.6778  0.81824  0.92171  1.0000
  C   C188      1.0  0.6390199999999999  0.7536899999999997  0.9664500000000001  1.0000
  C   C189      1.0  0.5571400000000002  0.70774  0.96675  1.0000
  C   C190      1.0  0.42489000000000005  0.67318  0.91888  1.0000
  C   C191      1.0  0.20108000000000006  0.72967  0.98176  1.0000
  C   C192      1.0  0.22632999999999998  0.7968099999999998  0.02295  1.0000
  C   C193      1.0  0.1919500000000001  0.84375  0.01704  1.0000
  C   C194      1.0  0.13168  0.82537  0.9691600000000001  1.0000
  C   C195      1.0  0.1064399999999999  0.7576599999999998  0.9281800000000001  1.0000
  C   C196      1.0  0.14067  0.71058  0.93421  1.0000
  C   C197      1.0  0.23596999999999999  0.67805  0.9898800000000002  1.0000
  C   C198      1.0  0.3712100000000001  0.12455999999999999  0.00394  1.0000
  C   C199      1.0  0.31014  0.13452  0.030020000000000005  1.0000
  C   C200      1.0  0.23201000000000002  0.07926999999999997  0.01551  1.0000
  C   C201      1.0  0.21329000000000004  0.01319  0.97422  1.0000
  C   C202      1.0  0.27517  0.0057599999999999995  0.9455400000000002  1.0000
  C   C203      1.0  0.35296000000000005  0.06023  0.9609200000000002  1.0000
  C   C204      1.0  0.45531000000000005  0.18146  0.02022  1.0000
  S   S1        1.0  0.9916500000000001  0.08176  0.08207000000000002  1.0000
  S   S2        1.0  0.8184800000000002  0.99958  0.09219  1.0000
  S   S3        1.0  0.8220599999999998  0.8297799999999997  0.11127  1.0000
  S   S4        1.0  0.99547  0.9244299999999998  0.10815  1.0000
  S   S5        1.0  0.91843  0.90998  0.7484300000000002  1.0000
  S   S6        1.0  0.0005499999999998304  0.8189199999999998  0.75877  1.0000
  S   S7        1.0  0.1702  0.9921699999999999  0.7775900000000001  1.0000
  S   S8        1.0  0.07574  0.07117  0.7745900000000002  1.0000
  S   S9        1.0  0.08978  0.00853  0.41491000000000006  1.0000
  S   S10       1.0  0.18087  0.18177999999999994  0.4254  1.0000
  S   S11       1.0  0.00774999999999999  0.17825999999999997  0.44458000000000003  1.0000
  S   S12       1.0  0.9289100000000002  0.004749999999999998  0.44119  1.0000
  S   S13       1.0  0.008310000000000003  0.91741  0.58197  1.0000
  S   S14       1.0  0.1814  0.99987  0.59237  1.0000
  S   S15       1.0  0.17744  0.16955  0.61099  1.0000
  S   S16       1.0  0.004119999999999995  0.07496  0.6081400000000001  1.0000
  S   S17       1.0  0.08214  0.09057  0.24846000000000004  1.0000
  S   S18       1.0  0.99995  0.18145  0.25894  1.0000
  S   S19       1.0  0.82996  0.0074399999999999996  0.27758  1.0000
  S   S20       1.0  0.92488  0.9290099999999998  0.27512  1.0000
  S   S21       1.0  0.9096400000000001  0.9915099999999999  0.9152400000000002  1.0000
  S   S22       1.0  0.8186999999999999  0.8183499999999998  0.92587  1.0000
  S   S23       1.0  0.9924000000000001  0.82228  0.94456  1.0000
  S   S24       1.0  0.07100999999999996  0.9956799999999999  0.94148  1.0000
  O   O1        1.0  0.15187  0.51948  0.10074  1.0000
  O   O2        1.0  0.23704  0.49736  0.04026  1.0000
  O   O3        1.0  0.6237700000000003  0.23232  0.13183000000000003  1.0000
  O   O4        1.0  0.6801800000000001  0.2932599999999999  0.03343  1.0000
  O   O5        1.0  0.62309  0.40392  0.11452000000000001  1.0000
  O   O6        1.0  0.69046  0.4071899999999999  0.20891000000000004  1.0000
  O   O7        1.0  0.16760000000000005  0.66172  0.15834  1.0000
  O   O8        1.0  0.23924  0.76842  0.22556000000000004  1.0000
  O   O9        1.0  0.48065000000000013  0.63254  0.7673  1.0000
  O   O10       1.0  0.5030599999999998  0.7396499999999998  0.7065  1.0000
  O   O11       1.0  0.76797  0.39124  0.80167  1.0000
  O   O12       1.0  0.70705  0.38645  0.70338  1.0000
  O   O13       1.0  0.59597  0.21973  0.7813500000000001  1.0000
  O   O14       1.0  0.59209  0.28492  0.87509  1.0000
  O   O15       1.0  0.33864000000000005  0.5060499999999999  0.8251000000000002  1.0000
  O   O16       1.0  0.23178000000000007  0.47108  0.8921800000000001  1.0000
  O   O17       1.0  0.36721999999999994  0.8482  0.43418000000000007  1.0000
  O   O18       1.0  0.26027  0.76327  0.37333  1.0000
  O   O19       1.0  0.60799  0.3760199999999999  0.46837  1.0000
  O   O20       1.0  0.61309  0.32026  0.36972  1.0000
  O   O21       1.0  0.78017  0.37655  0.4479800000000001  1.0000
  O   O22       1.0  0.71663  0.30935  0.5426  1.0000
  O   O23       1.0  0.49412  0.83271  0.4916  1.0000
  O   O24       1.0  0.5291200000000001  0.7611399999999998  0.55887  1.0000
  O   O25       1.0  0.8482800000000001  0.47994  0.6019800000000001  1.0000
  O   O26       1.0  0.7614100000000004  0.50212  0.5446200000000001  1.0000
  O   O27       1.0  0.37718000000000007  0.76729  0.63312  1.0000
  O   O28       1.0  0.3205  0.70637  0.53485  1.0000
  O   O29       1.0  0.3765300000000001  0.59472  0.61268  1.0000
  O   O30       1.0  0.30970000000000003  0.59259  0.7072100000000001  1.0000
  O   O31       1.0  0.8326000000000001  0.33833999999999986  0.6602000000000002  1.0000
  O   O32       1.0  0.7607  0.23143  0.72706  1.0000
  O   O33       1.0  0.52054  0.36813999999999997  0.2663  1.0000
  O   O34       1.0  0.4970500000000001  0.25872  0.20841000000000004  1.0000
  O   O35       1.0  0.23264  0.61006  0.29976  1.0000
  O   O36       1.0  0.29336  0.61358  0.20152  1.0000
  O   O37       1.0  0.4054  0.78196  0.2794  1.0000
  O   O38       1.0  0.40736000000000006  0.71722  0.3738400000000001  1.0000
  O   O39       1.0  0.66216  0.49402999999999997  0.32701000000000013  1.0000
  O   O40       1.0  0.7671500000000003  0.53002  0.39683000000000007  1.0000
  O   O41       1.0  0.63149  0.15168  0.93264  1.0000
  O   O42       1.0  0.74088  0.23775  0.87505  1.0000
  O   O43       1.0  0.39016  0.62321  0.96643  1.0000
  O   O44       1.0  0.3867399999999999  0.6800199999999997  0.86805  1.0000
  O   O45       1.0  0.21825  0.6234199999999999  0.9459400000000001  1.0000
  O   O46       1.0  0.2827799999999999  0.6902499999999998  0.04049  1.0000
  O   O47       1.0  0.5064200000000001  0.16786999999999994  0.99317  1.0000
  O   O48       1.0  0.4707  0.23902999999999996  0.06044000000000001  1.0000
