data_image0
_chemical_formula_structural       Zn6H128C212O32
_chemical_formula_sum              "Zn6 H128 C212 O32"
_cell_length_a       20.91737
_cell_length_b       20.81458
_cell_length_c       33.74463
_cell_angle_alpha    89.99429
_cell_angle_beta     90.00361999999998
_cell_angle_gamma    118.69998

_space_group_name_H-M_alt    "P 1"
_space_group_IT_number       1

loop_
  _space_group_symop_operation_xyz
  'x, y, z'

loop_
  _atom_site_type_symbol
  _atom_site_label
  _atom_site_symmetry_multiplicity
  _atom_site_fract_x
  _atom_site_fract_y
  _atom_site_fract_z
  _atom_site_occupancy
  Zn  Zn1       1.0  0.6538  0.81184  0.00279  1.0000
  Zn  Zn2       1.0  0.8474599999999999  0.19461  0.93957  1.0000
  Zn  Zn3       1.0  0.7492  0.00293  0.9695700000000002  1.0000
  Zn  Zn4       1.0  0.34633  0.18819  0.50253  1.0000
  Zn  Zn5       1.0  0.15274999999999997  0.80565  0.43952000000000013  1.0000
  Zn  Zn6       1.0  0.25095999999999996  0.99707  0.4693700000000001  1.0000
  H   H1        1.0  0.89507  0.24231  0.06214  1.0000
  H   H2        1.0  0.9029599999999998  0.24322  0.13599000000000006  1.0000
  H   H3        1.0  0.6966799999999999  0.044520000000000004  0.14026  1.0000
  H   H4        1.0  0.6911699999999998  0.04331  0.06653  1.0000
  H   H5        1.0  0.3610299999999999  0.84125  0.39442000000000005  1.0000
  H   H6        1.0  0.48873000000000005  0.8902500000000001  0.36999  1.0000
  H   H7        1.0  0.5082999999999999  0.10585  0.3624500000000001  1.0000
  H   H8        1.0  0.3814  0.056  0.38752  1.0000
  H   H9        1.0  0.19452999999999998  0.04502000000000001  0.37435  1.0000
  H   H10       1.0  0.19876999999999997  0.04738  0.30075  1.0000
  H   H11       1.0  0.41522999999999993  0.23236  0.30501  1.0000
  H   H12       1.0  0.40824  0.23134000000000002  0.37873  1.0000
  H   H13       1.0  0.85901  0.84967  0.0501  1.0000
  H   H14       1.0  0.9867199999999999  0.9006800000000001  0.0748  1.0000
  H   H15       1.0  0.0026499999999999935  0.11494999999999998  0.08180000000000003  1.0000
  H   H16       1.0  0.8757199999999999  0.06306  0.05639  1.0000
  H   H17       1.0  0.10362000000000011  0.9721500000000001  0.05529000000000001  1.0000
  H   H18       1.0  0.23312999999999998  0.027940000000000003  0.07278  1.0000
  H   H19       1.0  0.20856  0.17829  0.15057  1.0000
  H   H20       1.0  0.07848999999999999  0.12246  0.13305000000000006  1.0000
  H   H21       1.0  0.85932  0.26228  0.19267  1.0000
  H   H22       1.0  0.8689899999999999  0.26329  0.26524  1.0000
  H   H23       1.0  0.7574699999999999  0.027739999999999997  0.26615  1.0000
  H   H24       1.0  0.7511799999999998  0.02638  0.19326  1.0000
  H   H25       1.0  0.9579999999999999  0.24565000000000003  0.31665  1.0000
  H   H26       1.0  0.018090000000000005  0.36996  0.34487  1.0000
  H   H27       1.0  0.81023  0.33753  0.38693  1.0000
  H   H28       1.0  0.7510899999999999  0.21357000000000004  0.35955  1.0000
  H   H29       1.0  0.70578  0.16518  0.28911  1.0000
  H   H30       1.0  0.73804  0.019300000000000005  0.36665  1.0000
  H   H31       1.0  0.34522  0.14211  0.04644  1.0000
  H   H32       1.0  0.40737999999999996  0.08071  0.01467  1.0000
  H   H33       1.0  0.43262999999999996  0.0031  0.12878  1.0000
  H   H34       1.0  0.36960999999999994  0.06339  0.16027  1.0000
  H   H35       1.0  0.26309999999999995  0.23347000000000004  0.08261  1.0000
  H   H36       1.0  0.33593  0.35756  0.0558  1.0000
  H   H37       1.0  0.53179  0.36207000000000006  0.09895000000000002  1.0000
  H   H38       1.0  0.45876  0.23715000000000003  0.12496  1.0000
  H   H39       1.0  0.4027499999999999  0.47864  0.0715  1.0000
  H   H40       1.0  0.47836999999999996  0.60526  0.04526  1.0000
  H   H41       1.0  0.65039  0.55653  0.01776  1.0000
  H   H42       1.0  0.57544  0.42927  0.04315  1.0000
  H   H43       1.0  0.23939999999999997  0.02603  0.24539999999999998  1.0000
  H   H44       1.0  0.37987999999999994  0.25959  0.24973000000000004  1.0000
  H   H45       1.0  0.57683  0.10827  0.3088700000000001  1.0000
  H   H46       1.0  0.6092599999999999  0.9620099999999999  0.3863  1.0000
  H   H47       1.0  0.8433999999999999  0.1315  0.39396000000000003  1.0000
  H   H48       1.0  0.9097  0.07324  0.4242600000000001  1.0000
  H   H49       1.0  0.9555499999999999  0.02021  0.30804  1.0000
  H   H50       1.0  0.8876299999999999  0.07646  0.27805  1.0000
  H   H51       1.0  0.9450599999999999  0.9223100000000001  0.34142  1.0000
  H   H52       1.0  0.42005  0.90832  0.08946  1.0000
  H   H53       1.0  0.38428  0.26399  0.17721  1.0000
  H   H54       1.0  0.24109999999999998  0.03144  0.17262  1.0000
  H   H55       1.0  0.49456  0.85531  0.06068  1.0000
  H   H56       1.0  0.59431  0.03588  0.9798000000000001  1.0000
  H   H57       1.0  0.52072  0.08976  0.008140000000000001  1.0000
  H   H58       1.0  0.014459999999999983  0.86467  0.37096  1.0000
  H   H59       1.0  0.08968  0.0239  0.46439  1.0000
  H   H60       1.0  0.020419999999999994  0.08196  0.43559  1.0000
  H   H61       1.0  0.8782699999999999  0.40853  0.43451  1.0000
  H   H62       1.0  0.93361  0.53477  0.46235  1.0000
  H   H63       1.0  0.09292999999999998  0.61229  0.3694900000000001  1.0000
  H   H64       1.0  0.03773999999999998  0.48668  0.34067  1.0000
  H   H65       1.0  0.10533999999999998  0.75807  0.56208  1.0000
  H   H66       1.0  0.09732999999999999  0.75699  0.63596  1.0000
  H   H67       1.0  0.30353  0.95577  0.64036  1.0000
  H   H68       1.0  0.3091  0.9571300000000001  0.56661  1.0000
  H   H69       1.0  0.63884  0.15898  0.8945200000000002  1.0000
  H   H70       1.0  0.5112599999999999  0.10978000000000002  0.87001  1.0000
  H   H71       1.0  0.49200999999999995  0.8944  0.86247  1.0000
  H   H72       1.0  0.6187299999999999  0.94427  0.88773  1.0000
  H   H73       1.0  0.8055599999999999  0.9548200000000001  0.8744  1.0000
  H   H74       1.0  0.8011399999999997  0.9523399999999999  0.80081  1.0000
  H   H75       1.0  0.58459  0.76754  0.8052500000000002  1.0000
  H   H76       1.0  0.5917399999999999  0.76867  0.87895  1.0000
  H   H77       1.0  0.14087  0.15046  0.54999  1.0000
  H   H78       1.0  0.013259999999999997  0.0993  0.57489  1.0000
  H   H79       1.0  0.9975699999999998  0.8852700000000001  0.58191  1.0000
  H   H80       1.0  0.12434999999999992  0.93713  0.55634  1.0000
  H   H81       1.0  0.8963699999999999  0.027810000000000005  0.55541  1.0000
  H   H82       1.0  0.76685  0.9719400000000001  0.57286  1.0000
  H   H83       1.0  0.79152  0.82158  0.6506600000000001  1.0000
  H   H84       1.0  0.9216099999999999  0.87755  0.63316  1.0000
  H   H85       1.0  0.14077  0.73793  0.69259  1.0000
  H   H86       1.0  0.13101  0.73681  0.76517  1.0000
  H   H87       1.0  0.24255999999999997  0.9723900000000001  0.76614  1.0000
  H   H88       1.0  0.24891  0.97381  0.69324  1.0000
  H   H89       1.0  0.04208000000000001  0.75448  0.8165200000000002  1.0000
  H   H90       1.0  0.98191  0.63021  0.84481  1.0000
  H   H91       1.0  0.18973  0.66257  0.88693  1.0000
  H   H92       1.0  0.24892999999999998  0.78651  0.85949  1.0000
  H   H93       1.0  0.29428000000000004  0.8349100000000002  0.78903  1.0000
  H   H94       1.0  0.2619799999999999  0.98073  0.86657  1.0000
  H   H95       1.0  0.65472  0.85771  0.54654  1.0000
  H   H96       1.0  0.5926799999999999  0.9192  0.51475  1.0000
  H   H97       1.0  0.5676099999999997  0.99703  0.62882  1.0000
  H   H98       1.0  0.6304899999999999  0.93663  0.66033  1.0000
  H   H99       1.0  0.73677  0.76639  0.5826  1.0000
  H   H100      1.0  0.6638899999999999  0.64238  0.55575  1.0000
  H   H101      1.0  0.46812999999999994  0.63778  0.5991  1.0000
  H   H102      1.0  0.54118  0.76264  0.62514  1.0000
  H   H103      1.0  0.59709  0.5211700000000001  0.57143  1.0000
  H   H104      1.0  0.52148  0.39462  0.54517  1.0000
  H   H105      1.0  0.34937000000000007  0.44331000000000004  0.51781  1.0000
  H   H106      1.0  0.42428999999999994  0.5705000000000001  0.54322  1.0000
  H   H107      1.0  0.7603799999999998  0.97376  0.74552  1.0000
  H   H108      1.0  0.6200299999999999  0.74016  0.7498300000000001  1.0000
  H   H109      1.0  0.42322999999999994  0.8918100000000001  0.8088  1.0000
  H   H110      1.0  0.39075  0.03801  0.88623  1.0000
  H   H111      1.0  0.15660000000000002  0.86849  0.89388  1.0000
  H   H112      1.0  0.09033000000000008  0.92677  0.9241900000000001  1.0000
  H   H113      1.0  0.044490000000000036  0.9798900000000001  0.80799  1.0000
  H   H114      1.0  0.11236999999999994  0.9236300000000001  0.7779800000000002  1.0000
  H   H115      1.0  0.05494999999999999  0.07778  0.8414200000000002  1.0000
  H   H116      1.0  0.57991  0.09171  0.58945  1.0000
  H   H117      1.0  0.61572  0.73579  0.6773  1.0000
  H   H118      1.0  0.7588  0.9684100000000001  0.6727500000000001  1.0000
  H   H119      1.0  0.50518  0.14444  0.56061  1.0000
  H   H120      1.0  0.40576999999999996  0.96381  0.47981000000000007  1.0000
  H   H121      1.0  0.47952  0.91013  0.50818  1.0000
  H   H122      1.0  0.9854199999999999  0.13527  0.87095  1.0000
  H   H123      1.0  0.9103099999999998  0.97595  0.9643600000000001  1.0000
  H   H124      1.0  0.9796699999999999  0.91802  0.93554  1.0000
  H   H125      1.0  0.12149999999999994  0.59135  0.9345300000000001  1.0000
  H   H126      1.0  0.06607  0.4648  0.9620700000000001  1.0000
  H   H127      1.0  0.9071599999999999  0.38796  0.86902  1.0000
  H   H128      1.0  0.9622299999999998  0.51381  0.8405200000000002  1.0000
  C   C1        1.0  0.7900999999999999  0.14201  0.01576  1.0000
  C   C2        1.0  0.7925099999999999  0.1432  0.060070000000000005  1.0000
  C   C3        1.0  0.8520599999999999  0.1998  0.07982  1.0000
  C   C4        1.0  0.8558199999999999  0.2002  0.12095000000000002  1.0000
  C   C5        1.0  0.80032  0.14401  0.14354  1.0000
  C   C6        1.0  0.7407399999999998  0.08753  0.12334999999999999  1.0000
  C   C7        1.0  0.73685  0.08697  0.08218  1.0000
  C   C8        1.0  0.28738000000000014  0.9163000000000001  0.40769  1.0000
  C   C9        1.0  0.36344999999999983  0.9454699999999999  0.39212  1.0000
  C   C10       1.0  0.39424  0.89901  0.3873600000000001  1.0000
  C   C11       1.0  0.4655499999999999  0.92677  0.37391  1.0000
  C   C12       1.0  0.50761  0.00158  0.36414  1.0000
  C   C13       1.0  0.47596  0.04764  0.36880000000000007  1.0000
  C   C14       1.0  0.40519999999999995  0.02022  0.38296  1.0000
  C   C15       1.0  0.29747  0.13755  0.42521000000000003  1.0000
  C   C16       1.0  0.30080999999999997  0.13858000000000004  0.38092  1.0000
  C   C17       1.0  0.24221999999999996  0.08598  0.35873  1.0000
  C   C18       1.0  0.24537999999999996  0.08714  0.3175600000000001  1.0000
  C   C19       1.0  0.30722  0.14035  0.29727  1.0000
  C   C20       1.0  0.36622  0.19215  0.31998  1.0000
  C   C21       1.0  0.3629899999999999  0.19146  0.36113  1.0000
  C   C22       1.0  0.7849899999999999  0.92339  0.03459  1.0000
  C   C23       1.0  0.86002  0.9534  0.05164  1.0000
  C   C24       1.0  0.89145  0.9076  0.05706  1.0000
  C   C25       1.0  0.96276  0.9364999999999999  0.07067  1.0000
  C   C26       1.0  0.00412  0.01168  0.07991  1.0000
  C   C27       1.0  0.9711999999999998  0.05664000000000001  0.07546  1.0000
  C   C28       1.0  0.90043  0.028110000000000003  0.06108999999999999  1.0000
  C   C29       1.0  0.08091999999999999  0.04348  0.09223  1.0000
  C   C30       1.0  0.12618999999999997  0.017210000000000003  0.07636  1.0000
  C   C31       1.0  0.20001  0.04949  0.08598  1.0000
  C   C32       1.0  0.23172  0.10938  0.11187  1.0000
  C   C33       1.0  0.18595  0.13404  0.129  1.0000
  C   C34       1.0  0.11248  0.10244  0.11915  1.0000
  C   C35       1.0  0.80528  0.14438  0.18709000000000006  1.0000
  C   C36       1.0  0.83881  0.21055  0.20848000000000005  1.0000
  C   C37       1.0  0.8439599999999999  0.21115  0.24973000000000004  1.0000
  C   C38       1.0  0.8158199999999999  0.14564  0.27126  1.0000
  C   C39       1.0  0.7812999999999999  0.07929  0.24997999999999998  1.0000
  C   C40       1.0  0.77659  0.07851  0.20889  1.0000
  C   C41       1.0  0.84951  0.22026999999999997  0.33514  1.0000
  C   C42       1.0  0.92534  0.26613  0.3316500000000001  1.0000
  C   C43       1.0  0.9592799999999999  0.33646  0.34751  1.0000
  C   C44       1.0  0.9189299999999999  0.3641  0.36812  1.0000
  C   C45       1.0  0.84336  0.31774  0.37188  1.0000
  C   C46       1.0  0.80951  0.24739  0.3558800000000001  1.0000
  C   C47       1.0  0.7328799999999999  0.09921  0.32788  1.0000
  C   C48       1.0  0.685  0.12148000000000002  0.31102  1.0000
  C   C49       1.0  0.70341  0.03958  0.3539900000000001  1.0000
  C   C50       1.0  0.3132  0.14752  0.12337000000000001  1.0000
  C   C51       1.0  0.35141999999999995  0.10645  0.10572  1.0000
  C   C52       1.0  0.3638  0.11098000000000001  0.0645  1.0000
  C   C53       1.0  0.39954  0.07704000000000001  0.046630000000000005  1.0000
  C   C54       1.0  0.42482999999999993  0.03688  0.0693  1.0000
  C   C55       1.0  0.41212  0.03216  0.11041000000000002  1.0000
  C   C56       1.0  0.37653999999999993  0.06666  0.1283  1.0000
  C   C57       1.0  0.355  0.22612000000000002  0.10662  1.0000
  C   C58       1.0  0.32179  0.26151  0.08686  1.0000
  C   C59       1.0  0.36323  0.33219  0.07172  1.0000
  C   C60       1.0  0.43963  0.37009  0.07541  1.0000
  C   C61       1.0  0.4729299999999999  0.33399  0.09502000000000002  1.0000
  C   C62       1.0  0.43156  0.26379  0.11016  1.0000
  C   C63       1.0  0.48357  0.44462000000000007  0.05940000000000001  1.0000
  C   C64       1.0  0.45647  0.495  0.05923000000000001  1.0000
  C   C65       1.0  0.49848000000000003  0.5658300000000002  0.0449  1.0000
  C   C66       1.0  0.5689300000000002  0.5883700000000001  0.03033  1.0000
  C   C67       1.0  0.59616  0.53848  0.029790000000000004  1.0000
  C   C68       1.0  0.55418  0.46775  0.04422000000000001  1.0000
  C   C69       1.0  0.30995999999999996  0.14245000000000002  0.25363  1.0000
  C   C70       1.0  0.27089  0.07854  0.23068000000000005  1.0000
  C   C71       1.0  0.35084  0.20882  0.23311  1.0000
  C   C72       1.0  0.58333  0.03205  0.35017  1.0000
  C   C73       1.0  0.61225  0.08944  0.3222  1.0000
  C   C74       1.0  0.63003  0.00655  0.36488  1.0000
  C   C75       1.0  0.81462  0.14266  0.31692  1.0000
  C   C76       1.0  0.8579499999999999  0.10621  0.33369  1.0000
  C   C77       1.0  0.86705  0.10606  0.37507  1.0000
  C   C78       1.0  0.9053399999999998  0.07401  0.39216  1.0000
  C   C79       1.0  0.93714  0.04094  0.3685600000000001  1.0000
  C   C80       1.0  0.9295  0.04284  0.3272000000000001  1.0000
  C   C81       1.0  0.89105  0.07508  0.31013  1.0000
  C   C82       1.0  0.97758  0.006440000000000001  0.3863  1.0000
  C   C83       1.0  0.97714  0.94514  0.36814  1.0000
  C   C84       1.0  0.46542999999999995  0.00315  0.05105  1.0000
  C   C85       1.0  0.45858999999999994  0.93663  0.06569  1.0000
  C   C86       1.0  0.3146399999999999  0.14778  0.16912000000000005  1.0000
  C   C87       1.0  0.35303  0.21143000000000003  0.19180000000000005  1.0000
  C   C88       1.0  0.27279  0.08139  0.18952  1.0000
  C   C89       1.0  0.5961000000000001  0.9123500000000001  0.002960000000000001  1.0000
  C   C90       1.0  0.49948  0.9065500000000001  0.0496  1.0000
  C   C91       1.0  0.5489799999999999  0.94255  0.01872  1.0000
  C   C92       1.0  0.55533  0.00816  0.00345  1.0000
  C   C93       1.0  0.51382  0.03779  0.019320000000000004  1.0000
  C   C94       1.0  0.09928000000000005  0.90707  0.43642  1.0000
  C   C95       1.0  0.015299999999999989  0.91238  0.3846  1.0000
  C   C96       1.0  0.055970000000000034  0.94058  0.41946  1.0000
  C   C97       1.0  0.05714  0.00178  0.43775  1.0000
  C   C98       1.0  0.01804  0.03382  0.42153  1.0000
  C   C99       1.0  0.9534900000000002  0.43826000000000004  0.38529  1.0000
  C   C100      1.0  0.92457  0.45304  0.4197800000000001  1.0000
  C   C101      1.0  0.9555499999999999  0.52316  0.43572  1.0000
  C   C102      1.0  0.01650000000000002  0.58083  0.4176  1.0000
  C   C103      1.0  0.04592000000000006  0.5669700000000001  0.3833  1.0000
  C   C104      1.0  0.0152  0.49659  0.36758  1.0000
  C   C105      1.0  0.61496  0.66496  0.01551  1.0000
  C   C106      1.0  0.04880999999999998  0.65663  0.43439  1.0000
  C   C107      1.0  0.21018  0.85876  0.5158  1.0000
  C   C108      1.0  0.2077700000000001  0.85731  0.56011  1.0000
  C   C109      1.0  0.1482799999999999  0.80056  0.57981  1.0000
  C   C110      1.0  0.14447  0.80005  0.62094  1.0000
  C   C111      1.0  0.19991000000000003  0.8562600000000002  0.64355  1.0000
  C   C112      1.0  0.25953  0.91278  0.6234100000000001  1.0000
  C   C113      1.0  0.26344000000000006  0.9134500000000001  0.58225  1.0000
  C   C114      1.0  0.71239  0.08375000000000002  0.90827  1.0000
  C   C115      1.0  0.63661  0.05474  0.89232  1.0000
  C   C116      1.0  0.60583  0.1012  0.88741  1.0000
  C   C117      1.0  0.5345099999999999  0.07333  0.87393  1.0000
  C   C118      1.0  0.49249000000000004  0.9985400000000001  0.86415  1.0000
  C   C119      1.0  0.5242499999999999  0.9525900000000002  0.86883  1.0000
  C   C120      1.0  0.59497  0.98005  0.88305  1.0000
  C   C121      1.0  0.7026599999999998  0.86246  0.92542  1.0000
  C   C122      1.0  0.69922  0.8612900000000002  0.8811  1.0000
  C   C123      1.0  0.7578  0.9138000000000001  0.8588400000000003  1.0000
  C   C124      1.0  0.7545599999999998  0.9126099999999999  0.81766  1.0000
  C   C125      1.0  0.69264  0.85945  0.79739  1.0000
  C   C126      1.0  0.6336899999999999  0.80772  0.82016  1.0000
  C   C127      1.0  0.6370099999999999  0.80845  0.86132  1.0000
  C   C128      1.0  0.21478999999999998  0.07655  0.53421  1.0000
  C   C129      1.0  0.13994  0.04671  0.5514900000000001  1.0000
  C   C130      1.0  0.10857  0.09254000000000001  0.55704  1.0000
  C   C131      1.0  0.03728999999999998  0.06358  0.57072  1.0000
  C   C132      1.0  0.99594  0.9884  0.57997  1.0000
  C   C133      1.0  0.028949999999999976  0.94355  0.57554  1.0000
  C   C134      1.0  0.09968000000000013  0.9720800000000002  0.56112  1.0000
  C   C135      1.0  0.9191399999999998  0.95652  0.59234  1.0000
  C   C136      1.0  0.87382  0.98275  0.57649  1.0000
  C   C137      1.0  0.79997  0.9503900000000001  0.58608  1.0000
  C   C138      1.0  0.7682699999999999  0.89046  0.61196  1.0000
  C   C139      1.0  0.8141  0.86586  0.6291  1.0000
  C   C140      1.0  0.8876  0.89756  0.61927  1.0000
  C   C141      1.0  0.19483000000000011  0.8558300000000001  0.68708  1.0000
  C   C142      1.0  0.16125000000000006  0.7896200000000002  0.7084300000000002  1.0000
  C   C143      1.0  0.15607000000000004  0.7889700000000001  0.74967  1.0000
  C   C144      1.0  0.18422000000000005  0.85447  0.7712  1.0000
  C   C145      1.0  0.2187500000000001  0.9208600000000001  0.74995  1.0000
  C   C146      1.0  0.2235  0.92169  0.70887  1.0000
  C   C147      1.0  0.15053000000000005  0.7798300000000001  0.83507  1.0000
  C   C148      1.0  0.07469000000000002  0.734  0.8315700000000003  1.0000
  C   C149      1.0  0.040729999999999975  0.6637  0.84746  1.0000
  C   C150      1.0  0.08107  0.63608  0.8681  1.0000
  C   C151      1.0  0.15663000000000005  0.68239  0.87186  1.0000
  C   C152      1.0  0.19050999999999996  0.75271  0.85583  1.0000
  C   C153      1.0  0.26717  0.90086  0.8278000000000002  1.0000
  C   C154      1.0  0.31505999999999995  0.8786000000000002  0.8109400000000001  1.0000
  C   C155      1.0  0.29664000000000007  0.9604800000000001  0.85391  1.0000
  C   C156      1.0  0.68677  0.85231  0.62346  1.0000
  C   C157      1.0  0.6485999999999997  0.8934599999999999  0.60581  1.0000
  C   C158      1.0  0.6361999999999999  0.88891  0.56459  1.0000
  C   C159      1.0  0.6005200000000002  0.9228900000000001  0.5467  1.0000
  C   C160      1.0  0.57532  0.96314  0.5693500000000001  1.0000
  C   C161      1.0  0.58805  0.9678900000000001  0.61046  1.0000
  C   C162      1.0  0.62357  0.9333200000000001  0.62837  1.0000
  C   C163      1.0  0.6449199999999999  0.77373  0.6067  1.0000
  C   C164      1.0  0.67807  0.73835  0.58688  1.0000
  C   C165      1.0  0.63661  0.66769  0.57173  1.0000
  C   C166      1.0  0.5602  0.62975  0.5754500000000001  1.0000
  C   C167      1.0  0.52697  0.66584  0.59514  1.0000
  C   C168      1.0  0.56837  0.73603  0.61029  1.0000
  C   C169      1.0  0.51624  0.55522  0.55943  1.0000
  C   C170      1.0  0.54335  0.50486  0.55921  1.0000
  C   C171      1.0  0.5013599999999999  0.43405  0.54486  1.0000
  C   C172      1.0  0.43088999999999994  0.41148  0.5303300000000002  1.0000
  C   C173      1.0  0.40360999999999997  0.4613300000000001  0.52983  1.0000
  C   C174      1.0  0.4455799999999999  0.53205  0.54428  1.0000
  C   C175      1.0  0.6898699999999999  0.85733  0.75373  1.0000
  C   C176      1.0  0.7289399999999999  0.92125  0.73079  1.0000
  C   C177      1.0  0.6490599999999999  0.79094  0.73322  1.0000
  C   C178      1.0  0.41675999999999996  0.96802  0.85012  1.0000
  C   C179      1.0  0.38782  0.91065  0.8221400000000002  1.0000
  C   C180      1.0  0.37002000000000007  0.99349  0.86481  1.0000
  C   C181      1.0  0.18541999999999992  0.85742  0.81685  1.0000
  C   C182      1.0  0.14209000000000002  0.89387  0.83361  1.0000
  C   C183      1.0  0.13297  0.89397  0.87499  1.0000
  C   C184      1.0  0.09467999999999993  0.92601  0.89209  1.0000
  C   C185      1.0  0.06289999999999997  0.95911  0.8685  1.0000
  C   C186      1.0  0.07052000000000012  0.9572300000000001  0.82714  1.0000
  C   C187      1.0  0.10896999999999998  0.925  0.81006  1.0000
  C   C188      1.0  0.022470000000000004  0.9936000000000001  0.88627  1.0000
  C   C189      1.0  0.022840000000000003  0.0549  0.86813  1.0000
  C   C190      1.0  0.53469  0.99682  0.55108  1.0000
  C   C191      1.0  0.5414  0.0633  0.56569  1.0000
  C   C192      1.0  0.68532  0.85202  0.66922  1.0000
  C   C193      1.0  0.64694  0.78835  0.69189  1.0000
  C   C194      1.0  0.72711  0.91842  0.6896300000000002  1.0000
  C   C195      1.0  0.40364  0.08706000000000001  0.50286  1.0000
  C   C196      1.0  0.50038  0.09322000000000001  0.5495900000000002  1.0000
  C   C197      1.0  0.4509  0.0571  0.51871  1.0000
  C   C198      1.0  0.44471  0.9915500000000002  0.50346  1.0000
  C   C199      1.0  0.48633  0.9620700000000001  0.51935  1.0000
  C   C200      1.0  0.90063  0.09282  0.93659  1.0000
  C   C201      1.0  0.98452  0.08751000000000002  0.88459  1.0000
  C   C202      1.0  0.94373  0.05918  0.9194200000000002  1.0000
  C   C203      1.0  0.9427799999999998  0.9980600000000001  0.9377  1.0000
  C   C204      1.0  0.982  0.9661400000000001  0.92149  1.0000
  C   C205      1.0  0.046489999999999976  0.56187  0.8852  1.0000
  C   C206      1.0  0.07529  0.54688  0.91969  1.0000
  C   C207      1.0  0.04424000000000002  0.47662000000000004  0.9354600000000002  1.0000
  C   C208      1.0  0.9834499999999999  0.41908  0.9171400000000002  1.0000
  C   C209      1.0  0.95409  0.43323  0.88292  1.0000
  C   C210      1.0  0.9848  0.50373  0.86737  1.0000
  C   C211      1.0  0.38495999999999997  0.3349  0.51551  1.0000
  C   C212      1.0  0.95103  0.34304000000000007  0.9336000000000001  1.0000
  O   O1        1.0  0.34902  0.19183  0.4432600000000001  1.0000
  O   O2        1.0  0.24445  0.08394  0.44226  1.0000
  O   O3        1.0  0.25132  0.84733  0.41435  1.0000
  O   O4        1.0  0.26350000000000007  0.9614200000000002  0.41315  1.0000
  O   O5        1.0  0.13746000000000003  0.9362700000000002  0.46712  1.0000
  O   O6        1.0  0.09469999999999994  0.85059  0.41862000000000005  1.0000
  O   O7        1.0  0.59372  0.85753  0.0215  1.0000
  O   O8        1.0  0.63456  0.94253  0.97246  1.0000
  O   O9        1.0  0.73926  0.08699  0.9984500000000001  1.0000
  O   O10       1.0  0.8406699999999998  0.19777  0.9980799999999999  1.0000
  O   O11       1.0  0.7491  0.8537500000000001  0.02991  1.0000
  O   O12       1.0  0.76172  0.9678500000000001  0.02596  1.0000
  O   O13       1.0  0.11179999999999998  0.70365  0.42041  1.0000
  O   O14       1.0  0.59054  0.71066  0.02204  1.0000
  O   O15       1.0  0.67355  0.68179  0.9977900000000001  1.0000
  O   O16       1.0  0.01465  0.67165  0.46003  1.0000
  O   O17       1.0  0.65129  0.80833  0.94369  1.0000
  O   O18       1.0  0.7558100000000001  0.9161600000000001  0.9423  1.0000
  O   O19       1.0  0.74854  0.15277  0.91463  1.0000
  O   O20       1.0  0.73603  0.03854  0.9142500000000002  1.0000
  O   O21       1.0  0.8628599999999998  0.06388  0.96746  1.0000
  O   O22       1.0  0.90526  0.14931  0.91877  1.0000
  O   O23       1.0  0.40594  0.14195  0.52128  1.0000
  O   O24       1.0  0.36524  0.0565  0.47239  1.0000
  O   O25       1.0  0.26119  0.91378  0.49856  1.0000
  O   O26       1.0  0.15954999999999991  0.80322  0.49806  1.0000
  O   O27       1.0  0.25029  0.14607000000000003  0.52896  1.0000
  O   O28       1.0  0.2383  0.03211  0.526  1.0000
  O   O29       1.0  0.8890599999999999  0.29566000000000003  0.91865  1.0000
  O   O30       1.0  0.40946  0.28925  0.522  1.0000
  O   O31       1.0  0.32634  0.31813  0.49781  1.0000
  O   O32       1.0  0.98415  0.32816  0.95995  1.0000
