data_image0
_chemical_formula_structural       Co16H64C112N48O56
_chemical_formula_sum              "Co16 H64 C112 N48 O56"
_cell_length_a       6.97079
_cell_length_b       20.77639
_cell_length_c       25.95871
_cell_angle_alpha    89.98834000000001
_cell_angle_beta     89.99730999999998
_cell_angle_gamma    89.97843

_space_group_name_H-M_alt    "P 1"
_space_group_IT_number       1

loop_
  _space_group_symop_operation_xyz
  'x, y, z'

loop_
  _atom_site_type_symbol
  _atom_site_label
  _atom_site_symmetry_multiplicity
  _atom_site_fract_x
  _atom_site_fract_y
  _atom_site_fract_z
  _atom_site_occupancy
  Co  Co1       1.0  0.7772000000000001  0.98562  0.6357799999999998  1.0000
  Co  Co2       1.0  0.99821  0.4899400000000001  0.7499899999999998  1.0000
  Co  Co3       1.0  0.23927000000000004  0.51314  0.13527  1.0000
  Co  Co4       1.0  0.0034000000000000007  0.01001  0.24941999999999995  1.0000
  Co  Co5       1.0  0.2886300000000001  0.013610000000000002  0.8649399999999999  1.0000
  Co  Co6       1.0  0.4955400000000001  0.50973  0.7506099999999998  1.0000
  Co  Co7       1.0  0.7073  0.48621000000000003  0.36467  1.0000
  Co  Co8       1.0  0.50454  0.98988  0.25048  1.0000
  Co  Co9       1.0  0.2411  0.013210000000000003  0.3647699999999999  1.0000
  Co  Co10      1.0  0.00239  0.50931  0.25026  1.0000
  Co  Co11      1.0  0.7803100000000002  0.48579000000000006  0.86396  1.0000
  Co  Co12      1.0  0.9980900000000001  0.9910000000000001  0.7506699999999998  1.0000
  Co  Co13      1.0  0.7463000000000002  0.9872400000000001  0.13478  1.0000
  Co  Co14      1.0  0.5026400000000001  0.48963000000000007  0.24956999999999996  1.0000
  Co  Co15      1.0  0.26072  0.51299  0.6347299999999998  1.0000
  Co  Co16      1.0  0.4966  0.00919  0.74939  1.0000
  H   H1        1.0  0.73982  0.9210600000000001  0.71594  1.0000
  H   H2        1.0  0.37605  0.89541  0.5294799999999998  1.0000
  H   H3        1.0  0.36481  0.9187500000000001  0.43651999999999996  1.0000
  H   H4        1.0  0.12855000000000003  0.10038  0.46158  1.0000
  H   H5        1.0  0.12894  0.08298000000000001  0.5562  1.0000
  H   H6        1.0  0.9320500000000003  0.21232000000000004  0.7455599999999998  1.0000
  H   H7        1.0  0.89624  0.16128  0.5852699999999998  1.0000
  H   H8        1.0  0.94523  0.35997  0.62975  1.0000
  H   H9        1.0  0.26488  0.57803  0.21533999999999998  1.0000
  H   H10       1.0  0.6244200000000002  0.60446  0.028799999999999992  1.0000
  H   H11       1.0  0.63422  0.58079  0.93578  1.0000
  H   H12       1.0  0.8707700000000003  0.39931  0.9614099999999998  1.0000
  H   H13       1.0  0.87085  0.41740000000000005  0.055769999999999986  1.0000
  H   H14       1.0  0.06768  0.28739  0.24579  1.0000
  H   H15       1.0  0.10309000000000003  0.33871  0.08559  1.0000
  H   H16       1.0  0.05486000000000001  0.14002  0.12975  1.0000
  H   H17       1.0  0.23942000000000005  0.07841  0.7830099999999999  1.0000
  H   H18       1.0  0.8750200000000002  0.10428  0.9707799999999999  1.0000
  H   H19       1.0  0.8652400000000002  0.08099  0.06347  1.0000
  H   H20       1.0  0.62895  0.8992200000000001  0.03851  1.0000
  H   H21       1.0  0.62892  0.9169100000000001  0.9442  1.0000
  H   H22       1.0  0.4327600000000001  0.78734  0.75442  1.0000
  H   H23       1.0  0.3959200000000001  0.83855  0.9147299999999998  1.0000
  H   H24       1.0  0.44528000000000006  0.63989  0.87027  1.0000
  H   H25       1.0  0.7635600000000002  0.42096  0.28446  1.0000
  H   H26       1.0  0.12457000000000003  0.39563000000000004  0.47050999999999993  1.0000
  H   H27       1.0  0.13484  0.41885  0.56328  1.0000
  H   H28       1.0  0.37154  0.60057  0.5382399999999999  1.0000
  H   H29       1.0  0.37062000000000006  0.58302  0.4438699999999999  1.0000
  H   H30       1.0  0.56779  0.7126200000000001  0.25435  1.0000
  H   H31       1.0  0.60398  0.66166  0.4145799999999999  1.0000
  H   H32       1.0  0.55488  0.8603  0.3700799999999999  1.0000
  H   H33       1.0  0.26241  0.07931  0.2852  1.0000
  H   H34       1.0  0.6246200000000001  0.10460000000000001  0.47076  1.0000
  H   H35       1.0  0.6342400000000002  0.08083000000000001  0.56372  1.0000
  H   H36       1.0  0.8704900000000002  0.89936  0.5384  1.0000
  H   H37       1.0  0.8714700000000002  0.91705  0.44392999999999994  1.0000
  H   H38       1.0  0.06807  0.7878900000000001  0.25444  1.0000
  H   H39       1.0  0.10388  0.83867  0.41489  1.0000
  H   H40       1.0  0.05454000000000001  0.6401300000000001  0.36999  1.0000
  H   H41       1.0  0.7360300000000001  0.42104  0.7835899999999998  1.0000
  H   H42       1.0  0.37532000000000004  0.3958  0.9711499999999998  1.0000
  H   H43       1.0  0.3660800000000001  0.41944  0.06396  1.0000
  H   H44       1.0  0.12918  0.6009000000000001  0.03875999999999999  1.0000
  H   H45       1.0  0.12826  0.58329  0.9442599999999998  1.0000
  H   H46       1.0  0.93231  0.7126700000000002  0.75447  1.0000
  H   H47       1.0  0.8964600000000003  0.6614100000000002  0.9147  1.0000
  H   H48       1.0  0.94547  0.8602  0.87028  1.0000
  H   H49       1.0  0.76381  0.9213000000000002  0.21561  1.0000
  H   H50       1.0  0.1253  0.8957600000000001  0.029  1.0000
  H   H51       1.0  0.13366000000000003  0.91923  0.9359499999999997  1.0000
  H   H52       1.0  0.37  0.10101000000000002  0.9615299999999999  1.0000
  H   H53       1.0  0.3714500000000001  0.08263  0.05577999999999999  1.0000
  H   H54       1.0  0.56735  0.21273000000000003  0.24556999999999995  1.0000
  H   H55       1.0  0.6036700000000003  0.16139  0.08532999999999999  1.0000
  H   H56       1.0  0.5547800000000002  0.36014  0.12966999999999998  1.0000
  H   H57       1.0  0.23451000000000005  0.57883  0.71583  1.0000
  H   H58       1.0  0.8757600000000002  0.60448  0.5291699999999999  1.0000
  H   H59       1.0  0.86582  0.58088  0.43606999999999996  1.0000
  H   H60       1.0  0.6295000000000002  0.39946  0.4615  1.0000
  H   H61       1.0  0.62855  0.41686000000000006  0.5558999999999998  1.0000
  H   H62       1.0  0.43191  0.28755  0.7455699999999998  1.0000
  H   H63       1.0  0.3959400000000001  0.33858000000000005  0.58521  1.0000
  H   H64       1.0  0.4455800000000001  0.13998  0.6297899999999998  1.0000
  C   C1        1.0  0.25097  0.9784  0.6068299999999999  1.0000
  C   C2        1.0  0.24915000000000007  0.9874100000000002  0.55064  1.0000
  C   C3        1.0  0.31841  0.9414  0.51624  1.0000
  C   C4        1.0  0.3137000000000001  0.9547000000000002  0.4637499999999999  1.0000
  C   C5        1.0  0.18081000000000003  0.055  0.47739999999999994  1.0000
  C   C6        1.0  0.18014  0.04522000000000001  0.5304599999999999  1.0000
  C   C7        1.0  0.9380900000000002  0.29249  0.6919299999999998  1.0000
  C   C8        1.0  0.92978  0.22692  0.7052499999999999  1.0000
  C   C9        1.0  0.9156700000000002  0.17943000000000003  0.6670699999999998  1.0000
  C   C10       1.0  0.91105  0.19711  0.61544  1.0000
  C   C11       1.0  0.92211  0.26177  0.6026999999999999  1.0000
  C   C12       1.0  0.93491  0.30943000000000004  0.64006  1.0000
  C   C13       1.0  0.9373600000000001  0.3458  0.7323699999999997  1.0000
  C   C14       1.0  0.8997200000000002  0.10882  0.6786299999999997  1.0000
  C   C15       1.0  0.7492  0.5219100000000001  0.10685  1.0000
  C   C16       1.0  0.7503000000000002  0.5125300000000002  0.050469999999999994  1.0000
  C   C17       1.0  0.6817000000000001  0.55845  0.01591  1.0000
  C   C18       1.0  0.6853600000000002  0.5452200000000001  0.9634099999999998  1.0000
  C   C19       1.0  0.81894  0.44478  0.9772299999999998  1.0000
  C   C20       1.0  0.8196600000000003  0.45488  0.030129999999999997  1.0000
  C   C21       1.0  0.06244000000000001  0.20732000000000006  0.19197999999999996  1.0000
  C   C22       1.0  0.06966  0.27282000000000006  0.20546  1.0000
  C   C23       1.0  0.0818  0.32035  0.16723  1.0000
  C   C24       1.0  0.08854  0.30277000000000004  0.11565999999999997  1.0000
  C   C25       1.0  0.07794  0.23828000000000005  0.10290999999999997  1.0000
  C   C26       1.0  0.06482  0.19050000000000006  0.14011999999999997  1.0000
  C   C27       1.0  0.061480000000000014  0.15408  0.23248999999999995  1.0000
  C   C28       1.0  0.09984000000000003  0.39085000000000003  0.17901999999999998  1.0000
  C   C29       1.0  0.7488700000000001  0.022  0.8927499999999998  1.0000
  C   C30       1.0  0.7468000000000002  0.01262  0.9491099999999998  1.0000
  C   C31       1.0  0.81685  0.0584  0.9836099999999999  1.0000
  C   C32       1.0  0.81346  0.045210000000000014  0.03606999999999999  1.0000
  C   C33       1.0  0.68049  0.94461  0.02251999999999999  1.0000
  C   C34       1.0  0.67942  0.95479  0.9695699999999998  1.0000
  C   C35       1.0  0.4385  0.7075500000000001  0.8081899999999997  1.0000
  C   C36       1.0  0.4308  0.7729900000000001  0.79482  1.0000
  C   C37       1.0  0.4168100000000001  0.82038  0.8329699999999999  1.0000
  C   C38       1.0  0.41158000000000006  0.80272  0.8846399999999998  1.0000
  C   C39       1.0  0.42300000000000004  0.7381400000000002  0.8973599999999998  1.0000
  C   C40       1.0  0.4352300000000001  0.69045  0.86006  1.0000
  C   C41       1.0  0.4384400000000001  0.6547800000000001  0.7673  1.0000
  C   C42       1.0  0.39906000000000014  0.8908100000000001  0.8218599999999998  1.0000
  C   C43       1.0  0.25083000000000005  0.4775800000000001  0.3929499999999999  1.0000
  C   C44       1.0  0.25226000000000004  0.4872700000000001  0.44917  1.0000
  C   C45       1.0  0.18225000000000005  0.44151000000000007  0.4835699999999999  1.0000
  C   C46       1.0  0.18615  0.45467  0.53596  1.0000
  C   C47       1.0  0.31936  0.5552000000000001  0.52232  1.0000
  C   C48       1.0  0.3198400000000001  0.5452200000000001  0.46939  1.0000
  C   C49       1.0  0.56286  0.79252  0.30815999999999993  1.0000
  C   C50       1.0  0.5694400000000001  0.72706  0.29469999999999996  1.0000
  C   C51       1.0  0.5827900000000003  0.67961  0.33289  1.0000
  C   C52       1.0  0.5881900000000002  0.6975  0.3844799999999999  1.0000
  C   C53       1.0  0.5777600000000003  0.7621000000000001  0.39725  1.0000
  C   C54       1.0  0.5652700000000002  0.80972  0.3599499999999999  1.0000
  C   C55       1.0  0.56166  0.8453900000000001  0.26769  1.0000
  C   C56       1.0  0.60012  0.60895  0.32159999999999994  1.0000
  C   C57       1.0  0.74753  0.02199  0.3931099999999999  1.0000
  C   C58       1.0  0.7498800000000002  0.012480000000000003  0.4493699999999999  1.0000
  C   C59       1.0  0.6808600000000001  0.058410000000000004  0.4838099999999999  1.0000
  C   C60       1.0  0.68561  0.04514  0.5363099999999998  1.0000
  C   C61       1.0  0.81884  0.9447900000000001  0.5224899999999999  1.0000
  C   C62       1.0  0.81903  0.95463  0.4694799999999999  1.0000
  C   C63       1.0  0.06206  0.70794  0.3081899999999999  1.0000
  C   C64       1.0  0.07058000000000003  0.77343  0.29481999999999997  1.0000
  C   C65       1.0  0.08387  0.8207500000000001  0.33302  1.0000
  C   C66       1.0  0.08922  0.8029800000000001  0.3846699999999999  1.0000
  C   C67       1.0  0.07788  0.73833  0.3973  1.0000
  C   C68       1.0  0.06517000000000002  0.69074  0.35995999999999995  1.0000
  C   C69       1.0  0.06276000000000001  0.6550500000000001  0.2674599999999999  1.0000
  C   C70       1.0  0.10075  0.8910800000000001  0.3209899999999999  1.0000
  C   C71       1.0  0.25108  0.4778  0.8932799999999999  1.0000
  C   C72       1.0  0.24978000000000006  0.48788000000000004  0.9494799999999998  1.0000
  C   C73       1.0  0.3185400000000001  0.44191  0.9840199999999998  1.0000
  C   C74       1.0  0.3144200000000001  0.4551400000000001  0.03644  1.0000
  C   C75       1.0  0.18082000000000004  0.5556400000000001  0.022669999999999996  1.0000
  C   C76       1.0  0.18035  0.54559  0.9697  1.0000
  C   C77       1.0  0.93793  0.7928000000000001  0.8080799999999998  1.0000
  C   C78       1.0  0.9300100000000001  0.72723  0.7947799999999998  1.0000
  C   C79       1.0  0.9174300000000002  0.6796400000000001  0.8327899999999998  1.0000
  C   C80       1.0  0.9109600000000002  0.69722  0.8845  1.0000
  C   C81       1.0  0.9223600000000002  0.76186  0.8971599999999997  1.0000
  C   C82       1.0  0.9354400000000003  0.80968  0.8599299999999998  1.0000
  C   C83       1.0  0.9382900000000002  0.84615  0.7674999999999998  1.0000
  C   C84       1.0  0.8985400000000002  0.60924  0.82079  1.0000
  C   C85       1.0  0.24767  0.97778  0.10706999999999997  1.0000
  C   C86       1.0  0.24966  0.98752  0.050699999999999995  1.0000
  C   C87       1.0  0.18057  0.94197  0.01598  1.0000
  C   C88       1.0  0.18506  0.95498  0.9634099999999998  1.0000
  C   C89       1.0  0.31846  0.05543  0.9773499999999998  1.0000
  C   C90       1.0  0.31829  0.04532  0.03029  1.0000
  C   C91       1.0  0.56199  0.2926  0.19176999999999997  1.0000
  C   C92       1.0  0.56934  0.22713  0.20518999999999996  1.0000
  C   C93       1.0  0.5825500000000002  0.17951  0.16714999999999997  1.0000
  C   C94       1.0  0.5885500000000002  0.19719  0.1155  1.0000
  C   C95       1.0  0.5776800000000002  0.26185  0.10269999999999997  1.0000
  C   C96       1.0  0.56484  0.30962  0.13995  1.0000
  C   C97       1.0  0.56168  0.34507  0.23267999999999997  1.0000
  C   C98       1.0  0.5987900000000003  0.10896  0.1793  1.0000
  C   C99       1.0  0.75228  0.5217  0.60682  1.0000
  C   C100      1.0  0.75103  0.51231  0.55061  1.0000
  C   C101      1.0  0.8196500000000002  0.55824  0.51604  1.0000
  C   C102      1.0  0.81485  0.54503  0.46345  1.0000
  C   C103      1.0  0.6817300000000002  0.44475000000000003  0.47742999999999997  1.0000
  C   C104      1.0  0.6816000000000002  0.45454000000000006  0.5304499999999999  1.0000
  C   C105      1.0  0.43726  0.20768  0.69187  1.0000
  C   C106      1.0  0.42966  0.2731100000000001  0.7051999999999999  1.0000
  C   C107      1.0  0.41579000000000005  0.32042000000000004  0.6670099999999998  1.0000
  C   C108      1.0  0.41077  0.30271  0.61533  1.0000
  C   C109      1.0  0.42215000000000014  0.23802000000000004  0.6027499999999999  1.0000
  C   C110      1.0  0.43524  0.19048  0.6400999999999999  1.0000
  C   C111      1.0  0.4385700000000001  0.15505  0.7326299999999998  1.0000
  C   C112      1.0  0.4011  0.39083  0.6789999999999998  1.0000
  N   N1        1.0  0.09077000000000003  0.9721300000000003  0.63627  1.0000
  N   N2        1.0  0.15694  0.97149  0.6849999999999998  1.0000
  N   N3        1.0  0.34686  0.9776500000000001  0.68483  1.0000
  N   N4        1.0  0.41194  0.9800700000000002  0.63622  1.0000
  N   N5        1.0  0.2448  0.010350000000000002  0.4437399999999999  1.0000
  N   N6        1.0  0.9264700000000002  0.2786  0.54819  1.0000
  N   N7        1.0  0.90983  0.52704  0.1362  1.0000
  N   N8        1.0  0.8446800000000002  0.52759  0.18502  1.0000
  N   N9        1.0  0.6541400000000003  0.5230900000000002  0.18514  1.0000
  N   N10       1.0  0.5885200000000002  0.5196100000000001  0.13664  1.0000
  N   N11       1.0  0.75424  0.4894800000000001  0.94377  1.0000
  N   N12       1.0  0.07374  0.22136000000000003  0.04872  1.0000
  N   N13       1.0  0.5902300000000003  0.02748  0.8625099999999998  1.0000
  N   N14       1.0  0.6575500000000002  0.02775  0.8139799999999998  1.0000
  N   N15       1.0  0.84718  0.0219  0.8150699999999997  1.0000
  N   N16       1.0  0.91035  0.01946  0.8637799999999999  1.0000
  N   N17       1.0  0.7452  0.9894  0.05585  1.0000
  N   N18       1.0  0.4262300000000001  0.72126  0.95172  1.0000
  N   N19       1.0  0.4097400000000001  0.47174000000000005  0.36299  1.0000
  N   N20       1.0  0.3425200000000001  0.47219  0.3143699999999999  1.0000
  N   N21       1.0  0.1528  0.4777  0.31504  1.0000
  N   N22       1.0  0.08988000000000003  0.48049000000000003  0.36373  1.0000
  N   N23       1.0  0.25532000000000005  0.5103200000000001  0.55568  1.0000
  N   N24       1.0  0.57401  0.77896  0.4515999999999999  1.0000
  N   N25       1.0  0.90764  0.027550000000000005  0.36363999999999996  1.0000
  N   N26       1.0  0.84225  0.02839  0.31489999999999996  1.0000
  N   N27       1.0  0.6517700000000002  0.02334  0.3149399999999999  1.0000
  N   N28       1.0  0.5861800000000003  0.020220000000000002  0.36352  1.0000
  N   N29       1.0  0.7538700000000003  0.98937  0.55603  1.0000
  N   N30       1.0  0.07359  0.72138  0.45165999999999995  1.0000
  N   N31       1.0  0.09096  0.47193000000000007  0.8638199999999998  1.0000
  N   N32       1.0  0.15643000000000007  0.4712800000000001  0.81501  1.0000
  N   N33       1.0  0.3469600000000001  0.47661000000000003  0.8151999999999999  1.0000
  N   N34       1.0  0.41151000000000004  0.4802500000000001  0.8637199999999998  1.0000
  N   N35       1.0  0.24514000000000005  0.51086  0.05611  1.0000
  N   N36       1.0  0.9264600000000002  0.7788300000000001  0.9514099999999998  1.0000
  N   N37       1.0  0.40803  0.9724200000000001  0.1364  1.0000
  N   N38       1.0  0.34233000000000013  0.97164  0.18512999999999993  1.0000
  N   N39       1.0  0.15173  0.97686  0.18532999999999997  1.0000
  N   N40       1.0  0.08628000000000002  0.9800400000000002  0.13677  1.0000
  N   N41       1.0  0.25337  0.010880000000000004  0.9437799999999997  1.0000
  N   N42       1.0  0.5738100000000003  0.27869  0.04825999999999998  1.0000
  N   N43       1.0  0.5914500000000001  0.5278200000000001  0.6358799999999998  1.0000
  N   N44       1.0  0.6567500000000002  0.52845  0.68477  1.0000
  N   N45       1.0  0.84689  0.5230400000000001  0.68508  1.0000
  N   N46       1.0  0.9130100000000002  0.51997  0.6365699999999999  1.0000
  N   N47       1.0  0.74605  0.4892500000000001  0.4436599999999999  1.0000
  N   N48       1.0  0.4262900000000001  0.22108000000000003  0.5484399999999999  1.0000
  O   O1        1.0  0.8817500000000003  0.33274  0.7768999999999998  1.0000
  O   O2        1.0  0.98971  0.40183  0.7152  1.0000
  O   O3        1.0  0.9633100000000002  0.0873  0.72067  1.0000
  O   O4        1.0  0.82015  0.07749  0.64147  1.0000
  O   O5        1.0  0.9330800000000001  0.23495000000000005  0.51575  1.0000
  O   O6        1.0  0.9234900000000003  0.33693000000000006  0.53665  1.0000
  O   O7        1.0  0.7412400000000001  0.9681  0.7102299999999998  1.0000
  O   O8        1.0  0.11978000000000003  0.16717000000000004  0.27662  1.0000
  O   O9        1.0  0.009820000000000002  0.09796000000000003  0.21528999999999998  1.0000
  O   O10       1.0  0.03735  0.41248  0.22089  1.0000
  O   O11       1.0  0.17367000000000002  0.42364000000000007  0.14170999999999997  1.0000
  O   O12       1.0  0.06706000000000001  0.26477  0.01595  1.0000
  O   O13       1.0  0.07636000000000003  0.16296000000000002  0.03765  1.0000
  O   O14       1.0  0.257  0.5307500000000002  0.21071999999999994  1.0000
  O   O15       1.0  0.38573000000000013  0.6683600000000002  0.72274  1.0000
  O   O16       1.0  0.48583  0.5981900000000001  0.7843899999999999  1.0000
  O   O17       1.0  0.46713  0.9142400000000003  0.78093  1.0000
  O   O18       1.0  0.3132400000000001  0.92189  0.85827  1.0000
  O   O19       1.0  0.4373400000000001  0.76514  0.98415  1.0000
  O   O20       1.0  0.4188500000000001  0.66323  0.96349  1.0000
  O   O21       1.0  0.23941000000000004  0.03162  0.7897899999999998  1.0000
  O   O22       1.0  0.6142900000000001  0.8319500000000001  0.22306  1.0000
  O   O23       1.0  0.5137300000000001  0.90184  0.28491999999999995  1.0000
  O   O24       1.0  0.53467  0.5864300000000001  0.28023  1.0000
  O   O25       1.0  0.6850400000000002  0.57778  0.35808  1.0000
  O   O26       1.0  0.56261  0.7353800000000001  0.48399999999999993  1.0000
  O   O27       1.0  0.5808800000000002  0.83713  0.46335999999999994  1.0000
  O   O28       1.0  0.76079  0.46779  0.29044  1.0000
  O   O29       1.0  0.11775000000000002  0.66856  0.22309  1.0000
  O   O30       1.0  0.011060000000000002  0.59882  0.28379999999999994  1.0000
  O   O31       1.0  0.03812000000000001  0.91275  0.27898999999999996  1.0000
  O   O32       1.0  0.17734000000000005  0.92319  0.3582199999999999  1.0000
  O   O33       1.0  0.06685000000000002  0.7650500000000002  0.48419  1.0000
  O   O34       1.0  0.07660000000000002  0.66312  0.4631699999999999  1.0000
  O   O35       1.0  0.25567  0.0322  0.28947999999999996  1.0000
  O   O36       1.0  0.87899  0.8332000000000003  0.7233  1.0000
  O   O37       1.0  0.98994  0.90231  0.7844299999999998  1.0000
  O   O38       1.0  0.9620000000000002  0.58705  0.77882  1.0000
  O   O39       1.0  0.8213900000000002  0.57789  0.85823  1.0000
  O   O40       1.0  0.9330100000000002  0.7353700000000002  0.98416  1.0000
  O   O41       1.0  0.92342  0.83716  0.96281  1.0000
  O   O42       1.0  0.7409400000000003  0.4678100000000001  0.78982  1.0000
  O   O43       1.0  0.61478  0.33117  0.27716  1.0000
  O   O44       1.0  0.5145000000000001  0.4019  0.21593999999999994  1.0000
  O   O45       1.0  0.53587  0.08783000000000002  0.22135999999999995  1.0000
  O   O46       1.0  0.67571  0.07658000000000001  0.14223  1.0000
  O   O47       1.0  0.5627  0.23493000000000003  0.015939999999999996  1.0000
  O   O48       1.0  0.58108  0.33698  0.036559999999999995  1.0000
  O   O49       1.0  0.7532  0.96799  0.21013  1.0000
  O   O50       1.0  0.38463  0.16883000000000004  0.7771699999999998  1.0000
  O   O51       1.0  0.48626000000000014  0.09836  0.7162899999999999  1.0000
  O   O52       1.0  0.4639100000000001  0.41291000000000005  0.72084  1.0000
  O   O53       1.0  0.3247500000000001  0.42285000000000006  0.64165  1.0000
  O   O54       1.0  0.43736000000000014  0.26445  0.5160499999999999  1.0000
  O   O55       1.0  0.4189900000000001  0.16277  0.53663  1.0000
  O   O56       1.0  0.24234000000000006  0.53208  0.70984  1.0000
