data_image0
_chemical_formula_structural       Cu10H96C128N16O32
_chemical_formula_sum              "Cu10 H96 C128 N16 O32"
_cell_length_a       13.76777
_cell_length_b       13.75788
_cell_length_c       22.23699
_cell_angle_alpha    101.69847
_cell_angle_beta     101.77275
_cell_angle_gamma    109.9699

_space_group_name_H-M_alt    "P 1"
_space_group_IT_number       1

loop_
  _space_group_symop_operation_xyz
  'x, y, z'

loop_
  _atom_site_type_symbol
  _atom_site_label
  _atom_site_symmetry_multiplicity
  _atom_site_fract_x
  _atom_site_fract_y
  _atom_site_fract_z
  _atom_site_occupancy
  Cu  Cu1       1.0  0.39128  0.62884  0.09993  1.0000
  Cu  Cu2       1.0  0.20742000000000002  0.47043  0.09996  1.0000
  Cu  Cu3       1.0  0.79244  0.5296000000000001  0.89999  1.0000
  Cu  Cu4       1.0  0.029550000000000007  0.29238  0.3999  1.0000
  Cu  Cu5       1.0  0.6087500000000002  0.37131000000000014  0.9000500000000001  1.0000
  Cu  Cu6       1.0  0.12794  0.37579  0.75076  1.0000
  Cu  Cu7       1.0  0.87206  0.62442  0.24928  1.0000
  Cu  Cu8       1.0  0.87128  0.10888  0.39995  1.0000
  Cu  Cu9       1.0  0.9703  0.70742  0.60004  1.0000
  Cu  Cu10      1.0  0.12867999999999996  0.89119  0.59998  1.0000
  H   H1        1.0  0.47777000000000003  0.25557  0.07021  1.0000
  H   H2        1.0  0.22365  0.30327  0.16092  1.0000
  H   H3        1.0  0.44507  0.7255000000000003  0.29492  1.0000
  H   H4        1.0  0.7165200000000002  0.10084999999999997  0.65306  1.0000
  H   H5        1.0  0.07394  0.49883  0.44713  1.0000
  H   H6        1.0  0.5652100000000002  0.4505  0.34751  1.0000
  H   H7        1.0  0.45752000000000004  0.55696  0.94304  1.0000
  H   H8        1.0  0.92624  0.97962  0.74818  1.0000
  H   H9        1.0  0.94368  0.04368999999999999  0.55731  1.0000
  H   H10       1.0  0.12029000000000002  0.17727  0.21548  1.0000
  H   H11       1.0  0.32208  0.77137  0.7493  1.0000
  H   H12       1.0  0.39993000000000006  0.7843000000000001  0.84727  1.0000
  H   H13       1.0  0.80307  0.7233300000000001  0.66095  1.0000
  H   H14       1.0  0.8882800000000001  0.48806000000000005  0.44204000000000004  1.0000
  H   H15       1.0  0.22573000000000007  0.7287900000000003  0.9515199999999999  1.0000
  H   H16       1.0  0.8409  0.23433000000000007  0.13362  1.0000
  H   H17       1.0  0.2660300000000001  0.6597500000000002  0.36659  1.0000
  H   H18       1.0  0.9531599999999999  0.59474  0.3706  1.0000
  H   H19       1.0  0.22517000000000004  0.94505  0.79513  1.0000
  H   H20       1.0  0.7712500000000001  0.27394  0.54827  1.0000
  H   H21       1.0  0.07956999999999996  0.22301999999999994  0.62725  1.0000
  H   H22       1.0  0.90462  0.5466  0.12893  1.0000
  H   H23       1.0  0.09537999999999999  0.45342  0.87113  1.0000
  H   H24       1.0  0.9504700000000003  0.065  0.84704  1.0000
  H   H25       1.0  0.98819  0.3879600000000001  0.94212  1.0000
  H   H26       1.0  0.79234  0.89858  0.13443  1.0000
  H   H27       1.0  0.77645  0.6969500000000002  0.83914  1.0000
  H   H28       1.0  0.52219  0.74443  0.9297500000000001  1.0000
  H   H29       1.0  0.27798  0.42122  0.87349  1.0000
  H   H30       1.0  0.19683  0.27667  0.33903  1.0000
  H   H31       1.0  0.59279  0.036939999999999994  0.21434  1.0000
  H   H32       1.0  0.4355  0.85615  0.15964  1.0000
  H   H33       1.0  0.60011  0.21583000000000005  0.15271  1.0000
  H   H34       1.0  0.67718  0.61979  0.71549  1.0000
  H   H35       1.0  0.68826  0.41217000000000004  0.43049  1.0000
  H   H36       1.0  0.54237  0.443  0.05686  1.0000
  H   H37       1.0  0.9204200000000001  0.77723  0.37293  1.0000
  H   H38       1.0  0.73397  0.34027  0.63343  1.0000
  H   H39       1.0  0.72192  0.57884  0.12638  1.0000
  H   H40       1.0  0.11813  0.58589  0.74929  1.0000
  H   H41       1.0  0.8684000000000001  0.8368200000000002  0.25218  1.0000
  H   H42       1.0  0.07170000000000004  0.85118  0.7950000000000002  1.0000
  H   H43       1.0  0.55226  0.62565  0.05320999999999999  1.0000
  H   H44       1.0  0.32275  0.3802100000000001  0.28452  1.0000
  H   H45       1.0  0.72373  0.7246700000000001  0.4501299999999999  1.0000
  H   H46       1.0  0.12570000000000006  0.05229000000000002  0.55332  1.0000
  H   H47       1.0  0.33709  0.36846  0.75201  1.0000
  H   H48       1.0  0.46317000000000014  0.90765  0.28564  1.0000
  H   H49       1.0  0.52065  0.57396  0.75171  1.0000
  H   H50       1.0  0.67789  0.22883  0.25056  1.0000
  H   H51       1.0  0.92598  0.50115  0.55285  1.0000
  H   H52       1.0  0.9990800000000002  0.57379  0.94708  1.0000
  H   H53       1.0  0.22498  0.22357999999999995  0.95036  1.0000
  H   H54       1.0  0.04950000000000014  0.9349900000000001  0.15294  1.0000
  H   H55       1.0  0.35108  0.57231  0.29509  1.0000
  H   H56       1.0  0.7743900000000001  0.2714  0.048510000000000005  1.0000
  H   H57       1.0  0.7747  0.05500000000000001  0.20492  1.0000
  H   H58       1.0  0.39871  0.29241  0.63458  1.0000
  H   H59       1.0  0.91215  0.18761000000000005  0.9301700000000002  1.0000
  H   H60       1.0  0.66292  0.6316  0.24798  1.0000
  H   H61       1.0  0.056370000000000024  0.95656  0.4428  1.0000
  H   H62       1.0  0.0010500000000000511  0.42635  0.05289  1.0000
  H   H63       1.0  0.87974  0.82279  0.78448  1.0000
  H   H64       1.0  0.13161  0.16324999999999995  0.74783  1.0000
  H   H65       1.0  0.64389  0.06488000000000002  0.34042  1.0000
  H   H66       1.0  0.04684999999999998  0.40531999999999996  0.62935  1.0000
  H   H67       1.0  0.64891  0.42772  0.70493  1.0000
  H   H68       1.0  0.011739999999999993  0.61202  0.0579  1.0000
  H   H69       1.0  0.15919999999999992  0.7658499999999999  0.8663699999999999  1.0000
  H   H70       1.0  0.77519  0.77639  0.049729999999999996  1.0000
  H   H71       1.0  0.08778000000000002  0.8123500000000001  0.06981  1.0000
  H   H72       1.0  0.11176  0.512  0.55793  1.0000
  H   H73       1.0  0.44773  0.37445  0.94679  1.0000
  H   H74       1.0  0.4071200000000001  0.96311  0.7856600000000001  1.0000
  H   H75       1.0  0.9283000000000001  0.14886  0.20495  1.0000
  H   H76       1.0  0.91467  0.3824400000000001  0.75129  1.0000
  H   H77       1.0  0.60139  0.70768  0.36545  1.0000
  H   H78       1.0  0.47937  0.4261400000000001  0.24829  1.0000
  H   H79       1.0  0.28341999999999995  0.89916  0.34704  1.0000
  H   H80       1.0  0.56442  0.14381999999999992  0.8403799999999999  1.0000
  H   H81       1.0  0.7290000000000001  0.17814999999999995  0.75076  1.0000
  H   H82       1.0  0.08523000000000003  0.6175500000000002  0.24891  1.0000
  H   H83       1.0  0.27632  0.27539  0.54988  1.0000
  H   H84       1.0  0.07371  0.020429999999999997  0.2518  1.0000
  H   H85       1.0  0.2287000000000001  0.72604  0.45171000000000006  1.0000
  H   H86       1.0  0.24379  0.021239999999999988  0.42966  1.0000
  H   H87       1.0  0.53681  0.09238000000000007  0.71439  1.0000
  H   H88       1.0  0.43483  0.54958  0.6525  1.0000
  H   H89       1.0  0.88188  0.4143100000000001  0.25061  1.0000
  H   H90       1.0  0.5550200000000001  0.2745500000000001  0.70508  1.0000
  H   H91       1.0  0.20768  0.10153000000000001  0.86565  1.0000
  H   H92       1.0  0.3560999999999999  0.93518  0.65959  1.0000
  H   H93       1.0  0.75622  0.97889  0.57042  1.0000
  H   H94       1.0  0.87437  0.9478300000000001  0.44672000000000006  1.0000
  H   H95       1.0  0.27102000000000004  0.82167  0.24933000000000002  1.0000
  H   H96       1.0  0.31179  0.58791  0.56952  1.0000
  C   C1        1.0  0.62254  0.79491  0.11027  1.0000
  C   C2        1.0  0.8141600000000002  0.48691  0.61021  1.0000
  C   C3        1.0  0.48419  0.12949  0.84548  1.0000
  C   C4        1.0  0.02716999999999991  0.80207  0.8208599999999999  1.0000
  C   C5        1.0  0.061429999999999964  0.36759  0.8668199999999999  1.0000
  C   C6        1.0  0.20088000000000003  0.12388999999999999  0.56652  1.0000
  C   C7        1.0  0.07492000000000013  0.7534000000000002  0.8597400000000001  1.0000
  C   C8        1.0  0.37537  0.43867  0.73646  1.0000
  C   C9        1.0  0.93858  0.63243  0.13322  1.0000
  C   C10       1.0  0.2952900000000001  0.019979999999999963  0.82125  1.0000
  C   C11       1.0  0.69389  0.53972  0.31353  1.0000
  C   C12       1.0  0.89194  0.80228  0.50968  1.0000
  C   C13       1.0  0.3762100000000001  0.29920000000000013  0.93358  1.0000
  C   C14       1.0  0.95995  0.80591  0.18655  1.0000
  C   C15       1.0  0.5185  0.49887000000000004  0.23537999999999998  1.0000
  C   C16       1.0  0.2758  0.62215  0.81495  1.0000
  C   C17       1.0  0.48007000000000005  0.20449  0.67891  1.0000
  C   C18       1.0  0.012810000000000037  0.6856900000000001  0.88968  1.0000
  C   C19       1.0  0.8600700000000001  0.2970200000000001  0.73558  1.0000
  C   C20       1.0  0.79652  0.35964  0.23506000000000002  1.0000
  C   C21       1.0  0.020750000000000032  0.84858  0.14725  1.0000
  C   C22       1.0  0.04111  0.78043  0.10064  1.0000
  C   C23       1.0  0.7835200000000003  0.6378400000000001  0.65553  1.0000
  C   C24       1.0  0.05757999999999992  0.6358999999999999  0.9339699999999999  1.0000
  C   C25       1.0  0.0010400000000000064  0.98136  0.26471  1.0000
  C   C26       1.0  0.20642  0.61922  0.01076  1.0000
  C   C27       1.0  0.16393  0.66554  0.96169  1.0000
  C   C28       1.0  0.99832  0.19313000000000008  0.63192  1.0000
  C   C29       1.0  0.18577  0.51308  0.38977999999999996  1.0000
  C   C30       1.0  0.2035  0.64054  0.76487  1.0000
  C   C31       1.0  0.23679000000000003  0.71839  0.73638  1.0000
  C   C32       1.0  0.30251000000000006  0.39209000000000005  0.0097  1.0000
  C   C33       1.0  0.86746  0.5608700000000002  0.36652  1.0000
  C   C34       1.0  0.53019  0.89743  0.31521  1.0000
  C   C35       1.0  0.99924  0.66966  0.09353  1.0000
  C   C36       1.0  0.83052  0.5005  0.40640999999999994  1.0000
  C   C37       1.0  0.18139  0.94314  0.39952  1.0000
  C   C38       1.0  0.9217800000000003  0.09219  0.59283  1.0000
  C   C39       1.0  0.76325  0.28166  0.26348  1.0000
  C   C40       1.0  0.8787  0.2249200000000001  0.68556  1.0000
  C   C41       1.0  0.08075  0.21449  0.18559  1.0000
  C   C42       1.0  0.62343  0.29628000000000004  0.14656  1.0000
  C   C43       1.0  0.3078600000000002  0.5024800000000001  0.8687500000000001  1.0000
  C   C44       1.0  0.9728500000000001  0.198  0.1791  1.0000
  C   C45       1.0  0.13255999999999998  0.43917  0.63345  1.0000
  C   C46       1.0  0.0016399999999999804  0.80709  0.36819  1.0000
  C   C47       1.0  0.39699999999999996  0.03013999999999992  0.8152399999999999  1.0000
  C   C48       1.0  0.7464200000000001  0.4246  0.64008  1.0000
  C   C49       1.0  0.69791  0.47233  0.67905  1.0000
  C   C50       1.0  0.5551700000000002  0.4781200000000001  0.8131100000000001  1.0000
  C   C51       1.0  0.7031199999999997  0.70296  0.03923  1.0000
  C   C52       1.0  0.3061400000000001  0.4603500000000002  0.68648  1.0000
  C   C53       1.0  0.91927  0.7855999999999999  0.8143999999999999  1.0000
  C   C54       1.0  0.83616  0.33469  0.03835  1.0000
  C   C55       1.0  0.70515  0.8775499999999999  0.38967  1.0000
  C   C56       1.0  0.34854  0.5209899999999998  0.64702  1.0000
  C   C57       1.0  0.2801700000000001  0.54134  0.60048  1.0000
  C   C58       1.0  0.16428000000000006  0.74276  0.68799  1.0000
  C   C59       1.0  0.9873  0.31444  0.11029000000000001  1.0000
  C   C60       1.0  0.3765600000000001  0.70384  0.8534000000000002  1.0000
  C   C61       1.0  0.48155999999999993  0.50117  0.76459  1.0000
  C   C62       1.0  0.51574  0.8705000000000003  0.15454  1.0000
  C   C63       1.0  0.8358000000000001  0.25702  0.31172  1.0000
  C   C64       1.0  0.6074  0.78583  0.3595  1.0000
  C   C65       1.0  0.65149  0.47907000000000005  0.35298  1.0000
  C   C66       1.0  0.69743  0.608  0.99029  1.0000
  C   C67       1.0  0.7571800000000002  0.3358100000000001  0.8119900000000001  1.0000
  C   C68       1.0  0.79695  0.12423000000000001  0.64698  1.0000
  C   C69       1.0  0.556  0.3179  0.10021000000000001  1.0000
  C   C70       1.0  0.5200000000000001  0.7955800000000001  0.32111  1.0000
  C   C71       1.0  0.37748000000000004  0.20514999999999997  0.8897699999999998  1.0000
  C   C72       1.0  0.12121  0.77518  0.31453  1.0000
  C   C73       1.0  0.78199  0.26349  0.76381  1.0000
  C   C74       1.0  0.07820000000000014  0.9080400000000002  0.4072700000000001  1.0000
  C   C75       1.0  0.62382  0.70088  0.06643  1.0000
  C   C76       1.0  0.39267  0.21426000000000003  0.64054  1.0000
  C   C77       1.0  0.72417  0.37802  0.185  1.0000
  C   C78       1.0  0.21638  0.3621400000000001  0.34444  1.0000
  C   C79       1.0  0.40889000000000003  0.5789500000000001  0.9076100000000001  1.0000
  C   C80       1.0  0.8639999999999999  0.44235  0.56593  1.0000
  C   C81       1.0  0.69206  0.4976  0.13115  1.0000
  C   C82       1.0  0.13594  0.55763  0.43407  1.0000
  C   C83       1.0  0.29491  0.12256  0.61037  1.0000
  C   C84       1.0  0.97839  0.055229999999999974  0.31325  1.0000
  C   C85       1.0  0.0007299999999999909  0.33033000000000007  0.9064900000000001  1.0000
  C   C86       1.0  0.28551  0.41969  0.31437  1.0000
  C   C87       1.0  0.9792400000000001  0.15141999999999997  0.85275  1.0000
  C   C88       1.0  0.83441  0.33599  0.53817  1.0000
  C   C89       1.0  0.7991900000000004  0.87622  0.43352  1.0000
  C   C90       1.0  0.25353  0.5754  0.35993  1.0000
  C   C91       1.0  0.21799  0.73634  0.23633  1.0000
  C   C92       1.0  0.6028900000000004  0.9698900000000003  0.18475  1.0000
  C   C93       1.0  0.13985000000000003  0.7029700000000002  0.26455  1.0000
  C   C94       1.0  0.71443  0.58033  0.68563  1.0000
  C   C95       1.0  0.44494  0.52192  0.18682  1.0000
  C   C96       1.0  0.7971300000000001  0.7967900000000001  0.46068999999999993  1.0000
  C   C97       1.0  0.061530000000000036  0.12489000000000008  0.7634  1.0000
  C   C98       1.0  0.44395  0.68214  0.8997400000000001  1.0000
  C   C99       1.0  0.95884  0.21954000000000004  0.89935  1.0000
  C   C100      1.0  0.6295700000000001  0.9845600000000002  0.34546  1.0000
  C   C101      1.0  0.7937300000000004  0.3812700000000001  0.9894100000000001  1.0000
  C   C102      1.0  0.20297  0.87588  0.35309  1.0000
  C   C103      1.0  0.93845  0.8751600000000002  0.23659000000000002  1.0000
  C   C104      1.0  0.04003999999999996  0.1941199999999999  0.8134599999999998  1.0000
  C   C105      1.0  0.7046200000000001  0.9800700000000001  0.17878  1.0000
  C   C106      1.0  0.16556  0.66402  0.46182  1.0000
  C   C107      1.0  0.11904000000000008  0.7064300000000002  0.5107  1.0000
  C   C108      1.0  0.20291  0.2033  0.53933  1.0000
  C   C109      1.0  0.3704600000000001  0.015519999999999942  0.65456  1.0000
  C   C110      1.0  0.46984000000000004  0.10263999999999993  0.68481  1.0000
  C   C111      1.0  0.81858  0.05702  0.60055  1.0000
  C   C112      1.0  0.94255  0.36424  0.066  1.0000
  C   C113      1.0  0.71428  0.8926500000000002  0.14039  1.0000
  C   C114      1.0  0.16951000000000008  0.4995600000000001  0.59357  1.0000
  C   C115      1.0  0.99895  0.018669999999999992  0.73528  1.0000
  C   C116      1.0  0.88085  0.29364  0.48922  1.0000
  C   C117      1.0  0.9251800000000001  0.24677000000000004  0.14025  1.0000
  C   C118      1.0  0.62467  0.56141  0.26355  1.0000
  C   C119      1.0  0.021610000000000008  0.94479  0.68676  1.0000
  C   C120      1.0  0.71987  0.45872  0.39952  1.0000
  C   C121      1.0  0.59102  0.42108  0.09231  1.0000
  C   C122      1.0  0.28571  0.10743  0.85965  1.0000
  C   C123      1.0  0.13822  0.28369  0.15552  1.0000
  C   C124      1.0  0.24264000000000005  0.6639900000000002  0.18806  1.0000
  C   C125      1.0  0.29694  0.2971000000000001  0.96082  1.0000
  C   C126      1.0  0.8618800000000001  0.71644  0.8445200000000002  1.0000
  C   C127      1.0  0.30207  0.52771  0.32097  1.0000
  C   C128      1.0  0.10804999999999998  0.19778  0.49033  1.0000
  N   N1        1.0  0.75853  0.47858  0.1768  1.0000
  N   N2        1.0  0.71588  0.97482  0.38041  1.0000
  N   N3        1.0  0.16523  0.40633  0.37979  1.0000
  N   N4        1.0  0.28415999999999997  0.025259999999999994  0.61961  1.0000
  N   N5        1.0  0.80237  0.58129  0.3208  1.0000
  N   N6        1.0  0.91806  0.69727  0.17895  1.0000
  N   N7        1.0  0.97927  0.25947  0.67753  1.0000
  N   N8        1.0  0.9061500000000003  0.6652200000000001  0.87984  1.0000
  N   N9        1.0  0.19765000000000005  0.4187700000000002  0.67919  1.0000
  N   N10       1.0  0.4746500000000001  0.21582  0.8805  1.0000
  N   N11       1.0  0.020640000000000026  0.74072  0.32257  1.0000
  N   N12       1.0  0.09395000000000005  0.33487000000000006  0.12016  1.0000
  N   N13       1.0  0.24141000000000007  0.5215700000000001  0.8231200000000001  1.0000
  N   N14       1.0  0.52536  0.78419  0.11955  1.0000
  N   N15       1.0  0.08194999999999998  0.30276999999999993  0.82109  1.0000
  N   N16       1.0  0.8346599999999998  0.59365  0.62018  1.0000
  O   O1        1.0  0.17183  0.5667  0.16126  1.0000
  O   O2        1.0  0.09446000000000013  0.9882500000000003  0.66126  1.0000
  O   O3        1.0  0.22287  0.36712  0.03365  1.0000
  O   O4        1.0  0.48868  0.59435  0.16108  1.0000
  O   O5        1.0  0.8312600000000001  0.19021  0.46412  1.0000
  O   O6        1.0  0.016719999999999978  0.12068000000000002  0.4757  1.0000
  O   O7        1.0  0.86688  0.72253  0.53361  1.0000
  O   O8        1.0  0.51148  0.40563000000000005  0.83882  1.0000
  O   O9        1.0  0.14362  0.54134  0.024330000000000004  1.0000
  O   O10       1.0  0.90564  0.011750000000000003  0.3388  1.0000
  O   O11       1.0  0.96753  0.84433  0.67558  1.0000
  O   O12       1.0  0.20529  0.8336000000000001  0.67816  1.0000
  O   O13       1.0  0.6661  0.2948500000000001  0.82146  1.0000
  O   O14       1.0  0.33355000000000007  0.70501  0.17838  1.0000
  O   O15       1.0  0.82802  0.43307  0.83888  1.0000
  O   O16       1.0  0.06693999999999994  0.67201  0.66135  1.0000
  O   O17       1.0  0.6902900000000002  0.33196  0.96454  1.0000
  O   O18       1.0  0.1331  0.27746  0.46636  1.0000
  O   O19       1.0  0.8566800000000001  0.4588200000000001  0.97568  1.0000
  O   O20       1.0  0.62029  0.5167  0.97574  1.0000
  O   O21       1.0  0.98327  0.87941  0.52432  1.0000
  O   O22       1.0  0.34444  0.46853000000000006  0.17578  1.0000
  O   O23       1.0  0.9586100000000005  0.35668  0.47572  1.0000
  O   O24       1.0  0.30977  0.66915  0.03589  1.0000
  O   O25       1.0  0.37957  0.48346  0.024239999999999998  1.0000
  O   O26       1.0  0.16834  0.80992  0.53559  1.0000
  O   O27       1.0  0.77704  0.63295  0.96631  1.0000
  O   O28       1.0  0.79515  0.16583000000000003  0.32121  1.0000
  O   O29       1.0  0.65567  0.53161  0.82418  1.0000
  O   O30       1.0  0.9329000000000001  0.3281  0.33877  1.0000
  O   O31       1.0  0.04148000000000001  0.64336  0.52432  1.0000
  O   O32       1.0  0.03241  0.15569  0.32439  1.0000
