data_image0
_chemical_formula_structural       Cu8H96C120N24
_chemical_formula_sum              "Cu8 H96 C120 N24"
_cell_length_a       14.45638
_cell_length_b       14.38988
_cell_length_c       17.9953
_cell_angle_alpha    105.56371
_cell_angle_beta     106.09882999999999
_cell_angle_gamma    109.77108

_symmetry_space_group_name_H-M    'P 1'
_symmetry_Int_Tables_number       1

loop_
  _symmetry_equiv_pos_as_xyz
  'x,y,z'

loop_
  _atom_site_type_symbol
  _atom_site_label
  _atom_site_symmetry_multiplicity
  _atom_site_fract_x
  _atom_site_fract_y
  _atom_site_fract_z
  _atom_site_occupancy
  Cu  Cu1       1.0  0.9685499999999999  0.74581  0.75464  1.0000
  Cu  Cu2       1.0  0.4934  0.20846  0.74482  1.0000
  Cu  Cu3       1.0  0.7080599999999999  0.9928899999999999  0.24441999999999994  1.0000
  Cu  Cu4       1.0  0.24530999999999997  0.4680899999999999  0.25658  1.0000
  Cu  Cu5       1.0  0.2919399999999999  0.007029999999999918  0.7555599999999998  1.0000
  Cu  Cu6       1.0  0.75471  0.53191  0.74345  1.0000
  Cu  Cu7       1.0  0.03147  0.25421  0.24538  1.0000
  Cu  Cu8       1.0  0.5065699999999999  0.7915799999999997  0.25519  1.0000
  H   H1        1.0  0.7849899999999997  0.7382199999999998  0.62388  1.0000
  H   H2        1.0  0.6778899999999998  0.8369299999999998  0.6157099999999998  1.0000
  H   H3        1.0  0.85861  0.021689999999999963  0.88628  1.0000
  H   H4        1.0  0.9606299999999998  0.9169999999999998  0.8821199999999998  1.0000
  H   H5        1.0  0.88014  0.6704899999999999  0.56249  1.0000
  H   H6        1.0  0.16555999999999985  0.7392799999999998  0.7513299999999998  1.0000
  H   H7        1.0  0.9393999999999998  0.6103699999999999  0.4517199999999999  1.0000
  H   H8        1.0  0.23473  0.67615  0.64885  1.0000
  H   H9        1.0  0.030849999999999846  0.6261399999999998  0.3752399999999999  1.0000
  H   H10       1.0  0.25588999999999984  0.5716999999999998  0.5535199999999998  1.0000
  H   H11       1.0  0.31727999999999995  0.51429  0.4434799999999999  1.0000
  H   H12       1.0  0.09996999999999993  0.5641699999999998  0.27184999999999987  1.0000
  H   H13       1.0  0.6189  0.15748  0.87514  1.0000
  H   H14       1.0  0.72507  0.057929999999999995  0.88325  1.0000
  H   H15       1.0  0.6399099999999999  0.9688199999999996  0.61416  1.0000
  H   H16       1.0  0.53866  0.07436  0.61792  1.0000
  H   H17       1.0  0.6139899999999999  0.31701  0.9382  1.0000
  H   H18       1.0  0.49507999999999985  0.41306999999999977  0.7495099999999998  1.0000
  H   H19       1.0  0.66079  0.48743999999999993  0.04934  1.0000
  H   H20       1.0  0.5313799999999997  0.5849599999999998  0.8521599999999998  1.0000
  H   H21       1.0  0.7513  0.65909  0.12812  1.0000
  H   H22       1.0  0.51577  0.6986  0.9455199999999998  1.0000
  H   H23       1.0  0.56358  0.87017  0.056079999999999984  1.0000
  H   H24       1.0  0.79075  0.83358  0.23054999999999995  1.0000
  H   H25       1.0  0.65774  0.11679999999999999  0.37406  1.0000
  H   H26       1.0  0.5591299999999999  0.22372999999999996  0.3828199999999999  1.0000
  H   H27       1.0  0.4669  0.14111  0.11376999999999997  1.0000
  H   H28       1.0  0.57182  0.03915999999999998  0.11674999999999998  1.0000
  H   H29       1.0  0.81709  0.11208  0.43713  1.0000
  H   H30       1.0  0.9118499999999999  0.9951699999999998  0.24905999999999995  1.0000
  H   H31       1.0  0.9876  0.15907  0.54843  1.0000
  H   H32       1.0  0.08417999999999995  0.03210999999999996  0.3518399999999999  1.0000
  H   H33       1.0  0.15901999999999997  0.25053999999999993  0.62751  1.0000
  H   H34       1.0  0.19955999999999993  0.016909999999999935  0.44640999999999986  1.0000
  H   H35       1.0  0.37145  0.06581  0.55726  1.0000
  H   H36       1.0  0.3339599999999998  0.29160999999999987  0.7302499999999997  1.0000
  H   H37       1.0  0.23686  0.28639  0.12607  1.0000
  H   H38       1.0  0.33604  0.18000999999999998  0.11643  1.0000
  H   H39       1.0  0.52365  0.35783  0.38689  1.0000
  H   H40       1.0  0.4182799999999998  0.4592699999999998  0.3842799999999999  1.0000
  H   H41       1.0  0.1712  0.38038  0.06534  1.0000
  H   H42       1.0  0.23857999999999996  0.66613  0.25215  1.0000
  H   H43       1.0  0.11180999999999987  0.4395799999999998  0.9534199999999998  1.0000
  H   H44       1.0  0.17564  0.73513  0.14835  1.0000
  H   H45       1.0  0.1266299999999998  0.5307399999999998  0.8762199999999998  1.0000
  H   H46       1.0  0.07095999999999995  0.7557099999999999  0.05162  1.0000
  H   H47       1.0  0.01400000000000003  0.81704  0.94053  1.0000
  H   H48       1.0  0.06536999999999979  0.6001399999999997  0.7717299999999998  1.0000
  H   H49       1.0  0.34225999999999995  0.8831899999999998  0.62594  1.0000
  H   H50       1.0  0.44088999999999984  0.7762699999999999  0.6171799999999997  1.0000
  H   H51       1.0  0.5330799999999999  0.8588499999999998  0.8862299999999997  1.0000
  H   H52       1.0  0.42823999999999995  0.9608699999999999  0.88325  1.0000
  H   H53       1.0  0.1828999999999998  0.8879099999999996  0.5628399999999998  1.0000
  H   H54       1.0  0.08815999999999988  0.004819999999999876  0.7509299999999998  1.0000
  H   H55       1.0  0.012399999999999878  0.84089  0.45156  1.0000
  H   H56       1.0  0.91586  0.9678799999999997  0.64817  1.0000
  H   H57       1.0  0.8409900000000001  0.74943  0.37248  1.0000
  H   H58       1.0  0.80042  0.9830799999999998  0.5536  1.0000
  H   H59       1.0  0.62854  0.9341899999999999  0.44275  1.0000
  H   H60       1.0  0.66607  0.7084  0.26973999999999987  1.0000
  H   H61       1.0  0.76316  0.7136199999999998  0.87395  1.0000
  H   H62       1.0  0.6639799999999997  0.8199999999999997  0.8835899999999998  1.0000
  H   H63       1.0  0.47637  0.64217  0.61311  1.0000
  H   H64       1.0  0.5817699999999998  0.5407599999999998  0.6157299999999998  1.0000
  H   H65       1.0  0.8288399999999999  0.61963  0.93469  1.0000
  H   H66       1.0  0.76146  0.33392  0.74789  1.0000
  H   H67       1.0  0.88824  0.5604499999999999  0.046609999999999985  1.0000
  H   H68       1.0  0.8243599999999994  0.26489999999999986  0.8516599999999998  1.0000
  H   H69       1.0  0.87339  0.46923  0.12378999999999997  1.0000
  H   H70       1.0  0.9290199999999998  0.24426999999999988  0.9484  1.0000
  H   H71       1.0  0.98601  0.18291999999999994  0.05948  1.0000
  H   H72       1.0  0.9346399999999998  0.39982999999999996  0.22829  1.0000
  H   H73       1.0  0.2149999999999999  0.2617599999999999  0.3761299999999999  1.0000
  H   H74       1.0  0.3220999999999998  0.16304999999999994  0.3842799999999999  1.0000
  H   H75       1.0  0.14137  0.97828  0.11370999999999998  1.0000
  H   H76       1.0  0.03934999999999998  0.08297999999999997  0.11786999999999997  1.0000
  H   H77       1.0  0.11986000000000002  0.32949  0.43752  1.0000
  H   H78       1.0  0.83441  0.2607099999999999  0.24864999999999995  1.0000
  H   H79       1.0  0.060589999999999984  0.38958999999999994  0.54827  1.0000
  H   H80       1.0  0.76527  0.32387  0.35115  1.0000
  H   H81       1.0  0.9691499999999997  0.37385  0.62476  1.0000
  H   H82       1.0  0.7440899999999999  0.42829  0.4464799999999999  1.0000
  H   H83       1.0  0.6827199999999998  0.4856899999999998  0.5565099999999997  1.0000
  H   H84       1.0  0.90004  0.4358499999999998  0.7281399999999998  1.0000
  H   H85       1.0  0.3810999999999999  0.8424999999999998  0.12484999999999997  1.0000
  H   H86       1.0  0.27494  0.94206  0.11674999999999998  1.0000
  H   H87       1.0  0.3600699999999999  0.03114999999999994  0.3858299999999999  1.0000
  H   H88       1.0  0.46133  0.9256199999999999  0.38208  1.0000
  H   H89       1.0  0.38598  0.68296  0.061789999999999984  1.0000
  H   H90       1.0  0.50492  0.58694  0.25049  1.0000
  H   H91       1.0  0.33921999999999985  0.5125499999999997  0.9506199999999998  1.0000
  H   H92       1.0  0.46861  0.415  0.14781  1.0000
  H   H93       1.0  0.2487  0.3408799999999999  0.87189  1.0000
  H   H94       1.0  0.48423  0.30141  0.054469999999999984  1.0000
  H   H95       1.0  0.43639999999999984  0.12982999999999983  0.9439099999999998  1.0000
  H   H96       1.0  0.20923999999999993  0.16637999999999983  0.7694599999999998  1.0000
  C   C1        1.0  0.80061  0.8030499999999999  0.68054  1.0000
  C   C2        1.0  0.7408499999999998  0.85997  0.67651  1.0000
  C   C3        1.0  0.75756  0.9425499999999999  0.75049  1.0000
  C   C4        1.0  0.8388499999999997  0.9599699999999995  0.8260999999999997  1.0000
  C   C5        1.0  0.8968699999999997  0.9011799999999999  0.8242499999999998  1.0000
  C   C6        1.0  0.95807  0.6700099999999998  0.57939  1.0000
  C   C7        1.0  0.11611999999999996  0.70651  0.68406  1.0000
  C   C8        1.0  0.9927199999999999  0.6370499999999998  0.51712  1.0000
  C   C9        1.0  0.15469999999999992  0.6712699999999998  0.62592  1.0000
  C   C10       1.0  0.09421999999999983  0.6359399999999996  0.5383399999999998  1.0000
  C   C11       1.0  0.13523999999999994  0.60444  0.47611  1.0000
  C   C12       1.0  0.09332999999999989  0.6006199999999998  0.3934799999999999  1.0000
  C   C13       1.0  0.22013999999999986  0.5739599999999998  0.49270999999999987  1.0000
  C   C14       1.0  0.25463999999999987  0.5409299999999998  0.4307399999999999  1.0000
  C   C15       1.0  0.1330299999999999  0.5677299999999997  0.33523  1.0000
  C   C16       1.0  0.62662  0.11616999999999986  0.8186699999999998  1.0000
  C   C17       1.0  0.68752  0.060370000000000014  0.82286  1.0000
  C   C18       1.0  0.6959799999999998  0.0030599999999998888  0.7492199999999998  1.0000
  C   C19       1.0  0.63817  0.009009999999999855  0.6739599999999998  1.0000
  C   C20       1.0  0.5809399999999997  0.06872999999999989  0.6755999999999998  1.0000
  C   C21       1.0  0.59656  0.37808  0.92117  1.0000
  C   C22       1.0  0.52844  0.43067999999999995  0.8165799999999998  1.0000
  C   C23       1.0  0.6241399999999998  0.4753999999999998  0.9837599999999997  1.0000
  C   C24       1.0  0.54927  0.52764  0.87488  1.0000
  C   C25       1.0  0.6002699999999996  0.5552399999999997  0.9627199999999998  1.0000
  C   C26       1.0  0.6278499999999999  0.6585999999999996  0.025049999999999992  1.0000
  C   C27       1.0  0.70598  0.7016399999999999  0.10901  1.0000
  C   C28       1.0  0.57777  0.7247  0.007689999999999998  1.0000
  C   C29       1.0  0.6039499999999999  0.8214499999999999  0.06974999999999998  1.0000
  C   C30       1.0  0.72939  0.8002599999999997  0.1669  1.0000
  C   C31       1.0  0.61619  0.12534999999999993  0.31775  1.0000
  C   C32       1.0  0.5609099999999999  0.18674  0.32234  1.0000
  C   C33       1.0  0.50321  0.19627999999999995  0.24900999999999995  1.0000
  C   C34       1.0  0.50787  0.13883999999999994  0.17345999999999995  1.0000
  C   C35       1.0  0.56711  0.08103  0.17469  1.0000
  C   C36       1.0  0.87784  0.09478999999999996  0.4204699999999999  1.0000
  C   C37       1.0  0.9299799999999997  0.02813999999999996  0.3161699999999999  1.0000
  C   C38       1.0  0.97534  0.12243999999999997  0.48306  1.0000
  C   C39       1.0  0.027290000000000005  0.04938000000000003  0.37458  1.0000
  C   C40       1.0  0.055160000000000015  0.09970999999999997  0.46239  1.0000
  C   C41       1.0  0.15887999999999985  0.12805999999999987  0.5249599999999998  1.0000
  C   C42       1.0  0.2018299999999999  0.20582999999999976  0.6085899999999997  1.0000
  C   C43       1.0  0.22536999999999982  0.0788799999999999  0.5080499999999998  1.0000
  C   C44       1.0  0.32265  0.10597999999999998  0.57051  1.0000
  C   C45       1.0  0.3008399999999999  0.23036999999999988  0.6668199999999997  1.0000
  C   C46       1.0  0.30253999999999986  0.30172999999999994  0.18235999999999994  1.0000
  C   C47       1.0  0.3595999999999999  0.2422499999999999  0.17747999999999994  1.0000
  C   C48       1.0  0.44296  0.25817  0.25099  1.0000
  C   C49       1.0  0.4612200000000001  0.33855  0.327  1.0000
  C   C50       1.0  0.40214  0.3964  0.32605  1.0000
  C   C51       1.0  0.17085  0.45849999999999996  0.08141  1.0000
  C   C52       1.0  0.2062  0.61651  0.18499  1.0000
  C   C53       1.0  0.13814999999999994  0.4932199999999999  0.01861  1.0000
  C   C54       1.0  0.17101999999999998  0.6551099999999999  0.12615  1.0000
  C   C55       1.0  0.13604  0.59435  0.03877999999999999  1.0000
  C   C56       1.0  0.10451000000000002  0.63536  0.97582  1.0000
  C   C57       1.0  0.10096999999999998  0.59327  0.89361  1.0000
  C   C58       1.0  0.07379999999999996  0.72016  0.9913199999999998  1.0000
  C   C59       1.0  0.04077999999999991  0.7544999999999998  0.9286099999999998  1.0000
  C   C60       1.0  0.06835999999999992  0.6330299999999999  0.83472  1.0000
  C   C61       1.0  0.3838299999999999  0.8746299999999999  0.6822599999999998  1.0000
  C   C62       1.0  0.4390399999999999  0.81321  0.6776599999999998  1.0000
  C   C63       1.0  0.49683999999999984  0.8037299999999998  0.7509999999999998  1.0000
  C   C64       1.0  0.49212999999999985  0.8611599999999997  0.8265499999999998  1.0000
  C   C65       1.0  0.43284999999999996  0.91895  0.8253099999999998  1.0000
  C   C66       1.0  0.12222999999999991  0.9052799999999999  0.57955  1.0000
  C   C67       1.0  0.07006999999999992  0.9718599999999998  0.6838299999999998  1.0000
  C   C68       1.0  0.02465999999999981  0.8775799999999999  0.5169399999999997  1.0000
  C   C69       1.0  0.9727399999999999  0.9506099999999997  0.62542  1.0000
  C   C70       1.0  0.9449199999999998  0.9002999999999997  0.5376299999999998  1.0000
  C   C71       1.0  0.8410999999999998  0.8719399999999997  0.47499999999999987  1.0000
  C   C72       1.0  0.79819  0.79417  0.3914499999999999  1.0000
  C   C73       1.0  0.7745999999999998  0.92106  0.49198  1.0000
  C   C74       1.0  0.6773099999999999  0.8939599999999998  0.4294999999999999  1.0000
  C   C75       1.0  0.69914  0.7696  0.33316  1.0000
  C   C76       1.0  0.6974899999999999  0.6982899999999997  0.8176499999999998  1.0000
  C   C77       1.0  0.6404099999999999  0.7577499999999997  0.8225399999999998  1.0000
  C   C78       1.0  0.55706  0.74182  0.74902  1.0000
  C   C79       1.0  0.5388099999999999  0.66143  0.6729899999999998  1.0000
  C   C80       1.0  0.5978799999999999  0.6035999999999999  0.6739599999999998  1.0000
  C   C81       1.0  0.82928  0.54158  0.91861  1.0000
  C   C82       1.0  0.7938499999999998  0.38350999999999985  0.8150399999999998  1.0000
  C   C83       1.0  0.8619799999999999  0.50686  0.98142  1.0000
  C   C84       1.0  0.8289799999999999  0.3448899999999999  0.87385  1.0000
  C   C85       1.0  0.8639099999999997  0.4056399999999999  0.9612499999999998  1.0000
  C   C86       1.0  0.89551  0.36469  0.0242  1.0000
  C   C87       1.0  0.89902  0.40668999999999994  0.1064  1.0000
  C   C88       1.0  0.92619  0.27984  0.00868  1.0000
  C   C89       1.0  0.9591699999999999  0.24543  0.07135  1.0000
  C   C90       1.0  0.93161  0.36691  0.16529999999999995  1.0000
  C   C91       1.0  0.19939  0.19692  0.31946  1.0000
  C   C92       1.0  0.25913  0.13999  0.32348  1.0000
  C   C93       1.0  0.24242999999999998  0.057419999999999964  0.24948999999999993  1.0000
  C   C94       1.0  0.16114999999999996  0.040009999999999955  0.17389999999999997  1.0000
  C   C95       1.0  0.10308999999999995  0.09876999999999994  0.17574999999999993  1.0000
  C   C96       1.0  0.041909999999999975  0.3299199999999999  0.42063  1.0000
  C   C97       1.0  0.88388  0.29348999999999986  0.3159299999999999  1.0000
  C   C98       1.0  0.0072199999999999565  0.36285  0.48287999999999986  1.0000
  C   C99       1.0  0.8453099999999998  0.32878999999999986  0.3740999999999999  1.0000
  C   C100      1.0  0.9057999999999997  0.3640999999999998  0.4616699999999999  1.0000
  C   C101      1.0  0.86476  0.39559  0.52391  1.0000
  C   C102      1.0  0.90668  0.39939  0.60652  1.0000
  C   C103      1.0  0.77981  0.426  0.50727  1.0000
  C   C104      1.0  0.7453399999999998  0.4590599999999999  0.56928  1.0000
  C   C105      1.0  0.8669699999999998  0.43225999999999987  0.66477  1.0000
  C   C106      1.0  0.37339  0.88383  0.18132  1.0000
  C   C107      1.0  0.3124799999999998  0.9396299999999997  0.17712999999999995  1.0000
  C   C108      1.0  0.304  0.9969099999999999  0.25076  1.0000
  C   C109      1.0  0.36182999999999993  0.9909699999999999  0.32603  1.0000
  C   C110      1.0  0.41903999999999986  0.9312599999999996  0.3243999999999999  1.0000
  C   C111      1.0  0.40347  0.62192  0.07881  1.0000
  C   C112      1.0  0.47164  0.56925  0.18339  1.0000
  C   C113      1.0  0.37582  0.5246  0.0162  1.0000
  C   C114      1.0  0.4507799999999999  0.4723499999999999  0.12508  1.0000
  C   C115      1.0  0.3996299999999999  0.44465999999999994  0.0372  1.0000
  C   C116      1.0  0.3722199999999999  0.34146999999999983  0.9749099999999998  1.0000
  C   C117      1.0  0.2939399999999998  0.2982699999999998  0.8909499999999998  1.0000
  C   C118      1.0  0.42220999999999986  0.2752999999999998  0.9922999999999997  1.0000
  C   C119      1.0  0.39602  0.17852999999999997  0.93028  1.0000
  C   C120      1.0  0.2705799999999999  0.1996899999999999  0.8331199999999997  1.0000
  N   N1        1.0  0.8808499999999999  0.8222899999999999  0.75293  1.0000
  N   N2        1.0  0.016769999999999848  0.7040299999999998  0.6631499999999998  1.0000
  N   N3        1.0  0.21309999999999987  0.5361999999999998  0.35093999999999986  1.0000
  N   N4        1.0  0.57298  0.12341000000000006  0.74649  1.0000
  N   N5        1.0  0.5480799999999999  0.3524099999999999  0.83714  1.0000
  N   N6        1.0  0.67947  0.8624599999999999  0.15045  1.0000
  N   N7        1.0  0.62257  0.07232999999999999  0.24538  1.0000
  N   N8        1.0  0.85193  0.046829999999999955  0.3364099999999999  1.0000
  N   N9        1.0  0.36346  0.18122  0.65073  1.0000
  N   N10       1.0  0.32242  0.3810699999999999  0.25519  1.0000
  N   N11       1.0  0.20382  0.51705  0.16497  1.0000
  N   N12       1.0  0.036789999999999934  0.7131699999999997  0.84933  1.0000
  N   N13       1.0  0.3775099999999999  0.9277399999999998  0.75462  1.0000
  N   N14       1.0  0.14807  0.95317  0.66358  1.0000
  N   N15       1.0  0.63658  0.81885  0.3492699999999999  1.0000
  N   N16       1.0  0.6775999999999998  0.6189299999999998  0.7448399999999997  1.0000
  N   N17       1.0  0.7961299999999998  0.48291999999999985  0.8350399999999998  1.0000
  N   N18       1.0  0.96332  0.2868399999999999  0.15068  1.0000
  N   N19       1.0  0.11915  0.1777  0.24707  1.0000
  N   N20       1.0  0.9831999999999999  0.29593999999999987  0.33683999999999986  1.0000
  N   N21       1.0  0.7868999999999999  0.46378999999999976  0.6490599999999997  1.0000
  N   N22       1.0  0.42697000000000007  0.87655  0.2535  1.0000
  N   N23       1.0  0.4517699999999999  0.6474899999999999  0.16286999999999993  1.0000
  N   N24       1.0  0.3206599999999999  0.13762999999999992  0.8495299999999998  1.0000
