data_image0
_chemical_formula_structural       Cd8H96C96N32O32
_chemical_formula_sum              "Cd8 H96 C96 N32 O32"
_cell_length_a       16.10583
_cell_length_b       16.106220000000004
_cell_length_c       16.64097
_cell_angle_alpha    119.02911000000002
_cell_angle_beta     119.02886999999998
_cell_angle_gamma    89.92952

_space_group_name_H-M_alt    "P 1"
_space_group_IT_number       1

loop_
  _space_group_symop_operation_xyz
  'x, y, z'

loop_
  _atom_site_type_symbol
  _atom_site_label
  _atom_site_symmetry_multiplicity
  _atom_site_fract_x
  _atom_site_fract_y
  _atom_site_fract_z
  _atom_site_occupancy
  Cd  Cd1       1.0  0.08613000000000005  0.5352300000000001  0.8207800000000001  1.0000
  Cd  Cd2       1.0  0.7339999999999998  0.28526  0.82045  1.0000
  Cd  Cd3       1.0  0.46513  0.2659299999999999  0.17963000000000004  1.0000
  Cd  Cd4       1.0  0.71433  0.91412  0.17924000000000004  1.0000
  Cd  Cd5       1.0  0.66411  0.9643300000000001  0.67924  1.0000
  Cd  Cd6       1.0  0.015930000000000052  0.71513  0.67963  1.0000
  Cd  Cd7       1.0  0.2852399999999999  0.33612  0.32079  1.0000
  Cd  Cd8       1.0  0.03525999999999995  0.9839999999999995  0.32045  1.0000
  H   H1        1.0  0.78504  0.1644  0.34535  1.0000
  H   H2        1.0  0.9162299999999999  0.27633  0.57559  1.0000
  H   H3        1.0  0.036950000000000004  0.09126  0.64063  1.0000
  H   H4        1.0  0.9869999999999999  0.18304000000000006  0.7005700000000001  1.0000
  H   H5        1.0  0.14541000000000007  0.22377  0.6595400000000001  1.0000
  H   H6        1.0  0.17282000000000006  0.2435700000000001  0.7845600000000003  1.0000
  H   H7        1.0  0.025449999999999997  0.7805699999999999  0.34567  1.0000
  H   H8        1.0  0.9501299999999997  0.76879  0.4622  1.0000
  H   H9        1.0  0.86182  0.9991099999999999  0.55564  1.0000
  H   H10       1.0  0.92295  0.93048  0.61139  1.0000
  H   H11       1.0  0.78227  0.77602  0.45521  1.0000
  H   H12       1.0  0.72267  0.8355200000000002  0.38678  1.0000
  H   H13       1.0  0.56004  0.18091000000000002  0.34498000000000006  1.0000
  H   H14       1.0  0.65918  0.2988  0.57524  1.0000
  H   H15       1.0  0.60366  0.54927  0.64068  1.0000
  H   H16       1.0  0.7137900000000001  0.51787  0.7009800000000003  1.0000
  H   H17       1.0  0.5140899999999999  0.43553000000000003  0.6592300000000001  1.0000
  H   H18       1.0  0.61172  0.5407900000000002  0.7845600000000003  1.0000
  H   H19       1.0  0.32021000000000005  0.56477  0.34586000000000006  1.0000
  H   H20       1.0  0.51203  0.6933399999999997  0.4620100000000001  1.0000
  H   H21       1.0  0.69429  0.55689  0.55609  1.0000
  H   H22       1.0  0.6890299999999998  0.68137  0.61179  1.0000
  H   H23       1.0  0.67328  0.6794499999999998  0.45565  1.0000
  H   H24       1.0  0.66393  0.55132  0.38694  1.0000
  H   H25       1.0  0.8355599999999997  0.43994  0.65454  1.0000
  H   H26       1.0  0.72368  0.3407999999999999  0.4243  1.0000
  H   H27       1.0  0.90885  0.39606  0.3594900000000001  1.0000
  H   H28       1.0  0.8170699999999997  0.2862  0.29934  1.0000
  H   H29       1.0  0.77663  0.48606999999999995  0.34083  1.0000
  H   H30       1.0  0.7565299999999998  0.3882  0.21559  1.0000
  H   H31       1.0  0.21912  0.67957  0.65439  1.0000
  H   H32       1.0  0.23097000000000006  0.48752999999999996  0.53743  1.0000
  H   H33       1.0  0.0008100000000000229  0.30573  0.44391  1.0000
  H   H34       1.0  0.06972999999999997  0.31104  0.3885  1.0000
  H   H35       1.0  0.22387999999999994  0.32628  0.54463  1.0000
  H   H36       1.0  0.16439  0.3358399999999999  0.61317  1.0000
  H   H37       1.0  0.81892  0.21522999999999998  0.65536  1.0000
  H   H38       1.0  0.7011699999999997  0.08422  0.42507  1.0000
  H   H39       1.0  0.45087000000000005  0.9627800000000001  0.3592600000000001  1.0000
  H   H40       1.0  0.48220999999999997  0.012889999999999988  0.29932  1.0000
  H   H41       1.0  0.5646699999999998  0.85442  0.34011  1.0000
  H   H42       1.0  0.4591899999999999  0.82708  0.21513  1.0000
  H   H43       1.0  0.43526  0.9743799999999999  0.65404  1.0000
  H   H44       1.0  0.30673  0.05011999999999999  0.53796  1.0000
  H   H45       1.0  0.4431499999999999  0.13782000000000003  0.44401  1.0000
  H   H46       1.0  0.31869  0.07693999999999994  0.38822  1.0000
  H   H47       1.0  0.32048  0.21763000000000005  0.54434  1.0000
  H   H48       1.0  0.44855  0.27706  0.61295  1.0000
  H   H49       1.0  0.96523  0.06892  0.15537  1.0000
  H   H50       1.0  0.8342299999999998  0.95118  0.92508  1.0000
  H   H51       1.0  0.71278  0.7008700000000001  0.8592600000000002  1.0000
  H   H52       1.0  0.7628899999999997  0.7322  0.79931  1.0000
  H   H53       1.0  0.6044299999999998  0.8146799999999997  0.84011  1.0000
  H   H54       1.0  0.5770699999999997  0.7091999999999998  0.71512  1.0000
  H   H55       1.0  0.72437  0.68529  0.15404  1.0000
  H   H56       1.0  0.80012  0.5567499999999997  0.03797  1.0000
  H   H57       1.0  0.88781  0.69314  0.9440000000000001  1.0000
  H   H58       1.0  0.82694  0.56868  0.88822  1.0000
  H   H59       1.0  0.9676299999999998  0.5704799999999998  0.04433  1.0000
  H   H60       1.0  0.02705  0.69855  0.11294  1.0000
  H   H61       1.0  0.18993999999999994  0.08555  0.15453  1.0000
  H   H62       1.0  0.09080000000000006  0.9736800000000001  0.9242900000000001  1.0000
  H   H63       1.0  0.1460599999999999  0.15883999999999998  0.85949  1.0000
  H   H64       1.0  0.03619999999999999  0.06705999999999997  0.79934  1.0000
  H   H65       1.0  0.23607999999999996  0.026630000000000015  0.84082  1.0000
  H   H66       1.0  0.13820999999999994  0.006529999999999967  0.71559  1.0000
  H   H67       1.0  0.42958  0.46912  0.1544  1.0000
  H   H68       1.0  0.23753  0.4809599999999999  0.03742  1.0000
  H   H69       1.0  0.05573000000000001  0.2508099999999999  0.94392  1.0000
  H   H70       1.0  0.06104999999999999  0.31970999999999994  0.88851  1.0000
  H   H71       1.0  0.07628  0.47388  0.04463000000000001  1.0000
  H   H72       1.0  0.08583000000000003  0.41438999999999987  0.11317000000000003  1.0000
  H   H73       1.0  0.9143699999999998  0.035010000000000006  0.84532  1.0000
  H   H74       1.0  0.02634  0.16620999999999994  0.07557  1.0000
  H   H75       1.0  0.8412699999999997  0.2869599999999999  0.14062  1.0000
  H   H76       1.0  0.93305  0.23700999999999994  0.20057  1.0000
  H   H77       1.0  0.9737899999999998  0.39543  0.15956  1.0000
  H   H78       1.0  0.9935699999999998  0.4228199999999998  0.28457  1.0000
  H   H79       1.0  0.53057  0.2754599999999999  0.84569  1.0000
  H   H80       1.0  0.5187799999999998  0.20010999999999998  0.9621900000000001  1.0000
  H   H81       1.0  0.7491199999999998  0.11182999999999997  0.05565  1.0000
  H   H82       1.0  0.68049  0.17296  0.11140000000000003  1.0000
  H   H83       1.0  0.5260199999999998  0.03228000000000003  0.95523  1.0000
  H   H84       1.0  0.5855200000000003  0.9726900000000002  0.8867900000000002  1.0000
  H   H85       1.0  0.93091  0.81005  0.84501  1.0000
  H   H86       1.0  0.048829999999999985  0.90918  0.07527  1.0000
  H   H87       1.0  0.29929  0.85368  0.14068  1.0000
  H   H88       1.0  0.26788  0.9637899999999998  0.20097000000000004  1.0000
  H   H89       1.0  0.18552999999999994  0.76409  0.15921  1.0000
  H   H90       1.0  0.2908  0.8617099999999998  0.28455  1.0000
  H   H91       1.0  0.31478  0.5702199999999997  0.84585  1.0000
  H   H92       1.0  0.44336  0.7620299999999998  0.96203  1.0000
  H   H93       1.0  0.3068899999999999  0.94429  0.05607  1.0000
  H   H94       1.0  0.43136999999999986  0.93903  0.11178  1.0000
  H   H95       1.0  0.42944  0.92327  0.95563  1.0000
  H   H96       1.0  0.3012999999999999  0.91393  0.88692  1.0000
  C   C1        1.0  0.9048199999999997  0.04336999999999999  0.44485  1.0000
  C   C2        1.0  0.83462  0.14307  0.39977  1.0000
  C   C3        1.0  0.8994899999999996  0.19934999999999997  0.51301  1.0000
  C   C4        1.0  0.02013999999999996  0.16052  0.65194  1.0000
  C   C5        1.0  0.11560000000000001  0.2416200000000001  0.7110200000000001  1.0000
  C   C6        1.0  0.10427999999999998  0.34584  0.75241  1.0000
  C   C7        1.0  0.93482  0.95551  0.43503  1.0000
  C   C8        1.0  0.9914999999999998  0.8288299999999997  0.38438  1.0000
  C   C9        1.0  0.95528  0.82229  0.4418  1.0000
  C   C10       1.0  0.8719299999999998  0.92578  0.53456  1.0000
  C   C11       1.0  0.77161  0.8481600000000001  0.46879000000000004  1.0000
  C   C12       1.0  0.7211499999999997  0.8822400000000001  0.5314200000000001  1.0000
  C   C13       1.0  0.5403699999999999  0.40168  0.4452700000000001  1.0000
  C   C14       1.0  0.56506  0.25668  0.39964  1.0000
  C   C15       1.0  0.61349  0.31346  0.51288  1.0000
  C   C16       1.0  0.6319599999999997  0.49145  0.65212  1.0000
  C   C17       1.0  0.59545  0.4692899999999999  0.71091  1.0000
  C   C18       1.0  0.6481  0.4063499999999999  0.75204  1.0000
  C   C19       1.0  0.5005600000000001  0.4798  0.4357500000000001  1.0000
  C   C20       1.0  0.3930100000000001  0.55547  0.38476000000000005  1.0000
  C   C21       1.0  0.48668999999999996  0.61953  0.442  1.0000
  C   C22       1.0  0.6631299999999998  0.60911  0.53497  1.0000
  C   C23       1.0  0.69741  0.62076  0.46901000000000004  1.0000
  C   C24       1.0  0.81056  0.64899  0.5309  1.0000
  C   C25       1.0  0.95668  0.45976  0.55515  1.0000
  C   C26       1.0  0.8569399999999998  0.43496999999999997  0.60017  1.0000
  C   C27       1.0  0.80067  0.38656  0.48694  1.0000
  C   C28       1.0  0.83955  0.36803  0.34809  1.0000
  C   C29       1.0  0.7585699999999997  0.4046799999999999  0.28918  1.0000
  C   C30       1.0  0.65429  0.35238  0.24792000000000003  1.0000
  C   C31       1.0  0.04446999999999994  0.49953999999999993  0.56499  1.0000
  C   C32       1.0  0.17099  0.6068599999999997  0.61565  1.0000
  C   C33       1.0  0.17753  0.5131  0.558  1.0000
  C   C34       1.0  0.0742  0.33687  0.46519  1.0000
  C   C35       1.0  0.15174  0.30237  0.53114  1.0000
  C   C36       1.0  0.1179  0.18925000000000003  0.4691100000000001  1.0000
  C   C37       1.0  0.5984  0.09470999999999995  0.5548  1.0000
  C   C38       1.0  0.74327  0.16537  0.60061  1.0000
  C   C39       1.0  0.68654  0.10065000000000002  0.48735  1.0000
  C   C40       1.0  0.50867  0.9797199999999998  0.34791  1.0000
  C   C41       1.0  0.5307799999999998  0.88434  0.28873  1.0000
  C   C42       1.0  0.5934899999999997  0.8958499999999998  0.24747000000000002  1.0000
  C   C43       1.0  0.52027  0.06449999999999996  0.56424  1.0000
  C   C44       1.0  0.4446  0.008179999999999995  0.61518  1.0000
  C   C45       1.0  0.38053  0.04463999999999995  0.55797  1.0000
  C   C46       1.0  0.39092  0.12786999999999998  0.46508  1.0000
  C   C47       1.0  0.3791299999999999  0.22824999999999995  0.53092  1.0000
  C   C48       1.0  0.35073  0.27899  0.46861  1.0000
  C   C49       1.0  0.8446999999999998  0.8483999999999998  0.05478  1.0000
  C   C50       1.0  0.91537  0.99326  0.10061  1.0000
  C   C51       1.0  0.8506499999999998  0.93654  0.98735  1.0000
  C   C52       1.0  0.7297199999999998  0.75867  0.8479  1.0000
  C   C53       1.0  0.6343399999999998  0.78079  0.78873  1.0000
  C   C54       1.0  0.6458699999999998  0.8434899999999997  0.74747  1.0000
  C   C55       1.0  0.8144799999999998  0.7702699999999998  0.06422  1.0000
  C   C56       1.0  0.7581599999999997  0.69461  0.11517000000000002  1.0000
  C   C57       1.0  0.7946299999999997  0.63054  0.05797  1.0000
  C   C58       1.0  0.87786  0.64092  0.96508  1.0000
  C   C59       1.0  0.97825  0.62913  0.03091  1.0000
  C   C60       1.0  0.029000000000000022  0.60074  0.9686100000000001  1.0000
  C   C61       1.0  0.20977  0.20668  0.055160000000000015  1.0000
  C   C62       1.0  0.18496999999999994  0.10694  0.10017  1.0000
  C   C63       1.0  0.13656  0.05067000000000001  0.98695  1.0000
  C   C64       1.0  0.11803999999999999  0.08954999999999999  0.84809  1.0000
  C   C65       1.0  0.15469  0.00857  0.78919  1.0000
  C   C66       1.0  0.10239  0.9042899999999998  0.74791  1.0000
  C   C67       1.0  0.24954  0.2944799999999999  0.06501  1.0000
  C   C68       1.0  0.3568699999999999  0.42098999999999986  0.11566  1.0000
  C   C69       1.0  0.2631  0.42753  0.05801  1.0000
  C   C70       1.0  0.08687  0.3241999999999999  0.9652  1.0000
  C   C71       1.0  0.05237  0.40174  0.031140000000000008  1.0000
  C   C72       1.0  0.9392499999999998  0.3679  0.9691  1.0000
  C   C73       1.0  0.7933799999999999  0.15483000000000008  0.9448600000000001  1.0000
  C   C74       1.0  0.8930599999999997  0.08460000000000001  0.89976  1.0000
  C   C75       1.0  0.9493499999999998  0.14948  0.013  1.0000
  C   C76       1.0  0.9105399999999998  0.27014  0.15194  1.0000
  C   C77       1.0  0.99164  0.36561  0.21103  1.0000
  C   C78       1.0  0.09586  0.35428  0.25242  1.0000
  C   C79       1.0  0.7055199999999998  0.18482999999999988  0.93505  1.0000
  C   C80       1.0  0.5788399999999998  0.24150999999999995  0.88441  1.0000
  C   C81       1.0  0.57229  0.20527  0.94181  1.0000
  C   C82       1.0  0.67579  0.12194  0.03457  1.0000
  C   C83       1.0  0.5981700000000002  0.02162000000000011  0.9688000000000002  1.0000
  C   C84       1.0  0.63225  0.97117  0.03143  1.0000
  C   C85       1.0  0.15168  0.7903699999999998  0.94525  1.0000
  C   C86       1.0  0.006680000000000094  0.81507  0.8996500000000002  1.0000
  C   C87       1.0  0.06347  0.8635  0.012890000000000002  1.0000
  C   C88       1.0  0.24145999999999995  0.88196  0.15211  1.0000
  C   C89       1.0  0.21930000000000002  0.84545  0.21089000000000005  1.0000
  C   C90       1.0  0.15634999999999993  0.8980799999999998  0.25203  1.0000
  C   C91       1.0  0.2298  0.75055  0.93572  1.0000
  C   C92       1.0  0.30546999999999996  0.64301  0.88474  1.0000
  C   C93       1.0  0.3695400000000001  0.7366900000000001  0.9420000000000002  1.0000
  C   C94       1.0  0.35911  0.9131199999999998  0.03496  1.0000
  C   C95       1.0  0.3707500000000001  0.9474099999999998  0.969  1.0000
  C   C96       1.0  0.39899  0.060549999999999986  0.03088  1.0000
  N   N1        1.0  0.83818  0.04646000000000001  0.35844  1.0000
  N   N2        1.0  0.94416  0.13578  0.54088  1.0000
  N   N3        1.0  0.97877  0.9119699999999997  0.38107  1.0000
  N   N4        1.0  0.9196699999999998  0.90261  0.47327  1.0000
  N   N5        1.0  0.5204  0.3122  0.35863  1.0000
  N   N6        1.0  0.59693  0.40506  0.54107  1.0000
  N   N7        1.0  0.4025499999999999  0.46918  0.38179  1.0000
  N   N8        1.0  0.55395  0.57091  0.47371  1.0000
  N   N9        1.0  0.9535899999999998  0.47968999999999995  0.64155  1.0000
  N   N10       1.0  0.86426  0.4031699999999999  0.45911000000000013  1.0000
  N   N11       1.0  0.08794000000000002  0.5975199999999998  0.61907  1.0000
  N   N12       1.0  0.09730000000000001  0.4460199999999999  0.52655  1.0000
  N   N13       1.0  0.68782  0.16145000000000007  0.64152  1.0000
  N   N14       1.0  0.5950199999999999  0.05567000000000003  0.45903000000000005  1.0000
  N   N15       1.0  0.5309  0.020559999999999974  0.61819  1.0000
  N   N16       1.0  0.42914999999999986  0.08001999999999995  0.5263  1.0000
  N   N17       1.0  0.91144  0.9378099999999998  0.14151  1.0000
  N   N18       1.0  0.80567  0.8450099999999998  0.95902  1.0000
  N   N19       1.0  0.7705299999999998  0.7809  0.11816000000000003  1.0000
  N   N20       1.0  0.8300099999999998  0.67915  0.02629  1.0000
  N   N21       1.0  0.22969999999999993  0.20358999999999997  0.14155  1.0000
  N   N22       1.0  0.15317999999999998  0.11426  0.95912  1.0000
  N   N23       1.0  0.34753  0.33795  0.1191  1.0000
  N   N24       1.0  0.19602  0.3473  0.02656  1.0000
  N   N25       1.0  0.79646  0.08818000000000002  0.8584400000000001  1.0000
  N   N26       1.0  0.8857899999999997  0.19417  0.04088  1.0000
  N   N27       1.0  0.6619799999999998  0.22879  0.8811  1.0000
  N   N28       1.0  0.65262  0.16967  0.97328  1.0000
  N   N29       1.0  0.06219000000000004  0.7704000000000001  0.8586300000000001  1.0000
  N   N30       1.0  0.15507  0.84693  0.04107  1.0000
  N   N31       1.0  0.21916999999999995  0.65254  0.88176  1.0000
  N   N32       1.0  0.3209099999999999  0.8039399999999998  0.9737000000000001  1.0000
  O   O1        1.0  0.16346  0.41145  0.76631  1.0000
  O   O2        1.0  0.03700999999999991  0.3633999999999999  0.77232  1.0000
  O   O3        1.0  0.77011  0.9648899999999997  0.62697  1.0000
  O   O4        1.0  0.63471  0.8303999999999998  0.4889  1.0000
  O   O5        1.0  0.6030300000000001  0.35519000000000006  0.7666300000000001  1.0000
  O   O6        1.0  0.7349199999999999  0.40801000000000004  0.7710700000000001  1.0000
  O   O7        1.0  0.8577399999999998  0.66168  0.62631  1.0000
  O   O8        1.0  0.8539499999999998  0.65846  0.4881  1.0000
  O   O9        1.0  0.58857  0.3976  0.23327000000000006  1.0000
  O   O10       1.0  0.6367599999999998  0.26545  0.22863000000000003  1.0000
  O   O11       1.0  0.03470000000000006  0.14225000000000002  0.37403000000000003  1.0000
  O   O12       1.0  0.17051999999999998  0.14574000000000004  0.51167  1.0000
  O   O13       1.0  0.64511  0.83652  0.2333  1.0000
  O   O14       1.0  0.59146  0.96357  0.22828000000000007  1.0000
  O   O15       1.0  0.3375799999999999  0.22996  0.37298  1.0000
  O   O16       1.0  0.34169  0.36555  0.51132  1.0000
  O   O17       1.0  0.58653  0.8951099999999997  0.73329  1.0000
  O   O18       1.0  0.7135999999999999  0.8414700000000002  0.7283100000000001  1.0000
  O   O19       1.0  0.97999  0.58759  0.87298  1.0000
  O   O20       1.0  0.11556  0.59169  0.01132  1.0000
  O   O21       1.0  0.14761000000000007  0.83857  0.73325  1.0000
  O   O22       1.0  0.015449999999999964  0.8867599999999998  0.72863  1.0000
  O   O23       1.0  0.8922499999999998  0.28470000000000006  0.87402  1.0000
  O   O24       1.0  0.89573  0.42051  0.011650000000000002  1.0000
  O   O25       1.0  0.16147  0.41346  0.26633  1.0000
  O   O26       1.0  0.11341000000000002  0.28702  0.27233  1.0000
  O   O27       1.0  0.71489  0.02013999999999999  0.12699  1.0000
  O   O28       1.0  0.58042  0.8847199999999997  0.9889  1.0000
  O   O29       1.0  0.10519000000000003  0.8530199999999999  0.26661  1.0000
  O   O30       1.0  0.15801  0.98491  0.27106  1.0000
  O   O31       1.0  0.41167  0.10773999999999997  0.1263  1.0000
  O   O32       1.0  0.40846000000000005  0.10394000000000003  0.9881000000000001  1.0000
