data_image0
_chemical_formula_structural       Ag12H96C192N48
_chemical_formula_sum              "Ag12 H96 C192 N48"
_cell_length_a       19.86794
_cell_length_b       19.86779
_cell_length_c       19.86768
_cell_angle_alpha    108.49005999999999
_cell_angle_beta     108.49654999999998
_cell_angle_gamma    108.49644

_space_group_name_H-M_alt    "P 1"
_space_group_IT_number       1

loop_
  _space_group_symop_operation_xyz
  'x, y, z'

loop_
  _atom_site_type_symbol
  _atom_site_label
  _atom_site_symmetry_multiplicity
  _atom_site_fract_x
  _atom_site_fract_y
  _atom_site_fract_z
  _atom_site_occupancy
  Ag  Ag1       1.0  0.37890000000000007  0.12627  0.18536  1.0000
  Ag  Ag2       1.0  0.70077  0.010769999999999993  0.2807  1.0000
  Ag  Ag3       1.0  0.18536000000000005  0.37889000000000006  0.12628  1.0000
  Ag  Ag4       1.0  0.2807000000000001  0.7007700000000002  0.01076  1.0000
  Ag  Ag5       1.0  0.12628000000000006  0.18535000000000001  0.3789  1.0000
  Ag  Ag6       1.0  0.010770000000000038  0.2806900000000001  0.70076  1.0000
  Ag  Ag7       1.0  0.6211100000000002  0.8737300000000001  0.81465  1.0000
  Ag  Ag8       1.0  0.2992400000000001  0.9892300000000003  0.71931  1.0000
  Ag  Ag9       1.0  0.81465  0.6211100000000002  0.87373  1.0000
  Ag  Ag10      1.0  0.71931  0.29923000000000005  0.9892400000000001  1.0000
  Ag  Ag11      1.0  0.87373  0.8146400000000001  0.6211  1.0000
  Ag  Ag12      1.0  0.9892400000000001  0.7193100000000001  0.29924  1.0000
  H   H1        1.0  0.7567600000000001  0.186  0.34639  1.0000
  H   H2        1.0  0.78881  0.3307  0.40087  1.0000
  H   H3        1.0  0.6794100000000001  0.36857  0.3649  1.0000
  H   H4        1.0  0.5371200000000003  0.26238000000000006  0.27643  1.0000
  H   H5        1.0  0.20779  0.014269999999999993  0.06775  1.0000
  H   H6        1.0  0.06634000000000012  0.9075800000000002  0.9724500000000001  1.0000
  H   H7        1.0  0.03584000000000002  0.76414  0.91121  1.0000
  H   H8        1.0  0.14540999999999998  0.72618  0.94675  1.0000
  H   H9        1.0  0.40152000000000015  0.6391000000000001  0.03368  1.0000
  H   H10       1.0  0.51013  0.60116  0.07863  1.0000
  H   H11       1.0  0.6502000000000001  0.7076100000000001  0.17749  1.0000
  H   H12       1.0  0.6821700000000003  0.85155  0.22944  1.0000
  H   H13       1.0  0.35755  0.03741000000000002  0.27949  1.0000
  H   H14       1.0  0.3267399999999999  0.96431  0.35675  1.0000
  H   H15       1.0  0.24272000000000013  0.9864600000000002  0.42178  1.0000
  H   H16       1.0  0.18729  0.0818  0.40993  1.0000
  H   H17       1.0  0.3463900000000001  0.75676  0.18599  1.0000
  H   H18       1.0  0.4008600000000001  0.7887900000000001  0.3307  1.0000
  H   H19       1.0  0.36490000000000017  0.6793900000000004  0.36857  1.0000
  H   H20       1.0  0.27643000000000006  0.53711  0.26238  1.0000
  H   H21       1.0  0.06775000000000002  0.20779000000000003  0.01427  1.0000
  H   H22       1.0  0.9724600000000001  0.06634  0.90759  1.0000
  H   H23       1.0  0.91122  0.035849999999999986  0.76415  1.0000
  H   H24       1.0  0.9467500000000002  0.14539999999999997  0.72617  1.0000
  H   H25       1.0  0.03368999999999999  0.40153  0.6391  1.0000
  H   H26       1.0  0.07862999999999999  0.51013  0.60115  1.0000
  H   H27       1.0  0.17749000000000004  0.6502  0.7076  1.0000
  H   H28       1.0  0.22945000000000002  0.68216  0.85155  1.0000
  H   H29       1.0  0.27948  0.3575500000000001  0.03741  1.0000
  H   H30       1.0  0.35675000000000007  0.32675  0.9643099999999999  1.0000
  H   H31       1.0  0.4217699999999999  0.24271999999999994  0.9864699999999998  1.0000
  H   H32       1.0  0.40993000000000007  0.18728  0.08181  1.0000
  H   H33       1.0  0.18601  0.34639  0.75676  1.0000
  H   H34       1.0  0.33071000000000017  0.40087000000000017  0.7888  1.0000
  H   H35       1.0  0.3685800000000001  0.3649000000000001  0.67941  1.0000
  H   H36       1.0  0.26239  0.27643  0.53713  1.0000
  H   H37       1.0  0.014279999999999996  0.06775  0.20779  1.0000
  H   H38       1.0  0.9075800000000002  0.97245  0.06635  1.0000
  H   H39       1.0  0.7641400000000002  0.91122  0.03585  1.0000
  H   H40       1.0  0.7261700000000001  0.9467500000000002  0.1454  1.0000
  H   H41       1.0  0.6391100000000001  0.03368000000000001  0.40153  1.0000
  H   H42       1.0  0.6011500000000001  0.07861999999999998  0.51012  1.0000
  H   H43       1.0  0.7076000000000002  0.17748000000000003  0.65019  1.0000
  H   H44       1.0  0.85155  0.22944000000000003  0.68217  1.0000
  H   H45       1.0  0.037410000000000006  0.27948  0.35755  1.0000
  H   H46       1.0  0.9643200000000001  0.35675  0.32674  1.0000
  H   H47       1.0  0.9864700000000001  0.42177  0.24271  1.0000
  H   H48       1.0  0.08181000000000004  0.40993  0.18728  1.0000
  H   H49       1.0  0.24325000000000002  0.814  0.65361  1.0000
  H   H50       1.0  0.2112  0.6693  0.59914  1.0000
  H   H51       1.0  0.3206  0.63143  0.6351  1.0000
  H   H52       1.0  0.46289  0.73762  0.72357  1.0000
  H   H53       1.0  0.7922200000000001  0.98573  0.93225  1.0000
  H   H54       1.0  0.93366  0.09242  0.02755  1.0000
  H   H55       1.0  0.9641600000000001  0.23586  0.08879  1.0000
  H   H56       1.0  0.8546000000000001  0.27382  0.05325  1.0000
  H   H57       1.0  0.5984800000000002  0.3609000000000001  0.96632  1.0000
  H   H58       1.0  0.48987000000000014  0.39884  0.92137  1.0000
  H   H59       1.0  0.34981  0.29239  0.82252  1.0000
  H   H60       1.0  0.31784000000000007  0.14845000000000003  0.77056  1.0000
  H   H61       1.0  0.64246  0.96259  0.72052  1.0000
  H   H62       1.0  0.6732600000000002  0.035689999999999986  0.64325  1.0000
  H   H63       1.0  0.7572900000000001  0.013539999999999984  0.57822  1.0000
  H   H64       1.0  0.81272  0.9182  0.59007  1.0000
  H   H65       1.0  0.65361  0.24324000000000004  0.81401  1.0000
  H   H66       1.0  0.5991400000000001  0.21121  0.66931  1.0000
  H   H67       1.0  0.63511  0.3206000000000001  0.63143  1.0000
  H   H68       1.0  0.7235800000000001  0.4628900000000001  0.73762  1.0000
  H   H69       1.0  0.9322500000000002  0.79221  0.98573  1.0000
  H   H70       1.0  0.02755000000000005  0.9336600000000002  0.09241  1.0000
  H   H71       1.0  0.08878  0.96415  0.23585  1.0000
  H   H72       1.0  0.053250000000000026  0.8546000000000001  0.27383  1.0000
  H   H73       1.0  0.9663200000000002  0.59847  0.3609  1.0000
  H   H74       1.0  0.9213800000000003  0.4898700000000001  0.39885  1.0000
  H   H75       1.0  0.8225200000000001  0.3498  0.2924  1.0000
  H   H76       1.0  0.7705600000000002  0.31783999999999996  0.14845  1.0000
  H   H77       1.0  0.7205200000000004  0.6424500000000001  0.9625899999999998  1.0000
  H   H78       1.0  0.6432600000000002  0.6732500000000001  0.03569  1.0000
  H   H79       1.0  0.57824  0.75728  0.01353  1.0000
  H   H80       1.0  0.59007  0.81272  0.9182  1.0000
  H   H81       1.0  0.814  0.65361  0.24324  1.0000
  H   H82       1.0  0.66929  0.5991300000000002  0.2112  1.0000
  H   H83       1.0  0.6314200000000001  0.6351  0.3206  1.0000
  H   H84       1.0  0.7376200000000003  0.7235700000000002  0.46288  1.0000
  H   H85       1.0  0.98573  0.9322400000000001  0.79221  1.0000
  H   H86       1.0  0.09242000000000003  0.027540000000000057  0.93365  1.0000
  H   H87       1.0  0.2358700000000001  0.08878000000000015  0.9641500000000001  1.0000
  H   H88       1.0  0.27383  0.05324999999999998  0.8546  1.0000
  H   H89       1.0  0.36089999999999994  0.96632  0.59847  1.0000
  H   H90       1.0  0.39886000000000005  0.92138  0.48988  1.0000
  H   H91       1.0  0.2924  0.82252  0.34981  1.0000
  H   H92       1.0  0.14844999999999997  0.77056  0.31784  1.0000
  H   H93       1.0  0.9625900000000004  0.72052  0.64245  1.0000
  H   H94       1.0  0.03568000000000001  0.64325  0.67326  1.0000
  H   H95       1.0  0.013530000000000044  0.57823  0.75729  1.0000
  H   H96       1.0  0.9182000000000001  0.59007  0.81272  1.0000
  C   C1        1.0  0.47368  0.02983999999999999  0.18127  1.0000
  C   C2        1.0  0.5364700000000001  0.008549999999999999  0.20144  1.0000
  C   C3        1.0  0.62995  0.14336  0.28036  1.0000
  C   C4        1.0  0.70989  0.20405  0.33141  1.0000
  C   C5        1.0  0.72712  0.28416  0.3614  1.0000
  C   C6        1.0  0.6651600000000002  0.30564000000000013  0.34151  1.0000
  C   C7        1.0  0.5859100000000002  0.24690000000000004  0.29213  1.0000
  C   C8        1.0  0.56679  0.16516000000000003  0.26072  1.0000
  C   C9        1.0  0.3736700000000001  0.8855200000000001  0.09502  1.0000
  C   C10       1.0  0.39122  0.96753  0.12766  1.0000
  C   C11       1.0  0.25575000000000003  0.9307600000000001  0.060219999999999996  1.0000
  C   C12       1.0  0.19280000000000005  0.95107  0.04065  1.0000
  C   C13       1.0  0.11459000000000007  0.8915400000000001  0.98792  1.0000
  C   C14       1.0  0.0970900000000001  0.8103400000000001  0.95351  1.0000
  C   C15       1.0  0.15788000000000008  0.7887600000000002  0.97273  1.0000
  C   C16       1.0  0.23779000000000008  0.8480500000000001  0.02639  1.0000
  C   C17       1.0  0.51816  0.9245300000000001  0.16991  1.0000
  C   C18       1.0  0.4379700000000001  0.8637  0.11578  1.0000
  C   C19       1.0  0.4798  0.76566  0.10694  1.0000
  C   C20       1.0  0.46312  0.68453  0.07644  1.0000
  C   C21       1.0  0.52388  0.6639600000000003  0.10169  1.0000
  C   C22       1.0  0.60289  0.7238900000000001  0.15732  1.0000
  C   C23       1.0  0.62112  0.80431  0.18697  1.0000
  C   C24       1.0  0.56043  0.82665  0.16295  1.0000
  C   C25       1.0  0.22576  0.20093  0.28758  1.0000
  C   C26       1.0  0.27487  0.18847  0.2512  1.0000
  C   C27       1.0  0.29106000000000004  0.101  0.30211  1.0000
  C   C28       1.0  0.32129  0.04684999999999999  0.30916  1.0000
  C   C29       1.0  0.30375  0.00635000000000001  0.35178  1.0000
  C   C30       1.0  0.25575  0.018779999999999998  0.38862  1.0000
  C   C31       1.0  0.22514000000000003  0.07172999999999997  0.38241  1.0000
  C   C32       1.0  0.24182000000000003  0.11336999999999997  0.33916  1.0000
  C   C33       1.0  0.18127000000000007  0.47368  0.02985  1.0000
  C   C34       1.0  0.20144000000000006  0.53647  0.00854  1.0000
  C   C35       1.0  0.2803600000000001  0.6299500000000002  0.14336  1.0000
  C   C36       1.0  0.33141  0.70989  0.20404  1.0000
  C   C37       1.0  0.36139  0.72711  0.28415  1.0000
  C   C38       1.0  0.34151  0.66515  0.30564  1.0000
  C   C39       1.0  0.29212000000000005  0.5859100000000002  0.2469  1.0000
  C   C40       1.0  0.26073  0.5668  0.16516  1.0000
  C   C41       1.0  0.09503000000000002  0.37367  0.88553  1.0000
  C   C42       1.0  0.12766000000000002  0.39122000000000007  0.9675299999999999  1.0000
  C   C43       1.0  0.06021999999999998  0.25575  0.93076  1.0000
  C   C44       1.0  0.040660000000000016  0.19280000000000003  0.95107  1.0000
  C   C45       1.0  0.9879300000000002  0.11458000000000007  0.89155  1.0000
  C   C46       1.0  0.9535100000000001  0.09708999999999998  0.81035  1.0000
  C   C47       1.0  0.9727300000000001  0.15787  0.78876  1.0000
  C   C48       1.0  0.02639000000000002  0.23779000000000003  0.84805  1.0000
  C   C49       1.0  0.16991000000000003  0.5181600000000001  0.92453  1.0000
  C   C50       1.0  0.11579000000000006  0.43797  0.86371  1.0000
  C   C51       1.0  0.10695  0.4798  0.76566  1.0000
  C   C52       1.0  0.07644000000000002  0.46312  0.68453  1.0000
  C   C53       1.0  0.10168999999999992  0.52389  0.66396  1.0000
  C   C54       1.0  0.15732000000000004  0.60289  0.72388  1.0000
  C   C55       1.0  0.18696999999999997  0.62112  0.8043  1.0000
  C   C56       1.0  0.16296000000000002  0.5604300000000001  0.82665  1.0000
  C   C57       1.0  0.28757  0.22575  0.20093  1.0000
  C   C58       1.0  0.2512  0.27487  0.18847  1.0000
  C   C59       1.0  0.30211000000000005  0.29106  0.101  1.0000
  C   C60       1.0  0.30915999999999993  0.32129  0.04685  1.0000
  C   C61       1.0  0.35177  0.30375  0.00634  1.0000
  C   C62       1.0  0.38861  0.25575  0.01879  1.0000
  C   C63       1.0  0.38240000000000013  0.22513000000000005  0.07174  1.0000
  C   C64       1.0  0.33915  0.24182  0.11337  1.0000
  C   C65       1.0  0.029850000000000054  0.18127000000000001  0.47368  1.0000
  C   C66       1.0  0.008550000000000016  0.2014400000000001  0.53647  1.0000
  C   C67       1.0  0.14337  0.28036  0.62995  1.0000
  C   C68       1.0  0.20406000000000013  0.33141  0.70989  1.0000
  C   C69       1.0  0.2841700000000001  0.3614000000000001  0.72712  1.0000
  C   C70       1.0  0.3056500000000001  0.34151  0.66516  1.0000
  C   C71       1.0  0.24691  0.29213  0.58592  1.0000
  C   C72       1.0  0.16517000000000004  0.26073  0.5668  1.0000
  C   C73       1.0  0.88552  0.09501999999999998  0.37367  1.0000
  C   C74       1.0  0.9675300000000003  0.12766000000000005  0.39122  1.0000
  C   C75       1.0  0.9307600000000001  0.06022  0.25576  1.0000
  C   C76       1.0  0.95108  0.040660000000000016  0.19281  1.0000
  C   C77       1.0  0.89155  0.98793  0.1146  1.0000
  C   C78       1.0  0.81035  0.9535100000000001  0.09709  1.0000
  C   C79       1.0  0.7887600000000002  0.9727200000000001  0.15788  1.0000
  C   C80       1.0  0.84805  0.026390000000000025  0.2378  1.0000
  C   C81       1.0  0.92454  0.1699  0.51816  1.0000
  C   C82       1.0  0.86371  0.11578  0.43797  1.0000
  C   C83       1.0  0.76567  0.10694000000000004  0.47980000000000006  1.0000
  C   C84       1.0  0.68454  0.07644  0.46312  1.0000
  C   C85       1.0  0.66396  0.10169000000000002  0.52388  1.0000
  C   C86       1.0  0.72389  0.15731  0.60288  1.0000
  C   C87       1.0  0.8043100000000001  0.18697000000000003  0.62112  1.0000
  C   C88       1.0  0.8266600000000001  0.16295  0.56043  1.0000
  C   C89       1.0  0.20093  0.28757  0.22575  1.0000
  C   C90       1.0  0.18847000000000003  0.2511900000000001  0.27487  1.0000
  C   C91       1.0  0.10100000000000002  0.3021  0.29106  1.0000
  C   C92       1.0  0.04685  0.30916  0.32129  1.0000
  C   C93       1.0  0.006360000000000009  0.3517700000000001  0.30375  1.0000
  C   C94       1.0  0.018799999999999997  0.38861  0.25574  1.0000
  C   C95       1.0  0.07174000000000005  0.38240000000000013  0.22513  1.0000
  C   C96       1.0  0.11337  0.33915  0.24182  1.0000
  C   C97       1.0  0.5263200000000001  0.9701500000000001  0.81873  1.0000
  C   C98       1.0  0.46354  0.99145  0.79856  1.0000
  C   C99       1.0  0.3700600000000001  0.8566400000000001  0.71964  1.0000
  C   C100      1.0  0.29012000000000004  0.79595  0.66859  1.0000
  C   C101      1.0  0.27288  0.7158400000000003  0.6386  1.0000
  C   C102      1.0  0.33485  0.69436  0.65849  1.0000
  C   C103      1.0  0.41409000000000007  0.7531  0.70788  1.0000
  C   C104      1.0  0.4332100000000001  0.8348400000000004  0.73928  1.0000
  C   C105      1.0  0.6263400000000002  0.11448  0.90498  1.0000
  C   C106      1.0  0.60878  0.03247000000000003  0.87234  1.0000
  C   C107      1.0  0.7442500000000001  0.06923999999999995  0.93978  1.0000
  C   C108      1.0  0.8072099999999998  0.048929999999999974  0.9593499999999999  1.0000
  C   C109      1.0  0.88542  0.10846000000000001  0.01208  1.0000
  C   C110      1.0  0.9029200000000001  0.18966  0.0465  1.0000
  C   C111      1.0  0.84213  0.21124  0.02728  1.0000
  C   C112      1.0  0.7622100000000003  0.15195000000000014  0.9736100000000001  1.0000
  C   C113      1.0  0.48185000000000006  0.07546  0.8301  1.0000
  C   C114      1.0  0.56203  0.13629  0.88422  1.0000
  C   C115      1.0  0.52021  0.23434000000000002  0.89306  1.0000
  C   C116      1.0  0.53689  0.31547000000000014  0.92356  1.0000
  C   C117      1.0  0.4761200000000001  0.33604000000000006  0.89831  1.0000
  C   C118      1.0  0.39712000000000003  0.2761100000000001  0.84269  1.0000
  C   C119      1.0  0.37888  0.19569000000000006  0.81303  1.0000
  C   C120      1.0  0.4395800000000002  0.17335000000000003  0.83705  1.0000
  C   C121      1.0  0.77425  0.7990699999999998  0.71243  1.0000
  C   C122      1.0  0.7251400000000001  0.81153  0.74881  1.0000
  C   C123      1.0  0.7089400000000001  0.899  0.69789  1.0000
  C   C124      1.0  0.6787200000000001  0.95315  0.69084  1.0000
  C   C125      1.0  0.6962600000000001  0.99365  0.64822  1.0000
  C   C126      1.0  0.74426  0.9812200000000001  0.61138  1.0000
  C   C127      1.0  0.77487  0.92827  0.6176  1.0000
  C   C128      1.0  0.7581800000000003  0.8866300000000001  0.66085  1.0000
  C   C129      1.0  0.81874  0.52632  0.9701599999999999  1.0000
  C   C130      1.0  0.7985700000000001  0.46353  0.99146  1.0000
  C   C131      1.0  0.7196400000000002  0.37005000000000005  0.85664  1.0000
  C   C132      1.0  0.6686  0.29011  0.79596  1.0000
  C   C133      1.0  0.6386100000000002  0.27289  0.71585  1.0000
  C   C134      1.0  0.6585  0.3348500000000001  0.69436  1.0000
  C   C135      1.0  0.70788  0.41409000000000007  0.7531  1.0000
  C   C136      1.0  0.73928  0.43320000000000003  0.83484  1.0000
  C   C137      1.0  0.9049800000000001  0.62633  0.11448  1.0000
  C   C138      1.0  0.87234  0.60878  0.03247  1.0000
  C   C139      1.0  0.9397900000000001  0.74425  0.06924  1.0000
  C   C140      1.0  0.95935  0.8072  0.04893  1.0000
  C   C141      1.0  0.012080000000000023  0.88541  0.10845  1.0000
  C   C142      1.0  0.04649000000000002  0.9029100000000001  0.18965  1.0000
  C   C143      1.0  0.027279999999999995  0.84213  0.21124  1.0000
  C   C144      1.0  0.9736100000000001  0.76221  0.15196  1.0000
  C   C145      1.0  0.8301000000000001  0.48184000000000005  0.07547  1.0000
  C   C146      1.0  0.88422  0.56203  0.1363  1.0000
  C   C147      1.0  0.89306  0.5202  0.23434  1.0000
  C   C148      1.0  0.92356  0.53688  0.31547  1.0000
  C   C149      1.0  0.89831  0.47611  0.33605  1.0000
  C   C150      1.0  0.84269  0.39710999999999996  0.27612  1.0000
  C   C151      1.0  0.8130300000000001  0.37888  0.1957  1.0000
  C   C152      1.0  0.83705  0.43957  0.17335  1.0000
  C   C153      1.0  0.71243  0.77424  0.79907  1.0000
  C   C154      1.0  0.74881  0.72513  0.81153  1.0000
  C   C155      1.0  0.6979  0.7089400000000002  0.89901  1.0000
  C   C156      1.0  0.6908500000000002  0.67871  0.95315  1.0000
  C   C157      1.0  0.6482300000000001  0.6962500000000001  0.9936600000000001  1.0000
  C   C158      1.0  0.6114000000000003  0.7442500000000002  0.9812100000000001  1.0000
  C   C159      1.0  0.6176  0.77487  0.92827  1.0000
  C   C160      1.0  0.66085  0.75818  0.88663  1.0000
  C   C161      1.0  0.9701599999999997  0.81873  0.52632  1.0000
  C   C162      1.0  0.99146  0.79856  0.46353  1.0000
  C   C163      1.0  0.85664  0.71964  0.37005  1.0000
  C   C164      1.0  0.7959500000000002  0.66859  0.29011  1.0000
  C   C165      1.0  0.71584  0.6386  0.27288  1.0000
  C   C166      1.0  0.6943500000000001  0.65849  0.33484  1.0000
  C   C167      1.0  0.7531  0.70787  0.41408  1.0000
  C   C168      1.0  0.8348400000000001  0.7392700000000002  0.4332  1.0000
  C   C169      1.0  0.11448000000000005  0.9049800000000001  0.62634  1.0000
  C   C170      1.0  0.032469999999999964  0.8723400000000001  0.60878  1.0000
  C   C171      1.0  0.06923999999999998  0.93978  0.74425  1.0000
  C   C172      1.0  0.04893000000000002  0.95934  0.8072  1.0000
  C   C173      1.0  0.10845999999999997  0.012069999999999999  0.88541  1.0000
  C   C174      1.0  0.18966000000000005  0.04649000000000006  0.90291  1.0000
  C   C175      1.0  0.21125000000000002  0.027270000000000003  0.84213  1.0000
  C   C176      1.0  0.15196000000000004  0.9736100000000001  0.76221  1.0000
  C   C177      1.0  0.07546999999999998  0.8301  0.48185  1.0000
  C   C178      1.0  0.1363  0.8842200000000001  0.56203  1.0000
  C   C179      1.0  0.2343400000000001  0.89306  0.5202  1.0000
  C   C180      1.0  0.31547  0.92356  0.53688  1.0000
  C   C181      1.0  0.33605000000000007  0.8983100000000002  0.47612  1.0000
  C   C182      1.0  0.2761100000000002  0.8426900000000003  0.39712  1.0000
  C   C183      1.0  0.19570000000000012  0.8130300000000003  0.37888  1.0000
  C   C184      1.0  0.1733500000000001  0.83705  0.43957  1.0000
  C   C185      1.0  0.79907  0.7124300000000001  0.77425  1.0000
  C   C186      1.0  0.81153  0.74881  0.72514  1.0000
  C   C187      1.0  0.8990100000000002  0.6978900000000001  0.70894  1.0000
  C   C188      1.0  0.95315  0.6908400000000002  0.67871  1.0000
  C   C189      1.0  0.9936500000000001  0.64823  0.69626  1.0000
  C   C190      1.0  0.98121  0.61139  0.74426  1.0000
  C   C191      1.0  0.9282700000000003  0.6176000000000001  0.77487  1.0000
  C   C192      1.0  0.88664  0.66085  0.75818  1.0000
  N   N1        1.0  0.6132000000000001  0.06432999999999998  0.25017  1.0000
  N   N2        1.0  0.4883700000000001  0.10683000000000002  0.21131  1.0000
  N   N3        1.0  0.33338000000000007  0.9896600000000001  0.11081  1.0000
  N   N4        1.0  0.29807  0.82681  0.04568  1.0000
  N   N5        1.0  0.4191600000000001  0.7857000000000001  0.08375  1.0000
  N   N6        1.0  0.5784700000000002  0.9063100000000001  0.19335  1.0000
  N   N7        1.0  0.30792  0.14038  0.25931  1.0000
  N   N8        1.0  0.21002000000000004  0.16443000000000002  0.33142  1.0000
  N   N9        1.0  0.2501700000000001  0.6132000000000001  0.06432  1.0000
  N   N10       1.0  0.21131  0.48838000000000004  0.10683  1.0000
  N   N11       1.0  0.11080999999999998  0.33337  0.98966  1.0000
  N   N12       1.0  0.0456900000000001  0.29808000000000007  0.82682  1.0000
  N   N13       1.0  0.08375000000000009  0.41916000000000003  0.7857  1.0000
  N   N14       1.0  0.19336  0.57846  0.90631  1.0000
  N   N15       1.0  0.25931  0.3079100000000001  0.14037  1.0000
  N   N16       1.0  0.33141  0.21002  0.16444  1.0000
  N   N17       1.0  0.06433000000000005  0.2501700000000001  0.6132  1.0000
  N   N18       1.0  0.10682999999999998  0.21130999999999997  0.4883799999999999  1.0000
  N   N19       1.0  0.9896600000000001  0.11081000000000002  0.33338  1.0000
  N   N20       1.0  0.82682  0.045680000000000005  0.29807  1.0000
  N   N21       1.0  0.7857  0.08375  0.41917  1.0000
  N   N22       1.0  0.9063200000000001  0.19335  0.57846  1.0000
  N   N23       1.0  0.14038  0.25931  0.30792  1.0000
  N   N24       1.0  0.16443000000000005  0.33141  0.21002  1.0000
  N   N25       1.0  0.38681000000000015  0.9356700000000002  0.74983  1.0000
  N   N26       1.0  0.5116300000000001  0.89317  0.7887  1.0000
  N   N27       1.0  0.66663  0.010339999999999985  0.88919  1.0000
  N   N28       1.0  0.70193  0.17318000000000008  0.95432  1.0000
  N   N29       1.0  0.58084  0.2143  0.91626  1.0000
  N   N30       1.0  0.4215400000000001  0.09369000000000006  0.80665  1.0000
  N   N31       1.0  0.6920900000000002  0.8596200000000003  0.74069  1.0000
  N   N32       1.0  0.7899800000000002  0.8355700000000004  0.66859  1.0000
  N   N33       1.0  0.7498400000000002  0.3868000000000001  0.93568  1.0000
  N   N34       1.0  0.7887  0.51162  0.89317  1.0000
  N   N35       1.0  0.88919  0.66663  0.01034  1.0000
  N   N36       1.0  0.95432  0.7019200000000002  0.17319  1.0000
  N   N37       1.0  0.91626  0.5808400000000002  0.21431  1.0000
  N   N38       1.0  0.8066500000000001  0.42154  0.09369  1.0000
  N   N39       1.0  0.74069  0.69208  0.85963  1.0000
  N   N40       1.0  0.6686  0.78998  0.83557  1.0000
  N   N41       1.0  0.9356800000000001  0.7498300000000001  0.3868  1.0000
  N   N42       1.0  0.89317  0.78869  0.51163  1.0000
  N   N43       1.0  0.010340000000000087  0.8891800000000001  0.66662  1.0000
  N   N44       1.0  0.17318999999999998  0.95432  0.70193  1.0000
  N   N45       1.0  0.21431000000000008  0.9162500000000001  0.58084  1.0000
  N   N46       1.0  0.09369000000000012  0.8066500000000003  0.42154  1.0000
  N   N47       1.0  0.8596300000000001  0.74069  0.69209  1.0000
  N   N48       1.0  0.83557  0.66859  0.78998  1.0000
