data_image0
_chemical_formula_structural       Eu8H72C168S12O72
_chemical_formula_sum              "Eu8 H72 C168 S12 O72"
_cell_length_a       15.46702
_cell_length_b       18.96554
_cell_length_c       30.517660000000003
_cell_angle_alpha    96.30982
_cell_angle_beta     89.98122
_cell_angle_gamma    114.14129

_symmetry_space_group_name_H-M    'P 1'
_symmetry_Int_Tables_number       1

loop_
  _symmetry_equiv_pos_as_xyz
  'x,y,z'

loop_
  _atom_site_type_symbol
  _atom_site_label
  _atom_site_symmetry_multiplicity
  _atom_site_fract_x
  _atom_site_fract_y
  _atom_site_fract_z
  _atom_site_occupancy
  Eu  Eu1       1.0  0.34647000000000006  0.58668  0.64604  1.0000
  Eu  Eu2       1.0  0.46372000000000013  0.82779  0.65646  1.0000
  Eu  Eu3       1.0  0.23874000000000006  0.5863799999999999  0.1473  1.0000
  Eu  Eu4       1.0  0.36279999999999996  0.82758  0.15558  1.0000
  Eu  Eu5       1.0  0.7609800000000002  0.4135  0.8537  1.0000
  Eu  Eu6       1.0  0.6363200000000002  0.17172  0.84364  1.0000
  Eu  Eu7       1.0  0.6534100000000003  0.41303  0.35408  1.0000
  Eu  Eu8       1.0  0.5363  0.1715  0.34325  1.0000
  H   H1        1.0  0.40565  0.82781  0.8094399999999998  1.0000
  H   H2        1.0  0.42139  0.60636  0.77803  1.0000
  H   H3        1.0  0.41292000000000006  0.5858299999999999  0.8575199999999997  1.0000
  H   H4        1.0  0.38735000000000014  0.5787  0.93392  1.0000
  H   H5        1.0  0.34006  0.80987  0.00672  1.0000
  H   H6        1.0  0.34724  0.5863399999999999  0.013069999999999997  1.0000
  H   H7        1.0  0.7409000000000002  0.84095  0.65421  1.0000
  H   H8        1.0  0.6461  0.59285  0.64815  1.0000
  H   H9        1.0  0.91005  0.8586999999999999  0.65332  1.0000
  H   H10       1.0  0.06237000000000004  0.85366  0.65039  1.0000
  H   H11       1.0  0.2074299999999999  0.8268499999999999  0.65081  1.0000
  H   H12       1.0  0.03856999999999995  0.58252  0.65248  1.0000
  H   H13       1.0  0.09027000000000006  0.33648  0.59834  1.0000
  H   H14       1.0  0.14593  0.39765  0.73889  1.0000
  H   H15       1.0  0.9880100000000005  0.29432  0.7526699999999997  1.0000
  H   H16       1.0  0.8322400000000002  0.18740999999999997  0.7535399999999998  1.0000
  H   H17       1.0  0.7045300000000002  0.06164  0.60041  1.0000
  H   H18       1.0  0.6786  0.07044  0.74123  1.0000
  H   H19       1.0  0.42241000000000006  0.82843  0.3091299999999999  1.0000
  H   H20       1.0  0.1850999999999999  0.6066099999999999  0.27825  1.0000
  H   H21       1.0  0.17380999999999994  0.5863199999999998  0.3578199999999999  1.0000
  H   H22       1.0  0.19217  0.57947  0.43387  1.0000
  H   H23       1.0  0.4693400000000002  0.81193  0.50696  1.0000
  H   H24       1.0  0.23963000000000007  0.5875299999999999  0.51308  1.0000
  H   H25       1.0  0.09924999999999998  0.8400799999999999  0.15412999999999993  1.0000
  H   H26       1.0  0.9445700000000002  0.59206  0.14822  1.0000
  H   H27       1.0  0.9481600000000001  0.85816  0.15315  1.0000
  H   H28       1.0  0.7915  0.85399  0.1503  1.0000
  H   H29       1.0  0.6198400000000001  0.82788  0.15118  1.0000
  H   H30       1.0  0.5422700000000003  0.58331  0.15267  1.0000
  H   H31       1.0  0.24453000000000005  0.33582  0.09888  1.0000
  H   H32       1.0  0.25164  0.3977299999999999  0.23945  1.0000
  H   H33       1.0  0.3065500000000001  0.29462  0.25318  1.0000
  H   H34       1.0  0.3556599999999999  0.18818  0.25393  1.0000
  H   H35       1.0  0.3559500000000001  0.06187  0.10073  1.0000
  H   H36       1.0  0.39228  0.07126  0.2415  1.0000
  H   H37       1.0  0.5788800000000002  0.17173999999999995  0.6908499999999997  1.0000
  H   H38       1.0  0.8148100000000003  0.3942800000000001  0.72199  1.0000
  H   H39       1.0  0.8266000000000003  0.41452999999999995  0.64239  1.0000
  H   H40       1.0  0.80788  0.4213  0.56608  1.0000
  H   H41       1.0  0.53166  0.18757  0.49332  1.0000
  H   H42       1.0  0.75975  0.41269  0.4869  1.0000
  H   H43       1.0  0.9001500000000002  0.15926  0.84579  1.0000
  H   H44       1.0  0.05457999999999999  0.40735  0.85153  1.0000
  H   H45       1.0  0.05139000000000002  0.14142000000000002  0.84681  1.0000
  H   H46       1.0  0.20813000000000004  0.14602999999999994  0.8493599999999998  1.0000
  H   H47       1.0  0.37992999999999993  0.17235999999999996  0.8490399999999998  1.0000
  H   H48       1.0  0.4573400000000001  0.41699999999999987  0.84814  1.0000
  H   H49       1.0  0.75504  0.66347  0.90139  1.0000
  H   H50       1.0  0.7476100000000002  0.60173  0.76076  1.0000
  H   H51       1.0  0.6932700000000003  0.70513  0.7472099999999998  1.0000
  H   H52       1.0  0.6443399999999999  0.8114699999999999  0.74646  1.0000
  H   H53       1.0  0.64347  0.93769  0.89961  1.0000
  H   H54       1.0  0.60811  0.92852  0.75879  1.0000
  H   H55       1.0  0.59462  0.17227  0.1907  1.0000
  H   H56       1.0  0.57914  0.39386  0.22192  1.0000
  H   H57       1.0  0.5869  0.4139  0.14232  1.0000
  H   H58       1.0  0.61266  0.42092  0.06594  1.0000
  H   H59       1.0  0.65812  0.18867  0.99332  1.0000
  H   H60       1.0  0.6528500000000003  0.41277  0.9868  1.0000
  H   H61       1.0  0.25895  0.15879999999999997  0.3457  1.0000
  H   H62       1.0  0.35389999999999994  0.40693999999999997  0.3518  1.0000
  H   H63       1.0  0.08987000000000003  0.1412  0.34664  1.0000
  H   H64       1.0  0.93761  0.14624  0.3497  1.0000
  H   H65       1.0  0.79255  0.17304  0.34916  1.0000
  H   H66       1.0  0.9614  0.41738000000000003  0.34755  1.0000
  H   H67       1.0  0.9093100000000002  0.66294  0.40166  1.0000
  H   H68       1.0  0.8536400000000001  0.6018699999999999  0.26107  1.0000
  H   H69       1.0  0.011599999999999954  0.70551  0.24737  1.0000
  H   H70       1.0  0.16681  0.8118  0.24643  1.0000
  H   H71       1.0  0.29533000000000004  0.93728  0.39956  1.0000
  H   H72       1.0  0.32074999999999987  0.9286299999999998  0.25866  1.0000
  C   C1        1.0  0.41641  0.72824  0.7414299999999999  1.0000
  C   C2        1.0  0.4144200000000001  0.71798  0.78935  1.0000
  C   C3        1.0  0.40730999999999995  0.7757299999999999  0.82046  1.0000
  C   C4        1.0  0.41722000000000015  0.6503000000000001  0.803  1.0000
  C   C5        1.0  0.40068999999999994  0.7625699999999999  0.86423  1.0000
  C   C6        1.0  0.4122200000000001  0.6387  0.84733  1.0000
  C   C7        1.0  0.4019100000000001  0.69458  0.87853  1.0000
  C   C8        1.0  0.38602999999999993  0.6902199999999998  0.9254699999999998  1.0000
  C   C9        1.0  0.37268  0.75483  0.94676  1.0000
  C   C10       1.0  0.3785500000000001  0.62939  0.94973  1.0000
  C   C11       1.0  0.35085000000000005  0.7601999999999999  0.9906  1.0000
  C   C12       1.0  0.35559  0.63341  0.99374  1.0000
  C   C13       1.0  0.34105000000000013  0.69777  0.0142  1.0000
  C   C14       1.0  0.31401  0.69926  0.06118999999999999  1.0000
  C   C15       1.0  0.58352  0.7082699999999997  0.6517099999999998  1.0000
  C   C16       1.0  0.6842100000000001  0.71656  0.65133  1.0000
  C   C17       1.0  0.75881  0.79098  0.65294  1.0000
  C   C18       1.0  0.70407  0.6502999999999999  0.64958  1.0000
  C   C19       1.0  0.8532300000000003  0.80079  0.65254  1.0000
  C   C20       1.0  0.7983700000000002  0.6613699999999999  0.65004  1.0000
  C   C21       1.0  0.8739  0.73533  0.65131  1.0000
  C   C22       1.0  0.9673700000000002  0.73263  0.65161  1.0000
  C   C23       1.0  0.05636000000000006  0.7946800000000002  0.65117  1.0000
  C   C24       1.0  0.9625  0.65694  0.65207  1.0000
  C   C25       1.0  0.13740000000000005  0.77981  0.65131  1.0000
  C   C26       1.0  0.042369999999999984  0.64105  0.6522  1.0000
  C   C27       1.0  0.13136  0.7040100000000001  0.65183  1.0000
  C   C28       1.0  0.22039  0.69071  0.65144  1.0000
  C   C29       1.0  0.21863  0.43689  0.66011  1.0000
  C   C30       1.0  0.1265  0.3729599999999999  0.6681  1.0000
  C   C31       1.0  0.06715  0.32659  0.63166  1.0000
  C   C32       1.0  0.09775999999999992  0.3610199999999999  0.71143  1.0000
  C   C33       1.0  0.9802400000000002  0.26928  0.63994  1.0000
  C   C34       1.0  0.009520000000000048  0.30317  0.7190299999999997  1.0000
  C   C35       1.0  0.9496500000000002  0.25624  0.6830099999999998  1.0000
  C   C36       1.0  0.8565200000000002  0.19063999999999995  0.68352  1.0000
  C   C37       1.0  0.818  0.15477999999999995  0.6407999999999998  1.0000
  C   C38       1.0  0.80586  0.16023  0.72011  1.0000
  C   C39       1.0  0.7336  0.08921  0.6334  1.0000
  C   C40       1.0  0.7199300000000002  0.09451  0.71338  1.0000
  C   C41       1.0  0.68455  0.05847999999999999  0.67053  1.0000
  C   C42       1.0  0.59685  0.98543  0.6638099999999998  1.0000
  C   C43       1.0  0.31133  0.72911  0.24151  1.0000
  C   C44       1.0  0.3037100000000001  0.71845  0.28937  1.0000
  C   C45       1.0  0.36903  0.77628  0.32032  1.0000
  C   C46       1.0  0.23351  0.65061  0.30311  1.0000
  C   C47       1.0  0.36287000000000014  0.76334  0.36413  1.0000
  C   C48       1.0  0.22732000000000013  0.6391300000000001  0.34745  1.0000
  C   C49       1.0  0.29371  0.69525  0.37849  1.0000
  C   C50       1.0  0.3051099999999999  0.6911099999999998  0.42543  1.0000
  C   C51       1.0  0.38281  0.75606  0.44673999999999997  1.0000
  C   C52       1.0  0.2515900000000001  0.63031  0.44969  1.0000
  C   C53       1.0  0.40943  0.76188  0.4907  1.0000
  C   C54       1.0  0.27834000000000003  0.63464  0.49375999999999987  1.0000
  C   C55       1.0  0.35667000000000004  0.6995099999999999  0.51433  1.0000
  C   C56       1.0  0.3857200000000001  0.70155  0.5613  1.0000
  C   C57       1.0  0.12312  0.70708  0.15171  1.0000
  C   C58       1.0  0.030889999999999977  0.71565  0.15128  1.0000
  C   C59       1.0  0.03121  0.79016  0.15284  1.0000
  C   C60       1.0  0.9443700000000003  0.6495399999999999  0.14952  1.0000
  C   C61       1.0  0.94682  0.80023  0.15235  1.0000
  C   C62       1.0  0.86128  0.66081  0.14988999999999994  1.0000
  C   C63       1.0  0.8603500000000002  0.73493  0.15109  1.0000
  C   C64       1.0  0.7644200000000001  0.7327799999999999  0.1515  1.0000
  C   C65       1.0  0.73807  0.79508  0.15118  1.0000
  C   C66       1.0  0.69306  0.65726  0.152  1.0000
  C   C67       1.0  0.64217  0.7805399999999999  0.15158  1.0000
  C   C68       1.0  0.5973800000000002  0.64172  0.15238  1.0000
  C   C69       1.0  0.5718200000000002  0.70483  0.15223999999999993  1.0000
  C   C70       1.0  0.46937000000000006  0.69139  0.15223999999999993  1.0000
  C   C71       1.0  0.21746000000000004  0.43649  0.16089  1.0000
  C   C72       1.0  0.24569  0.37268  0.1687  1.0000
  C   C73       1.0  0.25825  0.32624  0.1322  1.0000
  C   C74       1.0  0.2629899999999999  0.3610199999999999  0.21201  1.0000
  C   C75       1.0  0.2879700000000001  0.26911  0.14047  1.0000
  C   C76       1.0  0.29348000000000013  0.30333  0.21957  1.0000
  C   C77       1.0  0.30608000000000013  0.25637  0.18351  1.0000
  C   C78       1.0  0.33373  0.19094999999999998  0.18398  1.0000
  C   C79       1.0  0.33579  0.15487  0.14126  1.0000
  C   C80       1.0  0.3547  0.1609  0.22051999999999994  1.0000
  C   C81       1.0  0.3549  0.08956  0.13374  1.0000
  C   C82       1.0  0.37493  0.0953  0.21368999999999994  1.0000
  C   C83       1.0  0.3737  0.05905  0.17083  1.0000
  C   C84       1.0  0.3876000000000001  0.9857  0.16402  1.0000
  C   C85       1.0  0.68886  0.2716399999999999  0.7586199999999997  1.0000
  C   C86       1.0  0.69693  0.2821  0.7107299999999999  1.0000
  C   C87       1.0  0.6322700000000001  0.2239299999999999  0.6797099999999998  1.0000
  C   C88       1.0  0.7669400000000002  0.35007999999999995  0.6970299999999998  1.0000
  C   C89       1.0  0.6388399999999999  0.23673999999999998  0.63589  1.0000
  C   C90       1.0  0.77343  0.36149  0.65269  1.0000
  C   C91       1.0  0.7076300000000002  0.30504  0.62155  1.0000
  C   C92       1.0  0.69603  0.30913  0.57462  1.0000
  C   C93       1.0  0.6186000000000003  0.24389999999999998  0.55335  1.0000
  C   C94       1.0  0.74877  0.37015  0.55033  1.0000
  C   C95       1.0  0.5915400000000002  0.23781  0.50945  1.0000
  C   C96       1.0  0.72168  0.36551999999999996  0.50628  1.0000
  C   C97       1.0  0.64386  0.30018  0.4857399999999999  1.0000
  C   C98       1.0  0.6151800000000002  0.29742  0.43865  1.0000
  C   C99       1.0  0.8762000000000002  0.29239  0.8482099999999998  1.0000
  C   C100      1.0  0.96833  0.2837  0.84842  1.0000
  C   C101      1.0  0.9681300000000003  0.20922999999999994  0.8469299999999997  1.0000
  C   C102      1.0  0.05475000000000003  0.34984  0.8501  1.0000
  C   C103      1.0  0.05262999999999999  0.19929999999999998  0.84741  1.0000
  C   C104      1.0  0.13786000000000004  0.3386799999999999  0.8496699999999999  1.0000
  C   C105      1.0  0.13901999999999998  0.2646899999999999  0.8486199999999998  1.0000
  C   C106      1.0  0.23516000000000004  0.26728  0.84866  1.0000
  C   C107      1.0  0.26162  0.20503999999999994  0.8488999999999998  1.0000
  C   C108      1.0  0.30649000000000004  0.34296  0.84856  1.0000
  C   C109      1.0  0.35756  0.21969  0.84878  1.0000
  C   C110      1.0  0.4022500000000001  0.35856  0.84838  1.0000
  C   C111      1.0  0.42795  0.29547  0.8484399999999997  1.0000
  C   C112      1.0  0.5304300000000002  0.30874  0.84859  1.0000
  C   C113      1.0  0.7823500000000002  0.5631  0.83962  1.0000
  C   C114      1.0  0.7538100000000002  0.62672  0.8316  1.0000
  C   C115      1.0  0.7411100000000003  0.67308  0.86811  1.0000
  C   C116      1.0  0.7364400000000002  0.63841  0.78829  1.0000
  C   C117      1.0  0.71112  0.7301  0.85998  1.0000
  C   C118      1.0  0.70604  0.6962  0.78082  1.0000
  C   C119      1.0  0.6933200000000003  0.74306  0.81692  1.0000
  C   C120      1.0  0.66592  0.80858  0.81648  1.0000
  C   C121      1.0  0.6637  0.84458  0.85923  1.0000
  C   C122      1.0  0.64538  0.8387799999999997  0.7798899999999998  1.0000
  C   C123      1.0  0.64477  0.91  0.8666299999999998  1.0000
  C   C124      1.0  0.6253800000000003  0.90447  0.78663  1.0000
  C   C125      1.0  0.6263900000000002  0.94061  0.82949  1.0000
  C   C126      1.0  0.61245  0.013909999999999999  0.83612  1.0000
  C   C127      1.0  0.58479  0.27195  0.25859  1.0000
  C   C128      1.0  0.5861000000000002  0.28216  0.21067  1.0000
  C   C129      1.0  0.59267  0.22417  0.17958  1.0000
  C   C130      1.0  0.5830400000000002  0.34975999999999996  0.19698  1.0000
  C   C131      1.0  0.5984500000000003  0.2369  0.13576  1.0000
  C   C132      1.0  0.5875800000000002  0.36107999999999996  0.15261  1.0000
  C   C133      1.0  0.5974300000000002  0.30495  0.12142999999999997  1.0000
  C   C134      1.0  0.6132  0.30914  0.07449  1.0000
  C   C135      1.0  0.6261200000000002  0.24427000000000001  0.05326  1.0000
  C   C136      1.0  0.62115  0.37005  0.0502  1.0000
  C   C137      1.0  0.6477200000000003  0.23854  0.00941  1.0000
  C   C138      1.0  0.6440300000000002  0.36571  0.0062  1.0000
  C   C139      1.0  0.65762  0.3009099999999999  0.9857399999999997  1.0000
  C   C140      1.0  0.68418  0.2988799999999999  0.9387099999999999  1.0000
  C   C141      1.0  0.41646000000000005  0.29147999999999996  0.3482399999999999  1.0000
  C   C142      1.0  0.31575  0.28321  0.34858  1.0000
  C   C143      1.0  0.24112000000000003  0.20881999999999995  0.34697  1.0000
  C   C144      1.0  0.29592  0.34950999999999993  0.35041  1.0000
  C   C145      1.0  0.14673000000000005  0.19908  0.34742  1.0000
  C   C146      1.0  0.20164  0.33853999999999995  0.3500299999999999  1.0000
  C   C147      1.0  0.12610000000000002  0.2645799999999999  0.34874  1.0000
  C   C148      1.0  0.03262  0.26729  0.34848999999999997  1.0000
  C   C149      1.0  0.9436300000000002  0.20522999999999997  0.3489  1.0000
  C   C150      1.0  0.03752000000000002  0.34297999999999995  0.34802  1.0000
  C   C151      1.0  0.8625800000000002  0.22009999999999993  0.3487199999999999  1.0000
  C   C152      1.0  0.95763  0.35886999999999997  0.34786  1.0000
  C   C153      1.0  0.8686300000000002  0.29591  0.34819  1.0000
  C   C154      1.0  0.7795600000000004  0.30917999999999995  0.34855  1.0000
  C   C155      1.0  0.7808500000000002  0.5628599999999999  0.3399699999999999  1.0000
  C   C156      1.0  0.87308  0.6266  0.3319  1.0000
  C   C157      1.0  0.9324500000000002  0.67287  0.36835  1.0000
  C   C158      1.0  0.9017600000000002  0.63851  0.28854  1.0000
  C   C159      1.0  0.019349999999999968  0.73018  0.36012  1.0000
  C   C160      1.0  0.9899700000000005  0.69641  0.2809699999999999  1.0000
  C   C161      1.0  0.04980000000000003  0.74324  0.31703  1.0000
  C   C162      1.0  0.14287  0.80873  0.31647  1.0000
  C   C163      1.0  0.18157000000000006  0.84445  0.3592  1.0000
  C   C164      1.0  0.19339000000000012  0.83903  0.27983  1.0000
  C   C165      1.0  0.26609  0.90982  0.3665699999999999  1.0000
  C   C166      1.0  0.27941  0.90459  0.28652  1.0000
  C   C167      1.0  0.31491  0.94052  0.32939  1.0000
  C   C168      1.0  0.4023800000000001  0.01368000000000001  0.33608  1.0000
  S   S1        1.0  0.38315999999999995  0.8233999999999999  0.9091099999999998  1.0000
  S   S2        1.0  0.84197  0.58772  0.65087  1.0000
  S   S3        1.0  0.8943500000000002  0.20219  0.59926  1.0000
  S   S4        1.0  0.4415900000000001  0.82436  0.40902  1.0000
  S   S5        1.0  0.7433700000000002  0.58759  0.15078  1.0000
  S   S6        1.0  0.30723  0.20237  0.09983  1.0000
  S   S7        1.0  0.56064  0.17543  0.59101  1.0000
  S   S8        1.0  0.25550999999999996  0.41226999999999986  0.84932  1.0000
  S   S9        1.0  0.6929600000000002  0.79738  0.9007699999999997  1.0000
  S   S10       1.0  0.61556  0.1758  0.09092  1.0000
  S   S11       1.0  0.15804  0.4122399999999999  0.34929  1.0000
  S   S12       1.0  0.10534999999999996  0.79735  0.40081  1.0000
  O   O1        1.0  0.4363500000000001  0.79618  0.7312  1.0000
  O   O2        1.0  0.39837  0.66827  0.71349  1.0000
  O   O3        1.0  0.46892  0.89456  0.91996  1.0000
  O   O4        1.0  0.29278  0.82861  0.9023  1.0000
  O   O5        1.0  0.3246800000000001  0.76443  0.08213  1.0000
  O   O6        1.0  0.28160000000000013  0.63525  0.07783  1.0000
  O   O7        1.0  0.5716  0.7708199999999997  0.6620699999999998  1.0000
  O   O8        1.0  0.5176900000000002  0.64069  0.6423  1.0000
  O   O9        1.0  0.81901  0.55326  0.69223  1.0000
  O   O10       1.0  0.8182700000000002  0.53607  0.60924  1.0000
  O   O11       1.0  0.2988700000000002  0.7502800000000001  0.65096  1.0000
  O   O12       1.0  0.21279  0.62135  0.65124  1.0000
  O   O13       1.0  0.24218  0.45018  0.62049  1.0000
  O   O14       1.0  0.27260000000000006  0.4818799999999999  0.69278  1.0000
  O   O15       1.0  0.9310199999999998  0.15005  0.57557  1.0000
  O   O16       1.0  0.85257  0.2429699999999999  0.5743099999999998  1.0000
  O   O17       1.0  0.5770599999999999  0.9433799999999999  0.62626  1.0000
  O   O18       1.0  0.5423199999999999  0.9612599999999999  0.69573  1.0000
  O   O19       1.0  0.3594400000000001  0.79673  0.23113  1.0000
  O   O20       1.0  0.26846000000000003  0.6688  0.2137  1.0000
  O   O21       1.0  0.4284100000000001  0.89611  0.41985  1.0000
  O   O22       1.0  0.53687  0.82864  0.40225  1.0000
  O   O23       1.0  0.44083  0.76645  0.58207  1.0000
  O   O24       1.0  0.35398  0.63706  0.57772  1.0000
  O   O25       1.0  0.19788000000000006  0.7695799999999999  0.16199999999999995  1.0000
  O   O26       1.0  0.12099000000000004  0.63941  0.14237  1.0000
  O   O27       1.0  0.731  0.55327  0.19219  1.0000
  O   O28       1.0  0.71482  0.53593  0.10915  1.0000
  O   O29       1.0  0.45057  0.75081  0.15101  1.0000
  O   O30       1.0  0.4074200000000001  0.62235  0.15317  1.0000
  O   O31       1.0  0.20824000000000006  0.45048  0.12134  1.0000
  O   O32       1.0  0.20738  0.48085  0.19349  1.0000
  O   O33       1.0  0.21875999999999998  0.15057  0.07563  1.0000
  O   O34       1.0  0.39084  0.24346999999999996  0.07552  1.0000
  O   O35       1.0  0.36327  0.9433  0.12659  1.0000
  O   O36       1.0  0.41914999999999997  0.9620299999999999  0.19567999999999997  1.0000
  O   O37       1.0  0.6405500000000002  0.20379999999999995  0.7688399999999997  1.0000
  O   O38       1.0  0.7313700000000001  0.33174  0.78652  1.0000
  O   O39       1.0  0.5751  0.10427  0.58015  1.0000
  O   O40       1.0  0.46504000000000006  0.17042  0.59775  1.0000
  O   O41       1.0  0.5619100000000002  0.23204  0.41784  1.0000
  O   O42       1.0  0.6454900000000002  0.36181  0.4221799999999999  1.0000
  O   O43       1.0  0.8013100000000002  0.22996999999999998  0.83801  1.0000
  O   O44       1.0  0.87872  0.36019  0.85764  1.0000
  O   O45       1.0  0.2690099999999999  0.44672999999999985  0.80794  1.0000
  O   O46       1.0  0.28184  0.46391  0.89098  1.0000
  O   O47       1.0  0.5491  0.24911999999999992  0.8489399999999998  1.0000
  O   O48       1.0  0.59258  0.37802  0.84873  1.0000
  O   O49       1.0  0.79174  0.54964  0.8793  1.0000
  O   O50       1.0  0.79244  0.51859  0.80705  1.0000
  O   O51       1.0  0.7824  0.8493199999999997  0.9242299999999999  1.0000
  O   O52       1.0  0.61049  0.75711  0.926  1.0000
  O   O53       1.0  0.6368300000000002  0.05674  0.8734  1.0000
  O   O54       1.0  0.5806000000000001  0.037070000000000006  0.80432  1.0000
  O   O55       1.0  0.5667  0.20424  0.26879  1.0000
  O   O56       1.0  0.60156  0.33166  0.28654  1.0000
  O   O57       1.0  0.52989  0.1045  0.08009999999999998  1.0000
  O   O58       1.0  0.7061800000000003  0.17097  0.09773  1.0000
  O   O59       1.0  0.67213  0.23346  0.91783  1.0000
  O   O60       1.0  0.71803  0.36326  0.92229  1.0000
  O   O61       1.0  0.42856  0.22898  0.3379299999999999  1.0000
  O   O62       1.0  0.4821800000000001  0.35909  0.35771  1.0000
  O   O63       1.0  0.18102000000000001  0.44680999999999993  0.30799  1.0000
  O   O64       1.0  0.1816700000000001  0.46388  0.3909299999999999  1.0000
  O   O65       1.0  0.70113  0.24963  0.34899999999999987  1.0000
  O   O66       1.0  0.7871700000000003  0.37856  0.34877  1.0000
  O   O67       1.0  0.7577  0.54966  0.3796299999999999  1.0000
  O   O68       1.0  0.7266800000000002  0.51806  0.30733  1.0000
  O   O69       1.0  0.06891  0.84978  0.42437999999999987  1.0000
  O   O70       1.0  0.14722  0.75683  0.42592  1.0000
  O   O71       1.0  0.41986  0.056949999999999994  0.37321  1.0000
  O   O72       1.0  0.4584400000000001  0.03634  0.30454  1.0000
