data_image0
_chemical_formula_structural       Co12H114C150N18O48
_chemical_formula_sum              "Co12 H114 C150 N18 O48"
_cell_length_a       15.80191
_cell_length_b       15.796609999999998
_cell_length_c       21.51559
_cell_angle_alpha    90.02144
_cell_angle_beta     89.98601999999998
_cell_angle_gamma    119.99674

_symmetry_space_group_name_H-M    'P 1'
_symmetry_Int_Tables_number       1

loop_
  _symmetry_equiv_pos_as_xyz
  'x,y,z'

loop_
  _atom_site_type_symbol
  _atom_site_label
  _atom_site_symmetry_multiplicity
  _atom_site_fract_x
  _atom_site_fract_y
  _atom_site_fract_z
  _atom_site_occupancy
  Co  Co1       1.0  0.44812000000000024  0.2985600000000001  0.09564  1.0000
  Co  Co2       1.0  0.5136600000000002  0.4874800000000001  0.19369  1.0000
  Co  Co3       1.0  0.70137  0.15  0.4296400000000001  1.0000
  Co  Co4       1.0  0.5124200000000001  0.02668  0.52738  1.0000
  Co  Co5       1.0  0.85001  0.55109  0.76183  1.0000
  Co  Co6       1.0  0.9729100000000003  0.4857600000000001  0.8601100000000002  1.0000
  Co  Co7       1.0  0.55181  0.7013500000000003  0.5956400000000001  1.0000
  Co  Co8       1.0  0.48517000000000005  0.51271  0.69342  1.0000
  Co  Co9       1.0  0.2983200000000001  0.8502400000000002  0.92985  1.0000
  Co  Co10      1.0  0.4872100000000001  0.97281  0.02737  1.0000
  Co  Co11      1.0  0.14988000000000012  0.4483900000000001  0.2633  1.0000
  Co  Co12      1.0  0.026680000000000093  0.5139300000000001  0.36102  1.0000
  H   H1        1.0  0.5247200000000002  0.33471  0.56165  1.0000
  H   H2        1.0  0.54887  0.55492  0.43431000000000003  1.0000
  H   H3        1.0  0.6043  0.3279900000000001  0.37142  1.0000
  H   H4        1.0  0.61393  0.5584900000000002  0.32657  1.0000
  H   H5        1.0  0.6335200000000002  0.46318  0.30101000000000006  1.0000
  H   H6        1.0  0.39775  0.29013000000000005  0.32812  1.0000
  H   H7        1.0  0.50056  0.30822  0.28375  1.0000
  H   H8        1.0  0.4639700000000001  0.54013  0.33433  1.0000
  H   H9        1.0  0.3819800000000002  0.41871000000000014  0.3594  1.0000
  H   H10       1.0  0.3039900000000002  0.35926000000000013  0.09356  1.0000
  H   H11       1.0  0.1269500000000001  0.29266000000000003  0.08322  1.0000
  H   H12       1.0  0.10000000000000003  0.00981  0.04739  1.0000
  H   H13       1.0  0.27884  0.08922000000000002  0.05829000000000001  1.0000
  H   H14       1.0  0.9517300000000002  0.02126  0.046680000000000006  1.0000
  H   H15       1.0  0.9783800000000002  0.22223000000000007  0.08221  1.0000
  H   H16       1.0  0.8378600000000003  0.24067000000000005  0.07026  1.0000
  H   H17       1.0  0.6582600000000003  0.16657000000000005  0.05522  1.0000
  H   H18       1.0  0.61786  0.8866600000000002  0.05065  1.0000
  H   H19       1.0  0.7954400000000003  0.9479400000000002  0.0647  1.0000
  H   H20       1.0  0.6651600000000002  0.19101000000000007  0.89531  1.0000
  H   H21       1.0  0.44545  0.99335  0.7684100000000001  1.0000
  H   H22       1.0  0.67183  0.27534  0.70457  1.0000
  H   H23       1.0  0.44207  0.05513  0.65973  1.0000
  H   H24       1.0  0.5377  0.17020000000000005  0.6348400000000001  1.0000
  H   H25       1.0  0.7101400000000002  0.10604000000000002  0.6615800000000001  1.0000
  H   H26       1.0  0.6929200000000002  0.19199  0.6179300000000001  1.0000
  H   H27       1.0  0.45989  0.92315  0.66663  1.0000
  H   H28       1.0  0.58088  0.96124  0.6917200000000001  1.0000
  H   H29       1.0  0.6406000000000002  0.9448300000000002  0.42712000000000006  1.0000
  H   H30       1.0  0.7073000000000004  0.8344100000000002  0.41656  1.0000
  H   H31       1.0  0.98993  0.09042  0.38077  1.0000
  H   H32       1.0  0.9103900000000003  0.18979  0.39187000000000005  1.0000
  H   H33       1.0  0.9786200000000003  0.9307500000000002  0.38007  1.0000
  H   H34       1.0  0.7777900000000003  0.7563500000000002  0.41554  1.0000
  H   H35       1.0  0.75946  0.59744  0.40364  1.0000
  H   H36       1.0  0.8335200000000003  0.49182  0.3887900000000001  1.0000
  H   H37       1.0  0.11340000000000004  0.73133  0.3840300000000001  1.0000
  H   H38       1.0  0.05202  0.84771  0.39787  1.0000
  H   H39       1.0  0.8081400000000002  0.4746900000000001  0.22839  1.0000
  H   H40       1.0  0.0059500000000000065  0.45148  0.10231000000000001  1.0000
  H   H41       1.0  0.7244400000000002  0.3960300000000001  0.0376  1.0000
  H   H42       1.0  0.94514  0.38658  0.99347  1.0000
  H   H43       1.0  0.8300500000000002  0.3667  0.9682200000000002  1.0000
  H   H44       1.0  0.8930200000000003  0.60285  0.9943700000000002  1.0000
  H   H45       1.0  0.8078600000000002  0.49961  0.9503200000000002  1.0000
  H   H46       1.0  0.07659000000000006  0.53654  0.00051  1.0000
  H   H47       1.0  0.03752999999999998  0.61881  0.02547  1.0000
  H   H48       1.0  0.05522000000000001  0.69562  0.7599600000000001  1.0000
  H   H49       1.0  0.16568  0.87279  0.74997  1.0000
  H   H50       1.0  0.9098900000000002  0.8997500000000002  0.71404  1.0000
  H   H51       1.0  0.8105000000000002  0.72077  0.7246600000000002  1.0000
  H   H52       1.0  0.06943  0.04795  0.7133500000000003  1.0000
  H   H53       1.0  0.24376000000000006  0.02153  0.74892  1.0000
  H   H54       1.0  0.40253000000000017  0.16205000000000003  0.7369100000000001  1.0000
  H   H55       1.0  0.50804  0.3416500000000001  0.7215300000000001  1.0000
  H   H56       1.0  0.26867000000000013  0.38213  0.71716  1.0000
  H   H57       1.0  0.15236000000000008  0.20449000000000006  0.73154  1.0000
  H   H58       1.0  0.47372000000000014  0.6649700000000001  0.06149000000000002  1.0000
  H   H59       1.0  0.45126  0.44532  0.9344600000000001  1.0000
  H   H60       1.0  0.3959300000000001  0.67213  0.8708500000000002  1.0000
  H   H61       1.0  0.38653  0.44154  0.82637  1.0000
  H   H62       1.0  0.36694  0.53683  0.80085  1.0000
  H   H63       1.0  0.6029600000000002  0.7093900000000002  0.82799  1.0000
  H   H64       1.0  0.50006  0.69207  0.78395  1.0000
  H   H65       1.0  0.53691  0.45972000000000013  0.8329800000000002  1.0000
  H   H66       1.0  0.6201600000000003  0.58112  0.8573000000000002  1.0000
  H   H67       1.0  0.69588  0.6408000000000003  0.5936900000000002  1.0000
  H   H68       1.0  0.8729000000000001  0.7073900000000002  0.58331  1.0000
  H   H69       1.0  0.8998500000000004  0.9902200000000002  0.54738  1.0000
  H   H70       1.0  0.72098  0.9107300000000002  0.55827  1.0000
  H   H71       1.0  0.04810000000000012  0.9786100000000002  0.54663  1.0000
  H   H72       1.0  0.02119000000000001  0.7776  0.58231  1.0000
  H   H73       1.0  0.16175  0.75907  0.5702800000000001  1.0000
  H   H74       1.0  0.3413100000000001  0.8330700000000002  0.55522  1.0000
  H   H75       1.0  0.3818100000000001  0.11307  0.5507700000000001  1.0000
  H   H76       1.0  0.20425000000000004  0.05180000000000001  0.56481  1.0000
  H   H77       1.0  0.3346000000000002  0.8085300000000001  0.39512  1.0000
  H   H78       1.0  0.55477  0.006460000000000001  0.26869  1.0000
  H   H79       1.0  0.32878000000000007  0.7244000000000003  0.20437  1.0000
  H   H80       1.0  0.5588500000000002  0.9453200000000003  0.16011000000000003  1.0000
  H   H81       1.0  0.4636400000000002  0.8302100000000002  0.13485  1.0000
  H   H82       1.0  0.2911500000000001  0.8934500000000002  0.16233  1.0000
  H   H83       1.0  0.3082100000000002  0.8079000000000002  0.11794000000000002  1.0000
  H   H84       1.0  0.54072  0.07733  0.16674000000000003  1.0000
  H   H85       1.0  0.41953  0.03869  0.19179  1.0000
  H   H86       1.0  0.3590100000000001  0.05501  0.9276000000000001  1.0000
  H   H87       1.0  0.29255  0.16558  0.9166100000000001  1.0000
  H   H88       1.0  0.009890000000000149  0.9096200000000002  0.88066  1.0000
  H   H89       1.0  0.08922000000000008  0.8101200000000001  0.8920600000000001  1.0000
  H   H90       1.0  0.021339999999999994  0.06945  0.87987  1.0000
  H   H91       1.0  0.2221500000000001  0.24371000000000007  0.9155300000000002  1.0000
  H   H92       1.0  0.24056000000000005  0.40281  0.9036800000000003  1.0000
  H   H93       1.0  0.16657000000000008  0.50838  0.88842  1.0000
  H   H94       1.0  0.8867100000000002  0.26891  0.8836600000000001  1.0000
  H   H95       1.0  0.9480000000000002  0.15254  0.8980500000000002  1.0000
  H   H96       1.0  0.19061000000000003  0.52553  0.72855  1.0000
  H   H97       1.0  0.9943900000000002  0.54846  0.60109  1.0000
  H   H98       1.0  0.27703  0.60444  0.53822  1.0000
  H   H99       1.0  0.05586  0.6136500000000001  0.49353  1.0000
  H   H100      1.0  0.17044999999999993  0.63306  0.46774  1.0000
  H   H101      1.0  0.10646999999999997  0.39647  0.49539000000000005  1.0000
  H   H102      1.0  0.19218000000000002  0.4994  0.45155000000000006  1.0000
  H   H103      1.0  0.9235700000000002  0.46371000000000007  0.5006  1.0000
  H   H104      1.0  0.9620400000000002  0.3812700000000001  0.52589  1.0000
  H   H105      1.0  0.9447500000000002  0.3039600000000001  0.26096  1.0000
  H   H106      1.0  0.83428  0.12694  0.24995000000000006  1.0000
  H   H107      1.0  0.09011000000000001  0.10015000000000003  0.21396  1.0000
  H   H108      1.0  0.18960000000000005  0.27899  0.22543000000000005  1.0000
  H   H109      1.0  0.9304400000000003  0.95177  0.21322000000000005  1.0000
  H   H110      1.0  0.7562600000000003  0.97842  0.24897000000000002  1.0000
  H   H111      1.0  0.59738  0.83821  0.23684  1.0000
  H   H112      1.0  0.49155000000000015  0.6586000000000001  0.22165  1.0000
  H   H113      1.0  0.7305800000000001  0.6175900000000002  0.21682000000000004  1.0000
  H   H114      1.0  0.84724  0.79514  0.23128000000000004  1.0000
  C   C1        1.0  0.5650500000000003  0.32167  0.46715  1.0000
  C   C2        1.0  0.5389500000000004  0.3647100000000001  0.5148300000000001  1.0000
  C   C3        1.0  0.53531  0.45030000000000003  0.50274  1.0000
  C   C4        1.0  0.55218  0.4886000000000001  0.4423  1.0000
  C   C5        1.0  0.57355  0.44342000000000004  0.39367  1.0000
  C   C6        1.0  0.5827300000000002  0.3619900000000001  0.40726  1.0000
  C   C7        1.0  0.58391  0.47915  0.32764000000000004  1.0000
  C   C8        1.0  0.44270000000000004  0.32734  0.28727  1.0000
  C   C9        1.0  0.3814200000000001  0.2862  0.22805  1.0000
  C   C10       1.0  0.4215800000000002  0.46356000000000014  0.31897000000000003  1.0000
  C   C11       1.0  0.3492800000000002  0.4601800000000001  0.27049  1.0000
  C   C12       1.0  0.57927  0.23504000000000005  0.47607000000000005  1.0000
  C   C13       1.0  0.51798  0.50494  0.5537500000000001  1.0000
  C   C14       1.0  0.2562500000000001  0.2827  0.0821  1.0000
  C   C15       1.0  0.15664  0.24430000000000004  0.07677  1.0000
  C   C16       1.0  0.09577000000000006  0.14391000000000004  0.06417  1.0000
  C   C17       1.0  0.14174000000000006  0.08782  0.05724000000000001  1.0000
  C   C18       1.0  0.2426800000000001  0.13201  0.06308  1.0000
  C   C19       1.0  0.99034  0.09836000000000002  0.059490000000000015  1.0000
  C   C20       1.0  0.93919  0.14483  0.07027  1.0000
  C   C21       1.0  0.8340800000000004  0.10122000000000003  0.06612  1.0000
  C   C22       1.0  0.7922000000000002  0.16177000000000005  0.06536  1.0000
  C   C23       1.0  0.6921700000000002  0.12123000000000002  0.05761  1.0000
  C   C24       1.0  0.6700200000000002  0.96441  0.05493  1.0000
  C   C25       1.0  0.7691300000000001  0.9996500000000001  0.062020000000000006  1.0000
  C   C26       1.0  0.6782800000000003  0.24359000000000006  0.80057  1.0000
  C   C27       1.0  0.63526  0.17477000000000006  0.84847  1.0000
  C   C28       1.0  0.54983  0.08522  0.8366300000000002  1.0000
  C   C29       1.0  0.51173  0.06309000000000001  0.77614  1.0000
  C   C30       1.0  0.55681  0.12930000000000003  0.72732  1.0000
  C   C31       1.0  0.6380100000000002  0.22018000000000001  0.74068  1.0000
  C   C32       1.0  0.5214  0.10427000000000003  0.6611900000000002  1.0000
  C   C33       1.0  0.6734200000000002  0.11481  0.62083  1.0000
  C   C34       1.0  0.71423  0.09537000000000002  0.56115  1.0000
  C   C35       1.0  0.5364500000000002  0.9572  0.6513600000000002  1.0000
  C   C36       1.0  0.54005  0.8889800000000002  0.6023300000000001  1.0000
  C   C37       1.0  0.76492  0.34472000000000014  0.8090900000000001  1.0000
  C   C38       1.0  0.49513  0.01356  0.8878700000000003  1.0000
  C   C39       1.0  0.71714  0.9736900000000003  0.41564000000000006  1.0000
  C   C40       1.0  0.7555800000000001  0.9124900000000001  0.4102100000000001  1.0000
  C   C41       1.0  0.8559300000000004  0.9520400000000002  0.39757  1.0000
  C   C42       1.0  0.9119600000000002  0.05411000000000001  0.39071  1.0000
  C   C43       1.0  0.8677200000000003  0.11083000000000003  0.39665000000000006  1.0000
  C   C44       1.0  0.90155  0.8921900000000003  0.39288000000000006  1.0000
  C   C45       1.0  0.8551800000000005  0.7945600000000003  0.40361  1.0000
  C   C46       1.0  0.89886  0.73307  0.39951000000000003  1.0000
  C   C47       1.0  0.8383400000000004  0.63062  0.39877  1.0000
  C   C48       1.0  0.8788700000000004  0.57109  0.39108  1.0000
  C   C49       1.0  0.035650000000000084  0.7057300000000001  0.38829  1.0000
  C   C50       1.0  0.00039999999999998815  0.76965  0.39531000000000005  1.0000
  C   C51       1.0  0.75613  0.43517  0.13357  1.0000
  C   C52       1.0  0.82461  0.46084000000000014  0.18165000000000003  1.0000
  C   C53       1.0  0.9139300000000004  0.46430000000000005  0.17013000000000003  1.0000
  C   C54       1.0  0.9362300000000002  0.44818000000000013  0.10971000000000002  1.0000
  C   C55       1.0  0.8703500000000003  0.4271000000000001  0.060690000000000015  1.0000
  C   C56       1.0  0.7795200000000001  0.4177500000000001  0.0738  1.0000
  C   C57       1.0  0.89576  0.4165400000000001  0.9946300000000001  1.0000
  C   C58       1.0  0.8848700000000003  0.55751  0.95363  1.0000
  C   C59       1.0  0.9046300000000002  0.61838  0.8941300000000001  1.0000
  C   C60       1.0  0.042280000000000054  0.5787500000000001  0.9850900000000002  1.0000
  C   C61       1.0  0.11067000000000007  0.65076  0.9363  1.0000
  C   C62       1.0  0.6550400000000003  0.4207300000000001  0.14198  1.0000
  C   C63       1.0  0.9850500000000004  0.4805100000000001  0.22163000000000002  1.0000
  C   C64       1.0  0.026410000000000097  0.7433700000000001  0.74856  1.0000
  C   C65       1.0  0.08765000000000006  0.8430600000000001  0.74343  1.0000
  C   C66       1.0  0.04815000000000008  0.9039400000000002  0.73084  1.0000
  C   C67       1.0  0.9461300000000004  0.8579700000000002  0.72386  1.0000
  C   C68       1.0  0.88941  0.75697  0.72953  1.0000
  C   C69       1.0  0.10795  0.009410000000000003  0.7261900000000002  1.0000
  C   C70       1.0  0.20553000000000005  0.06069  0.73698  1.0000
  C   C71       1.0  0.26694  0.16583  0.7328000000000001  1.0000
  C   C72       1.0  0.3693600000000002  0.20775000000000002  0.73195  1.0000
  C   C73       1.0  0.4288200000000002  0.30776  0.724  1.0000
  C   C74       1.0  0.2942400000000001  0.32994  0.72139  1.0000
  C   C75       1.0  0.23036000000000006  0.23082000000000005  0.72868  1.0000
  C   C76       1.0  0.4346200000000001  0.6784600000000002  0.9668100000000002  1.0000
  C   C77       1.0  0.46017  0.63523  0.01461  1.0000
  C   C78       1.0  0.46386000000000005  0.54965  0.00268  1.0000
  C   C79       1.0  0.4479000000000001  0.5116700000000001  0.94219  1.0000
  C   C80       1.0  0.427  0.55694  0.8934100000000001  1.0000
  C   C81       1.0  0.4175000000000001  0.63831  0.90683  1.0000
  C   C82       1.0  0.4165900000000001  0.5209  0.82744  1.0000
  C   C83       1.0  0.5577800000000003  0.67271  0.78712  1.0000
  C   C84       1.0  0.6188900000000003  0.71406  0.72787  1.0000
  C   C85       1.0  0.5790200000000002  0.53609  0.81727  1.0000
  C   C86       1.0  0.6502900000000003  0.53931  0.7679  1.0000
  C   C87       1.0  0.42037  0.76504  0.9760200000000001  1.0000
  C   C88       1.0  0.48047000000000006  0.49490000000000006  0.05390000000000001  1.0000
  C   C89       1.0  0.7436100000000002  0.71734  0.58219  1.0000
  C   C90       1.0  0.84321  0.75573  0.57684  1.0000
  C   C91       1.0  0.90406  0.85608  0.56417  1.0000
  C   C92       1.0  0.8581300000000003  0.9122100000000002  0.55726  1.0000
  C   C93       1.0  0.7572000000000002  0.86801  0.5631000000000002  1.0000
  C   C94       1.0  0.009459999999999996  0.90153  0.5594700000000001  1.0000
  C   C95       1.0  0.06050000000000015  0.8549800000000001  0.57032  1.0000
  C   C96       1.0  0.1656000000000001  0.8985400000000002  0.5662100000000001  1.0000
  C   C97       1.0  0.20745999999999995  0.83797  0.5654200000000001  1.0000
  C   C98       1.0  0.30748000000000003  0.87848  0.55765  1.0000
  C   C99       1.0  0.32968  0.03532  0.55505  1.0000
  C   C100      1.0  0.23057  9.999999999999999e-05  0.56213  1.0000
  C   C101      1.0  0.3216500000000001  0.7561100000000002  0.3003700000000001  1.0000
  C   C102      1.0  0.36464  0.82483  0.34831  1.0000
  C   C103      1.0  0.45020000000000016  0.9142900000000003  0.3366100000000001  1.0000
  C   C104      1.0  0.48847000000000024  0.9366300000000002  0.27620000000000006  1.0000
  C   C105      1.0  0.4435900000000002  0.8704600000000002  0.22733  1.0000
  C   C106      1.0  0.36225  0.77954  0.24054  1.0000
  C   C107      1.0  0.4795800000000001  0.89592  0.16134  1.0000
  C   C108      1.0  0.32764  0.88501  0.12134  1.0000
  C   C109      1.0  0.28608999999999996  0.90473  0.062280000000000016  1.0000
  C   C110      1.0  0.46413  0.04292  0.15145  1.0000
  C   C111      1.0  0.46013  0.11086000000000003  0.10232  1.0000
  C   C112      1.0  0.23494  0.65501  0.30901000000000006  1.0000
  C   C113      1.0  0.50484  0.98563  0.38795  1.0000
  C   C114      1.0  0.28254  0.026220000000000004  0.9159500000000002  1.0000
  C   C115      1.0  0.24421000000000007  0.08749000000000003  0.9103000000000002  1.0000
  C   C116      1.0  0.14391  0.04799000000000001  0.89751  1.0000
  C   C117      1.0  0.08783000000000003  0.9459  0.89069  1.0000
  C   C118      1.0  0.13194000000000008  0.8891000000000001  0.8968100000000001  1.0000
  C   C119      1.0  0.09839000000000005  0.10793000000000001  0.8927200000000001  1.0000
  C   C120      1.0  0.14478000000000002  0.20556000000000005  0.90355  1.0000
  C   C121      1.0  0.10118000000000003  0.26712  0.89942  1.0000
  C   C122      1.0  0.16170000000000007  0.36958000000000013  0.89865  1.0000
  C   C123      1.0  0.12120999999999997  0.4291  0.8906800000000001  1.0000
  C   C124      1.0  0.9644500000000001  0.2944900000000001  0.8879  1.0000
  C   C125      1.0  0.99964  0.23058  0.89524  1.0000
  C   C126      1.0  0.24418000000000012  0.5655100000000001  0.63404  1.0000
  C   C127      1.0  0.17494000000000018  0.5395500000000001  0.68166  1.0000
  C   C128      1.0  0.0856600000000001  0.5356900000000001  0.66947  1.0000
  C   C129      1.0  0.06410000000000005  0.5519700000000001  0.609  1.0000
  C   C130      1.0  0.13066  0.57324  0.56046  1.0000
  C   C131      1.0  0.22137999999999994  0.58271  0.57404  1.0000
  C   C132      1.0  0.10508000000000013  0.5835400000000001  0.49453  1.0000
  C   C133      1.0  0.11507000000000008  0.4417200000000001  0.45455  1.0000
  C   C134      1.0  0.09543  0.38109  0.3950500000000001  1.0000
  C   C135      1.0  0.9577300000000002  0.42126000000000013  0.48538  1.0000
  C   C136      1.0  0.8892900000000004  0.34913000000000005  0.43657  1.0000
  C   C137      1.0  0.34531  0.58032  0.64308  1.0000
  C   C138      1.0  0.013420000000000097  0.5188400000000001  0.72015  1.0000
  C   C139      1.0  0.9736000000000004  0.25630000000000003  0.24931  1.0000
  C   C140      1.0  0.91235  0.15668000000000007  0.24365000000000006  1.0000
  C   C141      1.0  0.9518400000000002  0.09584  0.23088  1.0000
  C   C142      1.0  0.05388000000000001  0.14186  0.22403  1.0000
  C   C143      1.0  0.11066000000000004  0.24280000000000002  0.23017000000000007  1.0000
  C   C144      1.0  0.8919700000000004  0.9903700000000002  0.22609000000000004  1.0000
  C   C145      1.0  0.7944100000000003  0.9392100000000002  0.23693000000000003  1.0000
  C   C146      1.0  0.7328300000000001  0.8340900000000002  0.23273000000000002  1.0000
  C   C147      1.0  0.6304400000000001  0.7923900000000003  0.23190000000000002  1.0000
  C   C148      1.0  0.57078  0.6924  0.22401000000000001  1.0000
  C   C149      1.0  0.70522  0.6699100000000002  0.22126  1.0000
  C   C150      1.0  0.7692600000000003  0.76899  0.22854000000000002  1.0000
  N   N1        1.0  0.49017000000000005  0.4354100000000001  0.29213  1.0000
  N   N2        1.0  0.29998  0.22816000000000006  0.07510000000000001  1.0000
  N   N3        1.0  0.63081  0.02365  0.051930000000000004  1.0000
  N   N4        1.0  0.56523  0.05456  0.62536  1.0000
  N   N5        1.0  0.77164  0.07198  0.4087700000000001  1.0000
  N   N6        1.0  0.9764500000000003  0.60724  0.3854700000000001  1.0000
  N   N7        1.0  0.94537  0.50993  0.9586500000000001  1.0000
  N   N8        1.0  0.9281800000000001  0.6996100000000001  0.7414400000000002  1.0000
  N   N9        1.0  0.3926500000000001  0.36915  0.7182200000000001  1.0000
  N   N10       1.0  0.5100700000000002  0.56459  0.79156  1.0000
  N   N11       1.0  0.69992  0.7719  0.57515  1.0000
  N   N12       1.0  0.3689  0.97607  0.55204  1.0000
  N   N13       1.0  0.4357000000000002  0.9455200000000002  0.12554  1.0000
  N   N14       1.0  0.2279900000000001  0.92793  0.9090700000000003  1.0000
  N   N15       1.0  0.023689999999999992  0.39295  0.8847500000000003  1.0000
  N   N16       1.0  0.05487999999999999  0.48971  0.45907000000000003  1.0000
  N   N17       1.0  0.07189000000000008  0.3000700000000001  0.24247  1.0000
  N   N18       1.0  0.6068100000000002  0.63089  0.21823  1.0000
  O   O1        1.0  0.42459  0.34137000000000006  0.17855  1.0000
  O   O2        1.0  0.30418  0.20809  0.22803000000000004  1.0000
  O   O3        1.0  0.3790300000000001  0.48359  0.21494000000000002  1.0000
  O   O4        1.0  0.26457  0.4355  0.29077  1.0000
  O   O5        1.0  0.63855  0.23170000000000004  0.43732  1.0000
  O   O6        1.0  0.53298  0.17353000000000005  0.51919  1.0000
  O   O7        1.0  0.48731  0.46242  0.6059  1.0000
  O   O8        1.0  0.53759  0.59179  0.5404100000000001  1.0000
  O   O9        1.0  0.65823  0.08356000000000002  0.51224  1.0000
  O   O10       1.0  0.7924400000000001  0.09654  0.55987  1.0000
  O   O11       1.0  0.51674  0.8958000000000002  0.54685  1.0000
  O   O12       1.0  0.56515  0.82908  0.62226  1.0000
  O   O13       1.0  0.76988  0.40638000000000013  0.76895  1.0000
  O   O14       1.0  0.8252600000000002  0.3612400000000001  0.85326  1.0000
  O   O15       1.0  0.53748  0.026180000000000005  0.9401400000000002  1.0000
  O   O16       1.0  0.40849  0.94579  0.8746700000000002  1.0000
  O   O17       1.0  0.9163500000000003  0.5750100000000002  0.8446500000000001  1.0000
  O   O18       1.0  0.9037700000000002  0.6956600000000001  0.8937800000000001  1.0000
  O   O19       1.0  0.10391  0.6209  0.8807400000000002  1.0000
  O   O20       1.0  0.17065000000000016  0.7356200000000003  0.9564300000000001  1.0000
  O   O21       1.0  0.59282  0.3615700000000001  0.10302000000000003  1.0000
  O   O22       1.0  0.6391700000000002  0.4667700000000001  0.18500000000000003  1.0000
  O   O23       1.0  0.9710999999999999  0.50847  0.2742  1.0000
  O   O24       1.0  0.05358000000000006  0.4628200000000001  0.20832000000000003  1.0000
  O   O25       1.0  0.5756600000000002  0.65906  0.6783600000000001  1.0000
  O   O26       1.0  0.6962400000000003  0.7921600000000002  0.7279400000000003  1.0000
  O   O27       1.0  0.62014  0.51628  0.7124  1.0000
  O   O28       1.0  0.7352400000000002  0.56405  0.78773  1.0000
  O   O29       1.0  0.3615500000000001  0.76898  0.93724  1.0000
  O   O30       1.0  0.46627000000000013  0.82614  0.01946  1.0000
  O   O31       1.0  0.5085200000000001  0.5369500000000001  0.10638  1.0000
  O   O32       1.0  0.46299  0.4087400000000001  0.04044  1.0000
  O   O33       1.0  0.3408700000000001  0.91621  0.01269  1.0000
  O   O34       1.0  0.20807000000000017  0.9040700000000003  0.06248  1.0000
  O   O35       1.0  0.4832400000000001  0.10394  0.04678  1.0000
  O   O36       1.0  0.43488  0.17071  0.12216000000000002  1.0000
  O   O37       1.0  0.23015999999999995  0.59316  0.26903000000000005  1.0000
  O   O38       1.0  0.17457000000000011  0.6387100000000002  0.35314000000000006  1.0000
  O   O39       1.0  0.4627000000000002  0.9717600000000002  0.44039000000000006  1.0000
  O   O40       1.0  0.59104  0.05427  0.3746300000000001  1.0000
  O   O41       1.0  0.08367000000000005  0.4250800000000001  0.34601  1.0000
  O   O42       1.0  0.09644999999999997  0.30395  0.39406000000000013  1.0000
  O   O43       1.0  0.8959000000000004  0.37913000000000013  0.38106000000000007  1.0000
  O   O44       1.0  0.8294400000000002  0.26419  0.45661000000000007  1.0000
  O   O45       1.0  0.40722  0.63726  0.60317  1.0000
  O   O46       1.0  0.36165  0.53667  0.6874700000000001  1.0000
  O   O47       1.0  0.025620000000000073  0.4895700000000001  0.7726500000000001  1.0000
  O   O48       1.0  0.94566  0.53735  0.70611  1.0000
