data_image0
_chemical_formula_structural       Cu6H128C156Br4N48
_chemical_formula_sum              "Cu6 H128 C156 Br4 N48"
_cell_length_a       14.98114
_cell_length_b       19.4256
_cell_length_c       23.49074
_cell_angle_alpha    90.28955
_cell_angle_beta     90.02349
_cell_angle_gamma    90.0436

_space_group_name_H-M_alt    "P 1"
_space_group_IT_number       1

loop_
  _space_group_symop_operation_xyz
  'x, y, z'

loop_
  _atom_site_type_symbol
  _atom_site_label
  _atom_site_symmetry_multiplicity
  _atom_site_fract_x
  _atom_site_fract_y
  _atom_site_fract_z
  _atom_site_occupancy
  Cu  Cu1       1.0  0.35534  0.79042  0.03776  1.0000
  Cu  Cu2       1.0  0.8553299999999998  0.71033  0.4623499999999999  1.0000
  Cu  Cu3       1.0  0.64461  0.20878000000000005  0.9618699999999998  1.0000
  Cu  Cu4       1.0  0.14444  0.2905  0.53811  1.0000
  Cu  Cu5       1.0  0.50573  0.0054  0.50252  1.0000
  Cu  Cu6       1.0  0.005479999999999999  0.49482  0.99764  1.0000
  H   H1        1.0  0.34251  0.80088  0.89854  1.0000
  H   H2        1.0  0.5402599999999997  0.86463  0.015029999999999996  1.0000
  H   H3        1.0  0.5803199999999997  0.9183400000000002  0.90854  1.0000
  H   H4        1.0  0.30612  0.88709  0.83126  1.0000
  H   H5        1.0  0.28818  0.9152700000000001  0.72991  1.0000
  H   H6        1.0  0.5756499999999998  0.9105  0.7085  1.0000
  H   H7        1.0  0.5925499999999998  0.88084  0.80995  1.0000
  H   H8        1.0  0.28522  0.89159  0.6383899999999999  1.0000
  H   H9        1.0  0.32126  0.93595  0.52849  1.0000
  H   H10       1.0  0.5461  0.9775900000000001  0.63117  1.0000
  H   H11       1.0  0.27981  0.75933  0.1574  1.0000
  H   H12       1.0  0.34997  0.6166000000000003  0.029659999999999995  1.0000
  H   H13       1.0  0.25111  0.54872  0.11243999999999998  1.0000
  H   H14       1.0  0.25551  0.71849  0.25107999999999997  1.0000
  H   H15       1.0  0.15059  0.7015  0.33149  1.0000
  H   H16       1.0  0.013079999999999998  0.54378  0.23593999999999998  1.0000
  H   H17       1.0  0.11814999999999999  0.5592600000000001  0.15628  1.0000
  H   H18       1.0  0.9838399999999998  0.72323  0.35130999999999996  1.0000
  H   H19       1.0  0.87714  0.5438300000000001  0.42475999999999997  1.0000
  H   H20       1.0  0.99959  0.50595  0.34066  1.0000
  H   H21       1.0  0.18316999999999997  0.72914  0.9608399999999999  1.0000
  H   H22       1.0  0.03759  0.81333  0.9390199999999999  1.0000
  H   H23       1.0  0.21377  0.9131300000000001  0.05412  1.0000
  H   H24       1.0  0.16392999999999994  0.010580000000000003  0.01281  1.0000
  H   H25       1.0  0.92937  0.8854100000000001  0.98357  1.0000
  H   H26       1.0  0.6933499999999998  0.14635  0.55768  1.0000
  H   H27       1.0  0.41557  0.12837  0.57969  1.0000
  H   H28       1.0  0.46069  0.26684  0.57964  1.0000
  H   H29       1.0  0.59417  0.32996  0.64151  1.0000
  H   H30       1.0  0.69168  0.43487000000000003  0.63489  1.0000
  H   H31       1.0  0.80898  0.3542800000000001  0.4806299999999999  1.0000
  H   H32       1.0  0.70834  0.25156  0.48603  1.0000
  H   H33       1.0  0.84299  0.6991600000000001  0.6015199999999999  1.0000
  H   H34       1.0  0.0405  0.63625  0.48475999999999997  1.0000
  H   H35       1.0  0.08128  0.5826  0.59117  1.0000
  H   H36       1.0  0.8070999999999998  0.61356  0.6686399999999999  1.0000
  H   H37       1.0  0.7890799999999998  0.5855200000000002  0.76999  1.0000
  H   H38       1.0  0.07657999999999998  0.58972  0.79147  1.0000
  H   H39       1.0  0.09358  0.6193300000000002  0.6900399999999999  1.0000
  H   H40       1.0  0.78587  0.60883  0.86127  1.0000
  H   H41       1.0  0.82101  0.56405  0.9710799999999998  1.0000
  H   H42       1.0  0.04648999999999998  0.52276  0.86898  1.0000
  H   H43       1.0  0.7799  0.74138  0.34267  1.0000
  H   H44       1.0  0.8491199999999998  0.8840600000000001  0.4707599999999999  1.0000
  H   H45       1.0  0.75112  0.95199  0.38765  1.0000
  H   H46       1.0  0.7559999999999999  0.78255  0.24872  1.0000
  H   H47       1.0  0.65043  0.79912  0.16846999999999998  1.0000
  H   H48       1.0  0.51285  0.95628  0.2643  1.0000
  H   H49       1.0  0.6185099999999998  0.94122  0.34376  1.0000
  H   H50       1.0  0.4829099999999999  0.7771800000000002  0.14865  1.0000
  H   H51       1.0  0.3774999999999999  0.9572200000000002  0.07557  1.0000
  H   H52       1.0  0.49992  0.9943200000000002  0.16009  1.0000
  H   H53       1.0  0.68286  0.7712  0.53883  1.0000
  H   H54       1.0  0.5374099999999998  0.68677  0.5606999999999999  1.0000
  H   H55       1.0  0.71397  0.5867600000000001  0.44622999999999996  1.0000
  H   H56       1.0  0.6637699999999999  0.4893  0.4873999999999999  1.0000
  H   H57       1.0  0.42953  0.61476  0.5160499999999999  1.0000
  H   H58       1.0  0.19391999999999995  0.35306000000000004  0.94293  1.0000
  H   H59       1.0  0.9161899999999997  0.37096  0.92023  1.0000
  H   H60       1.0  0.96135  0.23256  0.9199899999999999  1.0000
  H   H61       1.0  0.09433  0.16961  0.85862  1.0000
  H   H62       1.0  0.19184  0.06475  0.8650599999999999  1.0000
  H   H63       1.0  0.3097799999999999  0.14527000000000004  0.01924  1.0000
  H   H64       1.0  0.20920999999999995  0.24795000000000006  0.013959999999999997  1.0000
  H   H65       1.0  0.66054  0.19503000000000004  0.10106  1.0000
  H   H66       1.0  0.4583399999999999  0.13753  0.98549  1.0000
  H   H67       1.0  0.41705  0.08459  0.09210999999999998  1.0000
  H   H68       1.0  0.6944199999999998  0.10982  0.16744  1.0000
  H   H69       1.0  0.71425  0.08296  0.26882  1.0000
  H   H70       1.0  0.4274199999999999  0.08961  0.29274999999999995  1.0000
  H   H71       1.0  0.40846  0.11815  0.19127999999999995  1.0000
  H   H72       1.0  0.72067  0.10933  0.35863  1.0000
  H   H73       1.0  0.68955  0.06840000000000002  0.46969999999999995  1.0000
  H   H74       1.0  0.45906  0.025400000000000002  0.37243  1.0000
  H   H75       1.0  0.71845  0.24107  0.8416499999999999  1.0000
  H   H76       1.0  0.64816  0.38275  0.9701899999999998  1.0000
  H   H77       1.0  0.74726  0.45132  0.88789  1.0000
  H   H78       1.0  0.74282  0.28346  0.7479399999999998  1.0000
  H   H79       1.0  0.84873  0.30071  0.66808  1.0000
  H   H80       1.0  0.9876399999999999  0.45588000000000006  0.7656199999999997  1.0000
  H   H81       1.0  0.88132  0.44043  0.8446299999999999  1.0000
  H   H82       1.0  0.015269999999999997  0.27774  0.64862  1.0000
  H   H83       1.0  0.12266  0.45710000000000006  0.57561  1.0000
  H   H84       1.0  0.0016099999999999999  0.49492  0.6606699999999999  1.0000
  H   H85       1.0  0.81659  0.27072  0.03841  1.0000
  H   H86       1.0  0.9611499999999997  0.18571  0.0611  1.0000
  H   H87       1.0  0.78825  0.08833  0.94265  1.0000
  H   H88       1.0  0.83597  0.9896300000000001  0.9854099999999999  1.0000
  H   H89       1.0  0.07035999999999998  0.11468000000000003  0.015259999999999996  1.0000
  H   H90       1.0  0.29718  0.85131  0.4315499999999999  1.0000
  H   H91       1.0  0.57569  0.8759  0.4205799999999999  1.0000
  H   H92       1.0  0.5368  0.7364900000000001  0.42537  1.0000
  H   H93       1.0  0.4024299999999999  0.66883  0.35645999999999994  1.0000
  H   H94       1.0  0.30786  0.56262  0.36456999999999995  1.0000
  H   H95       1.0  0.19108  0.64319  0.51903  1.0000
  H   H96       1.0  0.28827  0.7476100000000001  0.51172  1.0000
  H   H97       1.0  0.16029999999999994  0.30427  0.39909999999999995  1.0000
  H   H98       1.0  0.9579999999999997  0.36146000000000006  0.51438  1.0000
  H   H99       1.0  0.9171499999999998  0.41492  0.4078899999999999  1.0000
  H   H100      1.0  0.19477  0.38914  0.33259  1.0000
  H   H101      1.0  0.21461999999999995  0.4160400000000001  0.23126  1.0000
  H   H102      1.0  0.9276499999999998  0.41020000000000006  0.20732  1.0000
  H   H103      1.0  0.9087199999999998  0.38157  0.30874  1.0000
  H   H104      1.0  0.22078999999999993  0.39086  0.14119  1.0000
  H   H105      1.0  0.18919  0.4325200000000001  0.03027  1.0000
  H   H106      1.0  0.95927  0.47467000000000004  0.12803  1.0000
  H   H107      1.0  0.21809  0.25854  0.65846  1.0000
  H   H108      1.0  0.14762  0.11685  0.52995  1.0000
  H   H109      1.0  0.24608  0.04821000000000001  0.61254  1.0000
  H   H110      1.0  0.24207  0.21609  0.75235  1.0000
  H   H111      1.0  0.34885  0.19932000000000002  0.8319799999999998  1.0000
  H   H112      1.0  0.48722  0.04435  0.73419  1.0000
  H   H113      1.0  0.3801499999999999  0.05936000000000001  0.65549  1.0000
  H   H114      1.0  0.51629  0.22231  0.8512899999999999  1.0000
  H   H115      1.0  0.62263  0.04226  0.9236899999999999  1.0000
  H   H116      1.0  0.50092  0.005179999999999999  0.8386899999999999  1.0000
  H   H117      1.0  0.31636  0.22928  0.46148999999999996  1.0000
  H   H118      1.0  0.46095  0.3144400000000001  0.43905  1.0000
  H   H119      1.0  0.28764  0.41166000000000014  0.55717  1.0000
  H   H120      1.0  0.3358199999999999  0.51055  0.51432  1.0000
  H   H121      1.0  0.56994  0.3852900000000001  0.4852999999999999  1.0000
  H   H122      1.0  0.7977199999999998  0.64938  0.06845  1.0000
  H   H123      1.0  0.07635  0.6258100000000001  0.07965  1.0000
  H   H124      1.0  0.036689999999999987  0.76518  0.07518999999999999  1.0000
  H   H125      1.0  0.9029299999999998  0.8325  0.1435  1.0000
  H   H126      1.0  0.80802  0.9384300000000001  0.13529  1.0000
  H   H127      1.0  0.6906399999999998  0.85704  0.9812499999999997  1.0000
  H   H128      1.0  0.7883799999999997  0.75298  0.9885499999999999  1.0000
  C   C1        1.0  0.40112  0.8247800000000001  0.91676  1.0000
  C   C2        1.0  0.50595  0.8579800000000001  0.9748799999999999  1.0000
  C   C3        1.0  0.52716  0.88484  0.92249  1.0000
  C   C4        1.0  0.4507  0.88098  0.82736  1.0000
  C   C5        1.0  0.36429  0.8898400000000001  0.80372  1.0000
  C   C6        1.0  0.3545  0.9056  0.74681  1.0000
  C   C7        1.0  0.43021999999999994  0.9136700000000001  0.71133  1.0000
  C   C8        1.0  0.51686  0.9058300000000001  0.73527  1.0000
  C   C9        1.0  0.52632  0.88912  0.79228  1.0000
  C   C10       1.0  0.3431499999999999  0.91653  0.6205999999999999  1.0000
  C   C11       1.0  0.3622799999999999  0.93831  0.5663299999999999  1.0000
  C   C12       1.0  0.4818699999999999  0.9583900000000001  0.6177  1.0000
  C   C13       1.0  0.28817  0.7116400000000002  0.13406  1.0000
  C   C14       1.0  0.32093  0.63638  0.06859  1.0000
  C   C15       1.0  0.27136  0.6019600000000002  0.10868  1.0000
  C   C16       1.0  0.19368  0.63988  0.19802999999999996  1.0000
  C   C17       1.0  0.20197999999999994  0.68094  0.24743999999999997  1.0000
  C   C18       1.0  0.14288  0.6718200000000001  0.29242  1.0000
  C   C19       1.0  0.07454  0.6224900000000002  0.28847  1.0000
  C   C20       1.0  0.06693  0.58105  0.23946  1.0000
  C   C21       1.0  0.12633  0.58968  0.19482  1.0000
  C   C22       1.0  0.9705  0.66991  0.36118999999999996  1.0000
  C   C23       1.0  0.91597  0.5756200000000001  0.39624999999999994  1.0000
  C   C24       1.0  0.97603  0.55571  0.3550399999999999  1.0000
  C   C25       1.0  0.16871999999999998  0.78032  0.97677  1.0000
  C   C26       1.0  0.09542  0.82094  0.96583  1.0000
  C   C27       1.0  0.18773999999999993  0.87445  0.025399999999999995  1.0000
  C   C28       1.0  0.05298  0.9406800000000001  0.9981899999999999  1.0000
  C   C29       1.0  0.09211  0.005940000000000001  0.00826  1.0000
  C   C30       1.0  0.96069  0.93551  0.9891999999999999  1.0000
  C   C31       1.0  0.62322  0.15776000000000004  0.56348  1.0000
  C   C32       1.0  0.4808  0.15193  0.57604  1.0000
  C   C33       1.0  0.50126  0.22094000000000003  0.57656  1.0000
  C   C34       1.0  0.6466  0.28474  0.5642199999999999  1.0000
  C   C35       1.0  0.6406  0.33613  0.60634  1.0000
  C   C36       1.0  0.6948899999999998  0.39478  0.60261  1.0000
  C   C37       1.0  0.7552299999999998  0.4001  0.5576899999999999  1.0000
  C   C38       1.0  0.7621899999999998  0.34909  0.51557  1.0000
  C   C39       1.0  0.7063499999999998  0.29125  0.5189  1.0000
  C   C40       1.0  0.90175  0.67565  0.5832599999999999  1.0000
  C   C41       1.0  0.00643  0.6428700000000002  0.52498  1.0000
  C   C42       1.0  0.027899999999999994  0.61594  0.57731  1.0000
  C   C43       1.0  0.9516899999999999  0.61962  0.6725999999999999  1.0000
  C   C44       1.0  0.86526  0.61085  0.69622  1.0000
  C   C45       1.0  0.85544  0.59507  0.75312  1.0000
  C   C46       1.0  0.93112  0.58685  0.7886299999999998  1.0000
  C   C47       1.0  0.01778  0.59454  0.7647  1.0000
  C   C48       1.0  0.027289999999999995  0.61127  0.70769  1.0000
  C   C49       1.0  0.84365  0.5838100000000002  0.8791499999999999  1.0000
  C   C50       1.0  0.86253  0.5620700000000001  0.93347  1.0000
  C   C51       1.0  0.9824  0.5421800000000001  0.8824  1.0000
  C   C52       1.0  0.78827  0.7890900000000002  0.36602  1.0000
  C   C53       1.0  0.82059  0.86435  0.43162  1.0000
  C   C54       1.0  0.77154  0.8987900000000002  0.39131  1.0000
  C   C55       1.0  0.6939299999999998  0.86075  0.30191  1.0000
  C   C56       1.0  0.70218  0.81973  0.25251  1.0000
  C   C57       1.0  0.64272  0.8286  0.20761  1.0000
  C   C58       1.0  0.5742499999999998  0.8777000000000001  0.21175999999999998  1.0000
  C   C59       1.0  0.5667099999999998  0.91911  0.26073999999999997  1.0000
  C   C60       1.0  0.62646  0.9107400000000001  0.30526  1.0000
  C   C61       1.0  0.47002  0.8306  0.13884999999999997  1.0000
  C   C62       1.0  0.41619  0.9251600000000001  0.10394999999999999  1.0000
  C   C63       1.0  0.47612  0.9447400000000001  0.14538  1.0000
  C   C64       1.0  0.6685799999999997  0.71991  0.52304  1.0000
  C   C65       1.0  0.5953  0.6792000000000001  0.53396  1.0000
  C   C66       1.0  0.68796  0.6255200000000001  0.47484  1.0000
  C   C67       1.0  0.5529799999999998  0.55935  0.50178  1.0000
  C   C68       1.0  0.59198  0.49404  0.4919299999999999  1.0000
  C   C69       1.0  0.46069  0.56461  0.5106  1.0000
  C   C70       1.0  0.12377999999999997  0.34171  0.9369999999999999  1.0000
  C   C71       1.0  0.9814  0.34748  0.92405  1.0000
  C   C72       1.0  0.0018599999999999999  0.27848000000000006  0.92337  1.0000
  C   C73       1.0  0.14716  0.2148  0.93584  1.0000
  C   C74       1.0  0.14081  0.16337  0.8937499999999998  1.0000
  C   C75       1.0  0.19527  0.10488000000000001  0.89733  1.0000
  C   C76       1.0  0.25576  0.09954  0.9421599999999999  1.0000
  C   C77       1.0  0.26275  0.15042000000000003  0.98441  1.0000
  C   C78       1.0  0.20710999999999993  0.20830000000000004  0.98107  1.0000
  C   C79       1.0  0.60056  0.17292  0.08311999999999999  1.0000
  C   C80       1.0  0.49346999999999996  0.14301000000000003  0.02547  1.0000
  C   C81       1.0  0.47168999999999994  0.11651000000000002  0.07791  1.0000
  C   C82       1.0  0.55007  0.1177  0.17262  1.0000
  C   C83       1.0  0.6368299999999999  0.1082  0.19553  1.0000
  C   C84       1.0  0.64772  0.09313  0.25247  1.0000
  C   C85       1.0  0.5727299999999997  0.08637  0.28877  1.0000
  C   C86       1.0  0.48568  0.09399000000000002  0.26548  1.0000
  C   C87       1.0  0.47508  0.11005  0.20837999999999995  1.0000
  C   C88       1.0  0.6632  0.08539  0.3779  1.0000
  C   C89       1.0  0.6461699999999998  0.06570000000000001  0.4329799999999999  1.0000
  C   C90       1.0  0.52389  0.04511  0.38435  1.0000
  C   C91       1.0  0.71014  0.28856  0.86529  1.0000
  C   C92       1.0  0.67718  0.3633  0.9311299999999999  1.0000
  C   C93       1.0  0.7267999999999998  0.39807000000000003  0.8912699999999999  1.0000
  C   C94       1.0  0.8052599999999998  0.3608  0.80196  1.0000
  C   C95       1.0  0.79693  0.32042  0.75216  1.0000
  C   C96       1.0  0.85662  0.32966000000000006  0.7074999999999999  1.0000
  C   C97       1.0  0.9255999999999998  0.37835000000000013  0.71214  1.0000
  C   C98       1.0  0.93334  0.41908000000000006  0.76157  1.0000
  C   C99       1.0  0.87323  0.41044000000000014  0.8058599999999998  1.0000
  C   C100      1.0  0.02902  0.33105  0.63905  1.0000
  C   C101      1.0  0.08393  0.42532  0.60421  1.0000
  C   C102      1.0  0.02464  0.44522  0.6458799999999999  1.0000
  C   C103      1.0  0.8314499999999998  0.21985000000000002  0.02195  1.0000
  C   C104      1.0  0.90411  0.17879000000000003  0.03346999999999999  1.0000
  C   C105      1.0  0.81344  0.12648000000000004  0.9721699999999999  1.0000
  C   C106      1.0  0.9469299999999998  0.05942000000000001  0.00036999999999999994  1.0000
  C   C107      1.0  0.90777  0.99419  0.99017  1.0000
  C   C108      1.0  0.03917  0.06457  0.00944  1.0000
  C   C109      1.0  0.3682799999999999  0.8417000000000001  0.42933999999999994  1.0000
  C   C110      1.0  0.51122  0.85082  0.42271  1.0000
  C   C111      1.0  0.49397  0.7812700000000001  0.42445  1.0000
  C   C112      1.0  0.35016  0.71425  0.43372999999999995  1.0000
  C   C113      1.0  0.35694  0.66237  0.39208  1.0000
  C   C114      1.0  0.30406999999999995  0.60302  0.39657999999999993  1.0000
  C   C115      1.0  0.24454  0.59733  0.44187  1.0000
  C   C116      1.0  0.23712999999999995  0.64861  0.4837  1.0000
  C   C117      1.0  0.29118  0.7073400000000002  0.47938999999999987  1.0000
  C   C118      1.0  0.1003  0.32631  0.41693  1.0000
  C   C119      1.0  0.99302  0.35597000000000006  0.4744  1.0000
  C   C120      1.0  0.97166  0.38289  0.42203999999999997  1.0000
  C   C121      1.0  0.05031  0.38185  0.32745  1.0000
  C   C122      1.0  0.13712  0.39111  0.30452  1.0000
  C   C123      1.0  0.148  0.40625000000000006  0.24760999999999997  1.0000
  C   C124      1.0  0.07302  0.41334  0.2113  1.0000
  C   C125      1.0  0.9859399999999998  0.4058  0.23458999999999997  1.0000
  C   C126      1.0  0.97536  0.3896600000000001  0.29164999999999996  1.0000
  C   C127      1.0  0.16322  0.41476  0.12204999999999999  1.0000
  C   C128      1.0  0.14607  0.43494000000000005  0.06711  1.0000
  C   C129      1.0  0.023999999999999994  0.45514  0.11594  1.0000
  C   C130      1.0  0.20955999999999997  0.21104  0.63488  1.0000
  C   C131      1.0  0.17647  0.13622  0.56909  1.0000
  C   C132      1.0  0.22569  0.10143  0.60913  1.0000
  C   C133      1.0  0.30441999999999997  0.13890000000000002  0.6982899999999999  1.0000
  C   C134      1.0  0.29632  0.17935  0.7480599999999997  1.0000
  C   C135      1.0  0.35644  0.17038  0.79254  1.0000
  C   C136      1.0  0.42549  0.12187000000000002  0.7877  1.0000
  C   C137      1.0  0.43291  0.08104  0.7383299999999999  1.0000
  C   C138      1.0  0.37243  0.08944000000000002  0.69423  1.0000
  C   C139      1.0  0.52953  0.16887000000000002  0.86074  1.0000
  C   C140      1.0  0.58387  0.07429  0.8953199999999999  1.0000
  C   C141      1.0  0.52429  0.05473  0.8536599999999998  1.0000
  C   C142      1.0  0.33103  0.28025  0.47783  1.0000
  C   C143      1.0  0.40373  0.32140000000000013  0.46648999999999996  1.0000
  C   C144      1.0  0.31282  0.37363  0.52759  1.0000
  C   C145      1.0  0.4466099999999999  0.44070000000000004  0.4997099999999999  1.0000
  C   C146      1.0  0.40761  0.50598  0.5096699999999998  1.0000
  C   C147      1.0  0.53887  0.43544  0.49086  1.0000
  C   C148      1.0  0.8688199999999999  0.6592400000000002  0.07065  1.0000
  C   C149      1.0  0.01179  0.65067  0.07752  1.0000
  C   C150      1.0  0.9941799999999997  0.72015  0.07591  1.0000
  C   C151      1.0  0.8502199999999998  0.78663  0.06648  1.0000
  C   C152      1.0  0.85712  0.83867  0.108  1.0000
  C   C153      1.0  0.80415  0.8978800000000001  0.10344  1.0000
  C   C154      1.0  0.74443  0.9033  0.058179999999999996  1.0000
  C   C155      1.0  0.73685  0.85183  0.016489999999999998  1.0000
  C   C156      1.0  0.79105  0.7932500000000002  0.020879999999999996  1.0000
  Br  Br1       1.0  0.83169  0.48032  0.55312  1.0000
  Br  Br2       1.0  0.33209  0.01938  0.9467  1.0000
  Br  Br3       1.0  0.16932  0.5165  0.44726  1.0000
  Br  Br4       1.0  0.66911  0.98393  0.052679999999999984  1.0000
  N   N1        1.0  0.42767  0.8205300000000002  0.97114  1.0000
  N   N2        1.0  0.45978  0.8636900000000002  0.8853999999999999  1.0000
  N   N3        1.0  0.41974999999999996  0.9288100000000001  0.65344  1.0000
  N   N4        1.0  0.44777  0.9643500000000002  0.56451  1.0000
  N   N5        1.0  0.33117  0.70466  0.08449  1.0000
  N   N6        1.0  0.25043  0.6503500000000001  0.15058  1.0000
  N   N7        1.0  0.01112  0.61622  0.33302999999999994  1.0000
  N   N8        1.0  0.91244  0.64679  0.39965  1.0000
  N   N9        1.0  0.22585999999999995  0.81398  0.013859999999999997  1.0000
  N   N10       1.0  0.10784  0.8813700000000001  0.99716  1.0000
  N   N11       1.0  0.5571599999999998  0.11273  0.5683699999999999  1.0000
  N   N12       1.0  0.59295  0.22456000000000004  0.56796  1.0000
  N   N13       1.0  0.9280699999999997  0.68011  0.52885  1.0000
  N   N14       1.0  0.96063  0.6368500000000001  0.61452  1.0000
  N   N15       1.0  0.92045  0.57169  0.84651  1.0000
  N   N16       1.0  0.9479799999999998  0.53602  0.93551  1.0000
  N   N17       1.0  0.83085  0.79607  0.4157599999999999  1.0000
  N   N18       1.0  0.75081  0.8503900000000001  0.34934  1.0000
  N   N19       1.0  0.51072  0.88405  0.16728  1.0000
  N   N20       1.0  0.41218  0.854  0.10038  1.0000
  N   N21       1.0  0.7259799999999998  0.68612  0.48623999999999995  1.0000
  N   N22       1.0  0.60794  0.61865  0.50288  1.0000
  N   N23       1.0  0.05774  0.3867  0.9320599999999998  1.0000
  N   N24       1.0  0.09351  0.27492  0.9321599999999998  1.0000
  N   N25       1.0  0.57352  0.17819  0.028879999999999992  1.0000
  N   N26       1.0  0.5404699999999998  0.13557  0.11471999999999997  1.0000
  N   N27       1.0  0.5848699999999998  0.07293  0.34685  1.0000
  N   N28       1.0  0.56039  0.04065  0.4370299999999999  1.0000
  N   N29       1.0  0.66695  0.29516  0.9148299999999999  1.0000
  N   N30       1.0  0.7479699999999999  0.35001000000000004  0.8491399999999999  1.0000
  N   N31       1.0  0.9892999999999997  0.3847100000000001  0.66776  1.0000
  N   N32       1.0  0.08681999999999998  0.35418  0.60041  1.0000
  N   N33       1.0  0.77529  0.18689  0.9838399999999999  1.0000
  N   N34       1.0  0.89223  0.11883000000000002  0.00146  1.0000
  N   N35       1.0  0.43261  0.88822  0.42522  1.0000
  N   N36       1.0  0.40176  0.7755400000000001  0.42910999999999994  1.0000
  N   N37       1.0  0.07288999999999997  0.32064  0.47105  1.0000
  N   N38       1.0  0.04058999999999999  0.36401000000000006  0.3853299999999999  1.0000
  N   N39       1.0  0.08508999999999997  0.42708  0.15327999999999997  1.0000
  N   N40       1.0  0.06032999999999999  0.4600200000000001  0.06326  1.0000
  N   N41       1.0  0.16656  0.20442000000000002  0.5852599999999999  1.0000
  N   N42       1.0  0.24695  0.14956000000000003  0.6512  1.0000
  N   N43       1.0  0.48936  0.11543000000000002  0.8319599999999999  1.0000
  N   N44       1.0  0.5873699999999997  0.14542  0.8992199999999999  1.0000
  N   N45       1.0  0.2747399999999999  0.31312  0.51587  1.0000
  N   N46       1.0  0.39177999999999996  0.38131000000000004  0.4985099999999999  1.0000
  N   N47       1.0  0.93334  0.61298  0.07476  1.0000
  N   N48       1.0  0.90196  0.72552  0.0711  1.0000
