data_image0
_chemical_formula_structural       Zn16H56C120O52
_chemical_formula_sum              "Zn16 H56 C120 O52"
_cell_length_a       11.11702
_cell_length_b       22.06731
_cell_length_c       23.40673
_cell_angle_alpha    90.0
_cell_angle_beta     90.0
_cell_angle_gamma    90.08977

_symmetry_space_group_name_H-M    'P 1'
_symmetry_Int_Tables_number       1

loop_
  _symmetry_equiv_pos_as_xyz
  'x,y,z'

loop_
  _atom_site_type_symbol
  _atom_site_label
  _atom_site_symmetry_multiplicity
  _atom_site_fract_x
  _atom_site_fract_y
  _atom_site_fract_z
  _atom_site_occupancy
  Zn  Zn1       1.0  0.27732  0.59521  0.14658  1.0000
  Zn  Zn2       1.0  0.9968100000000001  0.61407  0.14429  1.0000
  Zn  Zn3       1.0  0.13022  0.65914  0.04408000000000001  1.0000
  Zn  Zn4       1.0  0.19636  0.52008  0.05322  1.0000
  Zn  Zn5       1.0  0.7226700000000001  0.40479  0.64658  1.0000
  Zn  Zn6       1.0  0.00318  0.38593  0.6443  1.0000
  Zn  Zn7       1.0  0.86977  0.34086  0.54409  1.0000
  Zn  Zn8       1.0  0.80363  0.47991999999999996  0.55322  1.0000
  Zn  Zn9       1.0  0.22202000000000002  0.0957  0.1449  1.0000
  Zn  Zn10      1.0  0.50571  0.11409999999999998  0.14445  1.0000
  Zn  Zn11      1.0  0.37173000000000006  0.15889  0.04398  1.0000
  Zn  Zn12      1.0  0.30651  0.01985  0.0531  1.0000
  Zn  Zn13      1.0  0.7779700000000002  0.9043  0.6449  1.0000
  Zn  Zn14      1.0  0.49429  0.8859  0.64445  1.0000
  Zn  Zn15      1.0  0.62826  0.84111  0.54398  1.0000
  Zn  Zn16      1.0  0.69348  0.9801499999999999  0.5531  1.0000
  H   H1        1.0  0.32749  0.34478  0.10201  1.0000
  H   H2        1.0  0.53837  0.27145  0.23908  1.0000
  H   H3        1.0  0.43126  0.4596  0.24185  1.0000
  H   H4        1.0  0.69424  0.31034  0.2874  1.0000
  H   H5        1.0  0.8117699999999999  0.33571  0.37478  1.0000
  H   H6        1.0  0.43299  0.44610999999999995  0.33319  1.0000
  H   H7        1.0  0.97509  0.63389  0.32587  1.0000
  H   H8        1.0  0.28938  0.79088  0.35766  1.0000
  H   H9        1.0  0.29529  0.72594  0.27122  1.0000
  H   H10       1.0  0.93641  0.7848499999999999  0.45525  1.0000
  H   H11       1.0  0.12886  0.87643  0.58877  1.0000
  H   H12       1.0  0.32497  0.79274  0.45208000000000004  1.0000
  H   H13       1.0  0.97201  0.69611  0.41453  1.0000
  H   H14       1.0  0.55492  0.47323  0.41812999999999995  1.0000
  H   H15       1.0  0.6725  0.65522  0.60201  1.0000
  H   H16       1.0  0.46162000000000003  0.72855  0.7390800000000001  1.0000
  H   H17       1.0  0.56873  0.5404  0.7418500000000001  1.0000
  H   H18       1.0  0.30575  0.68966  0.7873999999999999  1.0000
  H   H19       1.0  0.18822  0.66429  0.87479  1.0000
  H   H20       1.0  0.567  0.55389  0.83319  1.0000
  H   H21       1.0  0.0249  0.36611  0.8258699999999999  1.0000
  H   H22       1.0  0.71061  0.20912  0.85766  1.0000
  H   H23       1.0  0.7047  0.27406  0.77122  1.0000
  H   H24       1.0  0.06358  0.21515  0.9552499999999999  1.0000
  H   H25       1.0  0.8711399999999999  0.12356999999999999  0.08877  1.0000
  H   H26       1.0  0.67503  0.20726  0.9520900000000001  1.0000
  H   H27       1.0  0.02798  0.30389  0.91453  1.0000
  H   H28       1.0  0.44508  0.52677  0.91813  1.0000
  H   H29       1.0  0.17304  0.8445599999999999  0.10240999999999999  1.0000
  H   H30       1.0  0.96238  0.7717899999999999  0.23996  1.0000
  H   H31       1.0  0.06855  0.96035  0.2413  1.0000
  H   H32       1.0  0.80589  0.8103299999999999  0.28738  1.0000
  H   H33       1.0  0.68747  0.8351600000000001  0.37446000000000007  1.0000
  H   H34       1.0  0.06582  0.94689  0.33376  1.0000
  H   H35       1.0  0.5246  0.13446  0.32544  1.0000
  H   H36       1.0  0.21009  0.29052  0.35762  1.0000
  H   H37       1.0  0.20474  0.22628  0.2708  1.0000
  H   H38       1.0  0.56294  0.28499  0.45569999999999994  1.0000
  H   H39       1.0  0.37011  0.37655  0.58901  1.0000
  H   H40       1.0  0.17444  0.29266  0.45206  1.0000
  H   H41       1.0  0.52727  0.19603000000000004  0.41437000000000007  1.0000
  H   H42       1.0  0.94306  0.9734199999999998  0.41855  1.0000
  H   H43       1.0  0.8269599999999999  0.15544  0.60241  1.0000
  H   H44       1.0  0.03761  0.22821  0.7399599999999998  1.0000
  H   H45       1.0  0.9314399999999999  0.03965  0.7413  1.0000
  H   H46       1.0  0.19411  0.18966999999999998  0.7873899999999999  1.0000
  H   H47       1.0  0.31253  0.16484  0.87446  1.0000
  H   H48       1.0  0.9341699999999998  0.05311  0.8337599999999998  1.0000
  H   H49       1.0  0.4753899999999999  0.86554  0.8254399999999998  1.0000
  H   H50       1.0  0.7899  0.70948  0.8576300000000001  1.0000
  H   H51       1.0  0.79525  0.7737199999999999  0.7707999999999999  1.0000
  H   H52       1.0  0.43705  0.71501  0.9557  1.0000
  H   H53       1.0  0.62988  0.62345  0.089  1.0000
  H   H54       1.0  0.82556  0.70734  0.95206  1.0000
  H   H55       1.0  0.47272  0.8039699999999999  0.91437  1.0000
  H   H56       1.0  0.056929999999999994  0.026579999999999996  0.91855  1.0000
  C   C1        1.0  0.31309  0.46079  0.14374  1.0000
  C   C2        1.0  0.37119  0.40719  0.17048  1.0000
  C   C3        1.0  0.37253  0.35096  0.14279  1.0000
  C   C4        1.0  0.43494999999999995  0.30273  0.16772  1.0000
  C   C5        1.0  0.49288999999999994  0.31035  0.22049000000000002  1.0000
  C   C6        1.0  0.49123  0.36646  0.2489  1.0000
  C   C7        1.0  0.43046  0.41470999999999997  0.22275  1.0000
  C   C8        1.0  0.44092999999999993  0.24262  0.138  1.0000
  C   C9        1.0  0.55626  0.37721  0.30313  1.0000
  C   C10       1.0  0.66222  0.34527  0.31643  1.0000
  C   C11       1.0  0.72904  0.35973  0.36485  1.0000
  C   C12       1.0  0.69218  0.40695  0.40106  1.0000
  C   C13       1.0  0.51705  0.42245999999999995  0.34131  1.0000
  C   C14       1.0  0.14251  0.63844  0.24053  1.0000
  C   C15       1.0  0.1363  0.67544  0.29344  1.0000
  C   C16       1.0  0.04365  0.66815  0.3335  1.0000
  C   C17       1.0  0.13116  0.74773  0.39297  1.0000
  C   C18       1.0  0.22179  0.75574  0.35166  1.0000
  C   C19       1.0  0.22507999999999997  0.71981  0.30297  1.0000
  C   C20       1.0  0.13071  0.7841599999999999  0.44605  1.0000
  C   C21       1.0  0.0222  0.79834  0.4736  1.0000
  C   C22       1.0  0.02172  0.83104  0.52478  1.0000
  C   C23       1.0  0.1298  0.8511400000000001  0.54897  1.0000
  C   C24       1.0  0.23868  0.80414  0.47108  1.0000
  C   C25       1.0  0.23867  0.83756  0.5221  1.0000
  C   C26       1.0  0.90528  0.84447  0.55379  1.0000
  C   C27       1.0  0.35575  0.85514  0.54918  1.0000
  C   C28       1.0  0.04195  0.70353  0.3828  1.0000
  C   C29       1.0  0.58452  0.43767  0.38925  1.0000
  C   C30       1.0  0.76597  0.42301  0.45164  1.0000
  C   C31       1.0  0.6869  0.53921  0.64375  1.0000
  C   C32       1.0  0.62881  0.59281  0.67048  1.0000
  C   C33       1.0  0.62746  0.64904  0.6428  1.0000
  C   C34       1.0  0.56504  0.69727  0.66773  1.0000
  C   C35       1.0  0.5071  0.68965  0.7205  1.0000
  C   C36       1.0  0.50876  0.63354  0.7489  1.0000
  C   C37       1.0  0.56953  0.58529  0.7227500000000001  1.0000
  C   C38       1.0  0.55906  0.75738  0.638  1.0000
  C   C39       1.0  0.44373  0.62279  0.80313  1.0000
  C   C40       1.0  0.33777  0.65473  0.8164400000000002  1.0000
  C   C41       1.0  0.27096  0.64027  0.86485  1.0000
  C   C42       1.0  0.30781  0.59305  0.9010599999999999  1.0000
  C   C43       1.0  0.48294  0.57754  0.8413100000000001  1.0000
  C   C44       1.0  0.85748  0.36156  0.74053  1.0000
  C   C45       1.0  0.86369  0.32456  0.79344  1.0000
  C   C46       1.0  0.95634  0.33185  0.8335  1.0000
  C   C47       1.0  0.86883  0.25227  0.89297  1.0000
  C   C48       1.0  0.7782000000000001  0.24426  0.8516599999999999  1.0000
  C   C49       1.0  0.77492  0.28019  0.80297  1.0000
  C   C50       1.0  0.86929  0.21584  0.94605  1.0000
  C   C51       1.0  0.97779  0.20166  0.9736  1.0000
  C   C52       1.0  0.97827  0.16896  0.02477  1.0000
  C   C53       1.0  0.87019  0.14886  0.04897  1.0000
  C   C54       1.0  0.7613099999999999  0.19586  0.9710799999999999  1.0000
  C   C55       1.0  0.76132  0.16244  0.0221  1.0000
  C   C56       1.0  0.09471  0.15553  0.05378999999999999  1.0000
  C   C57       1.0  0.64424  0.14486  0.04918  1.0000
  C   C58       1.0  0.95804  0.29647  0.8828  1.0000
  C   C59       1.0  0.41547  0.56233  0.8892500000000001  1.0000
  C   C60       1.0  0.23402  0.57699  0.95164  1.0000
  C   C61       1.0  0.18697  0.96088  0.14286  1.0000
  C   C62       1.0  0.12903  0.9074800000000001  0.17031  1.0000
  C   C63       1.0  0.12799  0.85103  0.14314  1.0000
  C   C64       1.0  0.06559  0.8028600000000001  0.16827  1.0000
  C   C65       1.0  0.00759  0.8106700000000001  0.22103  1.0000
  C   C66       1.0  0.00885  0.86706  0.24907  1.0000
  C   C67       1.0  0.06944  0.9152999999999999  0.22252999999999998  1.0000
  C   C68       1.0  0.059829999999999994  0.74301  0.138  1.0000
  C   C69       1.0  0.94328  0.87774  0.30326  1.0000
  C   C70       1.0  0.83746  0.8454  0.31643  1.0000
  C   C71       1.0  0.77006  0.85954  0.36476  1.0000
  C   C72       1.0  0.80611  0.9068500000000002  0.40114  1.0000
  C   C73       1.0  0.98178  0.92301  0.34166  1.0000
  C   C74       1.0  0.35869  0.13866  0.24009000000000003  1.0000
  C   C75       1.0  0.36375  0.1758  0.29297  1.0000
  C   C76       1.0  0.45607000000000003  0.16858  0.33317  1.0000
  C   C77       1.0  0.3683100000000001  0.24772  0.39298999999999995  1.0000
  C   C78       1.0  0.27793  0.25564  0.3515  1.0000
  C   C79       1.0  0.27491  0.21998  0.30257  1.0000
  C   C80       1.0  0.36867000000000005  0.28411  0.44622999999999996  1.0000
  C   C81       1.0  0.47708  0.29836  0.47397999999999996  1.0000
  C   C82       1.0  0.47769  0.33112  0.52518  1.0000
  C   C83       1.0  0.36937999999999993  0.35123  0.54922  1.0000
  C   C84       1.0  0.26066  0.30411  0.47117  1.0000
  C   C85       1.0  0.26039  0.33761  0.52218  1.0000
  C   C86       1.0  0.59474  0.34454  0.55409  1.0000
  C   C87       1.0  0.14256  0.35527  0.54877  1.0000
  C   C88       1.0  0.4575  0.20368  0.38265000000000005  1.0000
  C   C89       1.0  0.9137800000000001  0.9378699999999999  0.38954  1.0000
  C   C90       1.0  0.73153  0.9228500000000001  0.45154  1.0000
  C   C91       1.0  0.81302  0.03912  0.64286  1.0000
  C   C92       1.0  0.87096  0.09252000000000002  0.67031  1.0000
  C   C93       1.0  0.87201  0.14897  0.64315  1.0000
  C   C94       1.0  0.9344  0.19714000000000004  0.66827  1.0000
  C   C95       1.0  0.9924  0.18933  0.72103  1.0000
  C   C96       1.0  0.99114  0.13294  0.74908  1.0000
  C   C97       1.0  0.9305499999999999  0.0847  0.7225300000000001  1.0000
  C   C98       1.0  0.94017  0.25699  0.63801  1.0000
  C   C99       1.0  0.05671000000000001  0.12226  0.80326  1.0000
  C   C100      1.0  0.16253  0.1546  0.8164400000000002  1.0000
  C   C101      1.0  0.22993  0.14046  0.86476  1.0000
  C   C102      1.0  0.19388999999999998  0.09315  0.90114  1.0000
  C   C103      1.0  0.01822  0.07699  0.84166  1.0000
  C   C104      1.0  0.6413  0.86134  0.74009  1.0000
  C   C105      1.0  0.63624  0.8242  0.79297  1.0000
  C   C106      1.0  0.54392  0.83142  0.83317  1.0000
  C   C107      1.0  0.63168  0.75228  0.89299  1.0000
  C   C108      1.0  0.7220600000000001  0.74436  0.8515  1.0000
  C   C109      1.0  0.72508  0.78002  0.8025700000000001  1.0000
  C   C110      1.0  0.63132  0.71589  0.94623  1.0000
  C   C111      1.0  0.52292  0.70164  0.97398  1.0000
  C   C112      1.0  0.5223  0.66888  0.02518  1.0000
  C   C113      1.0  0.63062  0.64877  0.04922  1.0000
  C   C114      1.0  0.73933  0.69589  0.97117  1.0000
  C   C115      1.0  0.7396  0.66239  0.022179999999999995  1.0000
  C   C116      1.0  0.40526  0.65546  0.05409  1.0000
  C   C117      1.0  0.85744  0.64473  0.048760000000000005  1.0000
  C   C118      1.0  0.54249  0.79632  0.88265  1.0000
  C   C119      1.0  0.08621  0.06212999999999999  0.88954  1.0000
  C   C120      1.0  0.26846  0.07715  0.9515499999999999  1.0000
  O   O1        1.0  0.13309  0.58531  0.097  1.0000
  O   O2        1.0  0.32721  0.51166  0.16852  1.0000
  O   O3        1.0  0.25444  0.45159  0.09691  1.0000
  O   O4        1.0  0.37514000000000003  0.23477  0.09405  1.0000
  O   O5        1.0  0.5122  0.20355  0.1598  1.0000
  O   O6        1.0  0.054680000000000006  0.60377  0.22598  1.0000
  O   O7        1.0  0.24034  0.64499  0.21172999999999997  1.0000
  O   O8        1.0  0.8093400000000001  0.82464  0.53119  1.0000
  O   O9        1.0  0.91374  0.8758800000000001  0.60001  1.0000
  O   O10       1.0  0.35123  0.8883  0.5946  1.0000
  O   O11       1.0  0.4502  0.8350699999999999  0.52546  1.0000
  O   O12       1.0  0.85473  0.39069999999999994  0.46586  1.0000
  O   O13       1.0  0.7333200000000001  0.47178  0.47944999999999993  1.0000
  O   O14       1.0  0.8669  0.41469  0.597  1.0000
  O   O15       1.0  0.67278  0.48834  0.66853  1.0000
  O   O16       1.0  0.7455599999999999  0.54841  0.59691  1.0000
  O   O17       1.0  0.62486  0.76523  0.59405  1.0000
  O   O18       1.0  0.48780000000000007  0.79645  0.65981  1.0000
  O   O19       1.0  0.94531  0.39623  0.72598  1.0000
  O   O20       1.0  0.7596499999999999  0.35501  0.71173  1.0000
  O   O21       1.0  0.19065  0.17536  0.03118  1.0000
  O   O22       1.0  0.08625  0.12412  0.10001  1.0000
  O   O23       1.0  0.64877  0.1117  0.0946  1.0000
  O   O24       1.0  0.54979  0.16493  0.02546  1.0000
  O   O25       1.0  0.14527  0.6093  0.96586  1.0000
  O   O26       1.0  0.26667  0.52822  0.9794500000000002  1.0000
  O   O27       1.0  0.36922  0.08518  0.09700999999999999  1.0000
  O   O28       1.0  0.16987  0.01221  0.16616  1.0000
  O   O29       1.0  0.24839  0.9512999999999999  0.09692000000000002  1.0000
  O   O30       1.0  0.12480000000000001  0.7360900000000001  0.09363  1.0000
  O   O31       1.0  0.98939  0.7034  0.15981  1.0000
  O   O32       1.0  0.44780999999999993  0.10481999999999998  0.22595  1.0000
  O   O33       1.0  0.26099  0.14437  0.21114  1.0000
  O   O34       1.0  0.69018  0.32436  0.5312  1.0000
  O   O35       1.0  0.5879  0.37604999999999994  0.6002  1.0000
  O   O36       1.0  0.14632  0.38804  0.59446  1.0000
  O   O37       1.0  0.048100000000000004  0.33586  0.52434  1.0000
  O   O38       1.0  0.64254  0.8905  0.4657  1.0000
  O   O39       1.0  0.76373  0.9717599999999998  0.4793  1.0000
  O   O40       1.0  0.63078  0.9148199999999999  0.59701  1.0000
  O   O41       1.0  0.83012  0.98779  0.66616  1.0000
  O   O42       1.0  0.7516  0.0487  0.59692  1.0000
  O   O43       1.0  0.8751999999999999  0.26391  0.59363  1.0000
  O   O44       1.0  0.01061  0.2966  0.65981  1.0000
  O   O45       1.0  0.55218  0.89518  0.72595  1.0000
  O   O46       1.0  0.739  0.85563  0.71114  1.0000
  O   O47       1.0  0.30981  0.67564  0.031200000000000002  1.0000
  O   O48       1.0  0.41208999999999996  0.62395  0.10019999999999998  1.0000
  O   O49       1.0  0.85367  0.61196  0.09446  1.0000
  O   O50       1.0  0.95189  0.66414  0.02433  1.0000
  O   O51       1.0  0.35746  0.10950000000000001  0.9656999999999999  1.0000
  O   O52       1.0  0.23626000000000003  0.02824  0.9793000000000001  1.0000
