data_image0
_chemical_formula_structural       Cd4H84C112N16O16
_chemical_formula_sum              "Cd4 H84 C112 N16 O16"
_cell_length_a       10.76736
_cell_length_b       13.05576
_cell_length_c       20.99438
_cell_angle_alpha    89.98153000000002
_cell_angle_beta     89.99953999999998
_cell_angle_gamma    114.27487999999998

_symmetry_space_group_name_H-M    'P 1'
_symmetry_Int_Tables_number       1

loop_
  _symmetry_equiv_pos_as_xyz
  'x,y,z'

loop_
  _atom_site_type_symbol
  _atom_site_label
  _atom_site_symmetry_multiplicity
  _atom_site_fract_x
  _atom_site_fract_y
  _atom_site_fract_z
  _atom_site_occupancy
  Cd  Cd1       1.0  0.39553  0.53587  0.4344  1.0000
  Cd  Cd2       1.0  0.60399  0.46446  0.93414  1.0000
  Cd  Cd3       1.0  0.13998000000000005  0.53452  0.06557  1.0000
  Cd  Cd4       1.0  0.85955  0.4655799999999999  0.56566  1.0000
  H   H1        1.0  0.20833  0.46771  0.6425899999999999  1.0000
  H   H2        1.0  0.36032999999999993  0.37220999999999993  0.81223  1.0000
  H   H3        1.0  0.5650999999999998  0.3869799999999999  0.7530899999999999  1.0000
  H   H4        1.0  0.56176  0.37971999999999995  0.48759  1.0000
  H   H5        1.0  0.41709  0.38458  0.30064  1.0000
  H   H6        1.0  0.54671  0.23940999999999996  0.30375  1.0000
  H   H7        1.0  0.73488  0.284  0.45728999999999986  1.0000
  H   H8        1.0  0.57801  0.16301999999999997  0.4618199999999999  1.0000
  H   H9        1.0  0.49944  0.03374  0.36543  1.0000
  H   H10       1.0  0.5740999999999999  0.9477999999999999  0.2766  1.0000
  H   H11       1.0  0.9786799999999999  0.20991999999999994  0.28995  1.0000
  H   H12       1.0  0.90347  0.29784999999999995  0.3779999999999999  1.0000
  H   H13       1.0  0.90918  0.64348  0.04596  1.0000
  H   H14       1.0  0.31265  0.82064  0.11246999999999997  1.0000
  H   H15       1.0  0.18463000000000007  0.96809  0.10561999999999999  1.0000
  H   H16       1.0  0.9448799999999999  0.91628  0.0189  1.0000
  H   H17       1.0  0.8207300000000001  0.7848  0.04525  1.0000
  H   H18       1.0  0.75018  0.76001  0.16074  1.0000
  H   H19       1.0  0.6993699999999999  0.8502899999999999  0.25409  1.0000
  H   H20       1.0  0.9541199999999999  0.17600999999999997  0.17764999999999995  1.0000
  H   H21       1.0  0.010799999999999983  0.08495999999999997  0.08621  1.0000
  H   H22       1.0  0.7921900000000001  0.5325899999999999  0.14254  1.0000
  H   H23       1.0  0.63825  0.62689  0.31196  1.0000
  H   H24       1.0  0.43492000000000003  0.61338  0.25231999999999993  1.0000
  H   H25       1.0  0.4379  0.61994  0.98697  1.0000
  H   H26       1.0  0.5826  0.61626  0.7999099999999998  1.0000
  H   H27       1.0  0.45327  0.76157  0.80344  1.0000
  H   H28       1.0  0.26505  0.71565  0.95719  1.0000
  H   H29       1.0  0.42151999999999995  0.8368499999999999  0.96172  1.0000
  H   H30       1.0  0.4999199999999999  0.96633  0.86552  1.0000
  H   H31       1.0  0.42547  0.052259999999999994  0.7765599999999999  1.0000
  H   H32       1.0  0.02087999999999992  0.7901099999999999  0.78985  1.0000
  H   H33       1.0  0.09585  0.70216  0.87795  1.0000
  H   H34       1.0  0.09094999999999995  0.35671999999999987  0.54609  1.0000
  H   H35       1.0  0.68741  0.17967  0.61256  1.0000
  H   H36       1.0  0.81505  0.03202  0.60541  1.0000
  H   H37       1.0  0.05548  0.08407  0.5188  1.0000
  H   H38       1.0  0.17927  0.21566  0.5452199999999999  1.0000
  H   H39       1.0  0.24962999999999996  0.24023  0.6607499999999998  1.0000
  H   H40       1.0  0.30025  0.14973999999999998  0.7540999999999999  1.0000
  H   H41       1.0  0.045449999999999935  0.82418  0.67762  1.0000
  H   H42       1.0  0.98899  0.91545  0.5861599999999999  1.0000
  H   H43       1.0  0.25981999999999994  0.4686299999999999  0.85703  1.0000
  H   H44       1.0  0.011330000000000002  0.37303  0.68804  1.0000
  H   H45       1.0  0.82113  0.38602999999999993  0.7476799999999999  1.0000
  H   H46       1.0  0.8166700000000001  0.3804799999999999  0.01298  1.0000
  H   H47       1.0  0.96665  0.3830599999999999  0.19961  1.0000
  H   H48       1.0  0.69242  0.23816  0.19648  1.0000
  H   H49       1.0  0.54878  0.28403  0.04286  1.0000
  H   H50       1.0  0.58487  0.16295  0.03853999999999999  1.0000
  H   H51       1.0  0.53447  0.03383  0.13482  1.0000
  H   H52       1.0  0.37457999999999997  0.9481599999999998  0.22392999999999996  1.0000
  H   H53       1.0  0.23056  0.20985  0.21018999999999993  1.0000
  H   H54       1.0  0.39314  0.29774  0.12204  1.0000
  H   H55       1.0  0.73603  0.64378  0.4536099999999999  1.0000
  H   H56       1.0  0.5085199999999999  0.8207199999999998  0.38747  1.0000
  H   H57       1.0  0.7834600000000002  0.9683699999999998  0.39426999999999995  1.0000
  H   H58       1.0  0.97143  0.9172499999999998  0.48093  1.0000
  H   H59       1.0  0.9648999999999999  0.78554  0.45509  1.0000
  H   H60       1.0  0.010119999999999928  0.76008  0.33936  1.0000
  H   H61       1.0  0.15109  0.8502699999999999  0.24593999999999996  1.0000
  H   H62       1.0  0.22173  0.17612  0.32222  1.0000
  H   H63       1.0  0.07383999999999998  0.08520999999999997  0.41367  1.0000
  H   H64       1.0  0.7414599999999999  0.5314799999999998  0.35738  1.0000
  H   H65       1.0  0.9881899999999999  0.62776  0.18764  1.0000
  H   H66       1.0  0.17832999999999993  0.61309  0.24645999999999998  1.0000
  H   H67       1.0  0.18326999999999993  0.6199499999999999  0.51262  1.0000
  H   H68       1.0  0.03263999999999995  0.6160799999999998  0.69922  1.0000
  H   H69       1.0  0.30693  0.76117  0.69634  1.0000
  H   H70       1.0  0.45133999999999996  0.71634  0.54284  1.0000
  H   H71       1.0  0.41492  0.83731  0.5384699999999999  1.0000
  H   H72       1.0  0.46479  0.96611  0.6349599999999999  1.0000
  H   H73       1.0  0.62493  0.05177  0.7239599999999999  1.0000
  H   H74       1.0  0.76893  0.7900899999999998  0.7101299999999998  1.0000
  H   H75       1.0  0.60618  0.7022899999999997  0.62202  1.0000
  H   H76       1.0  0.26392  0.35616  0.9536299999999998  1.0000
  H   H77       1.0  0.49132999999999993  0.17908  0.8876099999999998  1.0000
  H   H78       1.0  0.21625  0.03155999999999999  0.8941099999999997  1.0000
  H   H79       1.0  0.02845999999999999  0.08238999999999999  0.98076  1.0000
  H   H80       1.0  0.03451  0.21394  0.95495  1.0000
  H   H81       1.0  0.9895699999999998  0.23968  0.83928  1.0000
  H   H82       1.0  0.8484900000000001  0.14967  0.7458699999999999  1.0000
  H   H83       1.0  0.77767  0.8236699999999999  0.8221099999999999  1.0000
  H   H84       1.0  0.9255899999999999  0.9143599999999997  0.9135499999999998  1.0000
  C   C1        1.0  0.41006000000000004  0.48626  0.5640199999999999  1.0000
  C   C2        1.0  0.39708000000000004  0.45157  0.63265  1.0000
  C   C3        1.0  0.2838399999999999  0.44689999999999996  0.66707  1.0000
  C   C4        1.0  0.26874  0.41999  0.73213  1.0000
  C   C5        1.0  0.37060999999999994  0.3960699999999999  0.7621999999999998  1.0000
  C   C6        1.0  0.48524999999999996  0.40255  0.72866  1.0000
  C   C7        1.0  0.4999799999999999  0.4301699999999999  0.66375  1.0000
  C   C8        1.0  0.62311  0.43380999999999986  0.62872  1.0000
  C   C9        1.0  0.5392599999999999  0.36292999999999986  0.43719  1.0000
  C   C10       1.0  0.46563  0.36151  0.33988  1.0000
  C   C11       1.0  0.53018  0.29009  0.3406599999999999  1.0000
  C   C12       1.0  0.64833  0.22628  0.42934999999999995  1.0000
  C   C13       1.0  0.6965  0.17158  0.37768999999999997  1.0000
  C   C14       1.0  0.60473  0.07225  0.34905  1.0000
  C   C15       1.0  0.64641  0.02424  0.29886  1.0000
  C   C16       1.0  0.7812200000000001  0.07312999999999999  0.27612999999999993  1.0000
  C   C17       1.0  0.87301  0.17199999999999996  0.3056  1.0000
  C   C18       1.0  0.8312700000000001  0.22101999999999997  0.35564  1.0000
  C   C19       1.0  0.003279999999999879  0.7098799999999997  0.06299  1.0000
  C   C20       1.0  0.21035  0.8061  0.09790999999999998  1.0000
  C   C21       1.0  0.14900999999999998  0.87984  0.09416  1.0000
  C   C22       1.0  0.9119799999999999  0.8585799999999998  0.059629999999999996  1.0000
  C   C23       1.0  0.8828799999999998  0.9157799999999998  0.11653999999999999  1.0000
  C   C24       1.0  0.7955600000000002  0.85104  0.16455999999999998  1.0000
  C   C25       1.0  0.7660000000000001  0.90232  0.21694  1.0000
  C   C26       1.0  0.8218200000000001  0.020079999999999997  0.22262  1.0000
  C   C27       1.0  0.9118999999999999  0.08478  0.17508999999999997  1.0000
  C   C28       1.0  0.94194  0.03297  0.12277  1.0000
  C   C29       1.0  0.59033  0.5144399999999999  0.0634  1.0000
  C   C30       1.0  0.60329  0.54849  0.13218  1.0000
  C   C31       1.0  0.71623  0.55302  0.16687  1.0000
  C   C32       1.0  0.73093  0.57963  0.23199999999999998  1.0000
  C   C33       1.0  0.62872  0.6033799999999999  0.26188  1.0000
  C   C34       1.0  0.51463  0.59747  0.22800999999999993  1.0000
  C   C35       1.0  0.50033  0.57017  0.16304  1.0000
  C   C36       1.0  0.37752  0.56666  0.12760999999999997  1.0000
  C   C37       1.0  0.46068  0.63723  0.93664  1.0000
  C   C38       1.0  0.5342  0.6391699999999999  0.83925  1.0000
  C   C39       1.0  0.46973  0.7106299999999999  0.84023  1.0000
  C   C40       1.0  0.3513499999999999  0.7736499999999997  0.9291999999999998  1.0000
  C   C41       1.0  0.30291000000000007  0.82843  0.87768  1.0000
  C   C42       1.0  0.39468999999999993  0.9278099999999999  0.84907  1.0000
  C   C43       1.0  0.3531199999999999  0.9758199999999999  0.79883  1.0000
  C   C44       1.0  0.21835999999999983  0.9269099999999998  0.7760799999999999  1.0000
  C   C45       1.0  0.1265  0.82803  0.80555  1.0000
  C   C46       1.0  0.1681799999999999  0.7789999999999999  0.85562  1.0000
  C   C47       1.0  0.99671  0.29035999999999995  0.563  1.0000
  C   C48       1.0  0.7896600000000001  0.19416  0.59793  1.0000
  C   C49       1.0  0.85079  0.12031  0.59397  1.0000
  C   C50       1.0  0.08805  0.14175  0.55952  1.0000
  C   C51       1.0  0.11703  0.08454  0.61649  1.0000
  C   C52       1.0  0.20426000000000002  0.14918999999999996  0.66453  1.0000
  C   C53       1.0  0.23371999999999998  0.0978  0.71692  1.0000
  C   C54       1.0  0.17784999999999998  0.98004  0.72257  1.0000
  C   C55       1.0  0.08778999999999987  0.9154199999999998  0.6750399999999999  1.0000
  C   C56       1.0  0.05786999999999996  0.9673399999999999  0.62272  1.0000
  C   C57       1.0  0.07621000000000004  0.48626  0.93616  1.0000
  C   C58       1.0  0.054469999999999956  0.45171999999999995  0.8675699999999998  1.0000
  C   C59       1.0  0.16313999999999995  0.4475499999999999  0.83287  1.0000
  C   C60       1.0  0.15099000000000004  0.42025999999999997  0.7678899999999999  1.0000
  C   C61       1.0  0.025040000000000017  0.39637999999999995  0.73811  1.0000
  C   C62       1.0  0.91673  0.40205  0.77198  1.0000
  C   C63       1.0  0.92953  0.42958  0.83691  1.0000
  C   C64       1.0  0.8096  0.4325599999999999  0.8722  1.0000
  C   C65       1.0  0.82269  0.36308  0.06325999999999998  1.0000
  C   C66       1.0  0.89511  0.36052  0.1604  1.0000
  C   C67       1.0  0.75933  0.28923  0.15963  1.0000
  C   C68       1.0  0.57753  0.22626  0.07092  1.0000
  C   C69       1.0  0.47456999999999994  0.17155999999999996  0.12247999999999998  1.0000
  C   C70       1.0  0.46753999999999996  0.07232  0.1512  1.0000
  C   C71       1.0  0.37809999999999994  0.024329999999999994  0.20143  1.0000
  C   C72       1.0  0.29188  0.07316  0.22401  1.0000
  C   C73       1.0  0.29843  0.17195999999999997  0.19449  1.0000
  C   C74       1.0  0.38902  0.22099  0.14443999999999999  1.0000
  C   C75       1.0  0.70775  0.71013  0.43682999999999994  1.0000
  C   C76       1.0  0.59643  0.80629  0.40198999999999996  1.0000
  C   C77       1.0  0.7311999999999999  0.8801399999999998  0.40583  1.0000
  C   C78       1.0  0.9470399999999999  0.8591299999999998  0.44043  1.0000
  C   C79       1.0  0.03306999999999994  0.9160199999999998  0.3834499999999999  1.0000
  C   C80       1.0  0.055620000000000065  0.85111  0.33548  1.0000
  C   C81       1.0  0.13642999999999986  0.9023099999999998  0.28309  1.0000
  C   C82       1.0  0.19826000000000002  0.020069999999999998  0.27744  1.0000
  C   C83       1.0  0.17279  0.08489999999999999  0.32488  1.0000
  C   C84       1.0  0.09091  0.03319  0.37716  1.0000
  C   C85       1.0  0.9253499999999999  0.51466  0.4359199999999999  1.0000
  C   C86       1.0  0.94705  0.54934  0.36726  1.0000
  C   C87       1.0  0.83776  0.55285  0.33279999999999993  1.0000
  C   C88       1.0  0.84898  0.57968  0.26772  1.0000
  C   C89       1.0  0.97472  0.6037899999999999  0.23764  1.0000
  C   C90       1.0  0.08325999999999997  0.5977499999999999  0.27109  1.0000
  C   C91       1.0  0.07127999999999998  0.57066  0.33605999999999997  1.0000
  C   C92       1.0  0.19143999999999997  0.5674599999999999  0.37088  1.0000
  C   C93       1.0  0.17710999999999993  0.63697  0.56294  1.0000
  C   C94       1.0  0.10440999999999993  0.6389199999999999  0.66009  1.0000
  C   C95       1.0  0.24015999999999987  0.7102999999999998  0.65941  1.0000
  C   C96       1.0  0.42223  0.77394  0.5708299999999998  1.0000
  C   C97       1.0  0.5248999999999999  0.82852  0.6225  1.0000
  C   C98       1.0  0.53183  0.92767  0.65126  1.0000
  C   C99       1.0  0.6213699999999999  0.9756199999999999  0.70145  1.0000
  C   C100      1.0  0.7076499999999999  0.9267999999999997  0.7239599999999999  1.0000
  C   C101      1.0  0.70105  0.8280099999999999  0.69447  1.0000
  C   C102      1.0  0.61042  0.7790299999999998  0.64445  1.0000
  C   C103      1.0  0.292  0.2897  0.9368  1.0000
  C   C104      1.0  0.40339  0.19355999999999998  0.90203  1.0000
  C   C105      1.0  0.26856  0.11977  0.90566  1.0000
  C   C106      1.0  0.052660000000000005  0.14053  0.9402499999999999  1.0000
  C   C107      1.0  0.96655  0.08365  0.88332  1.0000
  C   C108      1.0  0.94402  0.14864999999999998  0.8353699999999997  1.0000
  C   C109      1.0  0.86319  0.09756999999999999  0.783  1.0000
  C   C110      1.0  0.80133  0.97982  0.77735  1.0000
  C   C111      1.0  0.82674  0.9148799999999999  0.82477  1.0000
  C   C112      1.0  0.90863  0.9664699999999999  0.87704  1.0000
  N   N1        1.0  0.47226  0.40645  0.4001499999999999  1.0000
  N   N2        1.0  0.57607  0.29173999999999994  0.40264  1.0000
  N   N3        1.0  0.11859999999999998  0.70074  0.07844999999999999  1.0000
  N   N4        1.0  0.017939999999999963  0.8173299999999999  0.07224  1.0000
  N   N5        1.0  0.52759  0.59387  0.89945  1.0000
  N   N6        1.0  0.4238999999999999  0.7086299999999999  0.9022599999999998  1.0000
  N   N7        1.0  0.8815  0.29957999999999996  0.57858  1.0000
  N   N8        1.0  0.9818499999999999  0.18279999999999996  0.57198  1.0000
  N   N9        1.0  0.93329  0.4061299999999999  0.10022  1.0000
  N   N10       1.0  0.71495  0.29162  0.09774999999999999  1.0000
  N   N11       1.0  0.58332  0.70094  0.42135999999999996  1.0000
  N   N12       1.0  0.8000099999999998  0.8176899999999998  0.42777999999999994  1.0000
  N   N13       1.0  0.06647999999999993  0.5936299999999999  0.59987  1.0000
  N   N14       1.0  0.28472  0.7083  0.5975199999999999  1.0000
  N   N15       1.0  0.41651  0.29886  0.92146  1.0000
  N   N16       1.0  0.19969  0.18221999999999997  0.9275099999999997  1.0000
  O   O1        1.0  0.30022  0.45032999999999995  0.53006  1.0000
  O   O2        1.0  0.5253699999999999  0.5506399999999999  0.54269  1.0000
  O   O3        1.0  0.60716  0.36373999999999995  0.58395  1.0000
  O   O4        1.0  0.73902  0.50588  0.64745  1.0000
  O   O5        1.0  0.70043  0.54813  0.029679999999999995  1.0000
  O   O6        1.0  0.4744499999999999  0.45273  0.04147  1.0000
  O   O7        1.0  0.39336  0.63684  0.08294  1.0000
  O   O8        1.0  0.26153  0.49415  0.14612  1.0000
  O   O9        1.0  0.15557  0.45446999999999993  0.9690799999999999  1.0000
  O   O10       1.0  0.01995000000000001  0.54616  0.9586399999999998  1.0000
  O   O11       1.0  0.75609  0.3627299999999999  0.9170899999999998  1.0000
  O   O12       1.0  0.7646500000000002  0.5042099999999999  0.8534499999999999  1.0000
  O   O13       1.0  0.852  0.55124  0.4699599999999999  1.0000
  O   O14       1.0  0.9750999999999999  0.4493399999999999  0.45718  1.0000
  O   O15       1.0  0.24438999999999997  0.6368299999999999  0.4160499999999999  1.0000
  O   O16       1.0  0.23685999999999993  0.49628999999999995  0.35195  1.0000
