data_image0
_chemical_formula_structural       Zn4H96C96N24O16
_chemical_formula_sum              "Zn4 H96 C96 N24 O16"
_cell_length_a       8.78752
_cell_length_b       15.257220000000002
_cell_length_c       19.290420000000005
_cell_angle_alpha    90.01585
_cell_angle_beta     89.99729
_cell_angle_gamma    90.05856999999999

_symmetry_space_group_name_H-M    'P 1'
_symmetry_Int_Tables_number       1

loop_
  _symmetry_equiv_pos_as_xyz
  'x,y,z'

loop_
  _atom_site_type_symbol
  _atom_site_label
  _atom_site_symmetry_multiplicity
  _atom_site_fract_x
  _atom_site_fract_y
  _atom_site_fract_z
  _atom_site_occupancy
  Zn  Zn1       1.0  0.43851  0.03799  0.74205  1.0000
  Zn  Zn2       1.0  0.06188  0.96218  0.24284999999999998  1.0000
  Zn  Zn3       1.0  0.5620800000000001  0.53907  0.75632  1.0000
  Zn  Zn4       1.0  0.9381799999999999  0.4606099999999999  0.25793  1.0000
  H   H1        1.0  0.05772  0.14595  0.85434  1.0000
  H   H2        1.0  0.92181  0.24655  0.9382999999999999  1.0000
  H   H3        1.0  0.01793  0.25485  0.059359999999999996  1.0000
  H   H4        1.0  0.52893  0.9411  0.16448  1.0000
  H   H5        1.0  0.77171  0.96793  0.09751  1.0000
  H   H6        1.0  0.7547000000000003  0.051479999999999984  0.98622  1.0000
  H   H7        1.0  0.50595  0.15170999999999996  0.60519  1.0000
  H   H8        1.0  0.67372  0.3093299999999999  0.61618  1.0000
  H   H9        1.0  0.71556  0.23023999999999994  0.85746  1.0000
  H   H10       1.0  0.5937400000000002  0.13720999999999994  0.8539199999999999  1.0000
  H   H11       1.0  0.7896  0.12646  0.8327599999999998  1.0000
  H   H12       1.0  0.7846500000000001  0.38824  0.71419  1.0000
  H   H13       1.0  0.75248  0.34973  0.7993  1.0000
  H   H14       1.0  0.9745400000000001  0.24819999999999995  0.78991  1.0000
  H   H15       1.0  0.02552  0.35888  0.7814  1.0000
  H   H16       1.0  0.9756100000000001  0.23317  0.65807  1.0000
  H   H17       1.0  0.03801  0.34228  0.65217  1.0000
  H   H18       1.0  0.25566  0.23786999999999994  0.64263  1.0000
  H   H19       1.0  0.20626  0.18795  0.72179  1.0000
  H   H20       1.0  0.31738  0.24312  0.82919  1.0000
  H   H21       1.0  0.48769000000000007  0.39208999999999994  0.8638800000000001  1.0000
  H   H22       1.0  0.42689  0.46845  0.62262  1.0000
  H   H23       1.0  0.33795  0.36935  0.59763  1.0000
  H   H24       1.0  0.22567  0.45608  0.63125  1.0000
  H   H25       1.0  0.44329  0.85431  0.35458  1.0000
  H   H26       1.0  0.57882  0.75347  0.43851999999999997  1.0000
  H   H27       1.0  0.48158000000000006  0.74473  0.55938  1.0000
  H   H28       1.0  0.97109  0.05910999999999999  0.66426  1.0000
  H   H29       1.0  0.7283300000000003  0.03204  0.59741  1.0000
  H   H30       1.0  0.7451  0.94827  0.48626  1.0000
  H   H31       1.0  0.99409  0.84838  0.10557999999999998  1.0000
  H   H32       1.0  0.82664  0.6906599999999999  0.11647  1.0000
  H   H33       1.0  0.7842100000000002  0.7697099999999999  0.35768  1.0000
  H   H34       1.0  0.9061600000000002  0.8627199999999998  0.3543  1.0000
  H   H35       1.0  0.7103200000000002  0.87355  0.33312  1.0000
  H   H36       1.0  0.7153900000000002  0.61177  0.21437  1.0000
  H   H37       1.0  0.74741  0.65027  0.29954  1.0000
  H   H38       1.0  0.52531  0.75176  0.29013  1.0000
  H   H39       1.0  0.47439  0.64107  0.28164  1.0000
  H   H40       1.0  0.52418  0.76669  0.15831  1.0000
  H   H41       1.0  0.46192  0.65756  0.15241  1.0000
  H   H42       1.0  0.24411000000000002  0.76183  0.14287  1.0000
  H   H43       1.0  0.29348  0.8118899999999998  0.22198  1.0000
  H   H44       1.0  0.18265  0.7567499999999998  0.32956  1.0000
  H   H45       1.0  0.01248  0.6077899999999998  0.36425  1.0000
  H   H46       1.0  0.07296  0.53122  0.12299  1.0000
  H   H47       1.0  0.16181  0.6303299999999997  0.09798  1.0000
  H   H48       1.0  0.27423000000000003  0.5436599999999998  0.13151  1.0000
  H   H49       1.0  0.9429900000000001  0.64655  0.64521  1.0000
  H   H50       1.0  0.08013  0.7466899999999997  0.56109  1.0000
  H   H51       1.0  0.9831800000000002  0.7554099999999998  0.44021999999999994  1.0000
  H   H52       1.0  0.47116  0.4410199999999999  0.33575  1.0000
  H   H53       1.0  0.22848999999999997  0.46799999999999997  0.40263  1.0000
  H   H54       1.0  0.24541000000000002  0.5520599999999999  0.51368  1.0000
  H   H55       1.0  0.49357000000000006  0.65236  0.89453  1.0000
  H   H56       1.0  0.32588  0.8098  0.8834999999999998  1.0000
  H   H57       1.0  0.28404  0.7304899999999998  0.64231  1.0000
  H   H58       1.0  0.40597  0.63767  0.64572  1.0000
  H   H59       1.0  0.21021  0.62659  0.66701  1.0000
  H   H60       1.0  0.21539000000000005  0.88849  0.78547  1.0000
  H   H61       1.0  0.24744  0.8498899999999998  0.70027  1.0000
  H   H62       1.0  0.025180000000000008  0.7482999999999997  0.70982  1.0000
  H   H63       1.0  0.9742900000000001  0.85892  0.71836  1.0000
  H   H64       1.0  0.02461  0.73333  0.84163  1.0000
  H   H65       1.0  0.96239  0.8424  0.84762  1.0000
  H   H66       1.0  0.74444  0.73778  0.85722  1.0000
  H   H67       1.0  0.79398  0.6878899999999999  0.77805  1.0000
  H   H68       1.0  0.68361  0.7425199999999997  0.67058  1.0000
  H   H69       1.0  0.5137200000000002  0.89128  0.63548  1.0000
  H   H70       1.0  0.5729800000000002  0.96837  0.87686  1.0000
  H   H71       1.0  0.66187  0.86944  0.9019699999999999  1.0000
  H   H72       1.0  0.77418  0.9561799999999998  0.8683100000000001  1.0000
  H   H73       1.0  0.5578300000000002  0.35275  0.1454  1.0000
  H   H74       1.0  0.42017  0.25313  0.061090000000000005  1.0000
  H   H75       1.0  0.51622  0.24511999999999995  0.9399800000000001  1.0000
  H   H76       1.0  0.0287  0.5585499999999999  0.8354700000000002  1.0000
  H   H77       1.0  0.27124  0.5321699999999998  0.90252  1.0000
  H   H78       1.0  0.25422  0.4488799999999999  0.01391  1.0000
  H   H79       1.0  0.00677  0.34712  0.39512  1.0000
  H   H80       1.0  0.1749  0.18984999999999994  0.38379  1.0000
  H   H81       1.0  0.21599000000000002  0.26952  0.14261  1.0000
  H   H82       1.0  0.09408  0.36234  0.14625  1.0000
  H   H83       1.0  0.28985  0.37332  0.16755  1.0000
  H   H84       1.0  0.28507  0.11128999999999997  0.28555  1.0000
  H   H85       1.0  0.25277  0.15004999999999993  0.20043  1.0000
  H   H86       1.0  0.47497  0.25164  0.21000000000000002  1.0000
  H   H87       1.0  0.5259800000000002  0.14104  0.21851000000000004  1.0000
  H   H88       1.0  0.47534000000000004  0.26663  0.34181  1.0000
  H   H89       1.0  0.53772  0.15758999999999995  0.34779  1.0000
  H   H90       1.0  0.7554900000000002  0.26235999999999987  0.35744  1.0000
  H   H91       1.0  0.70603  0.3121599999999999  0.27821  1.0000
  H   H92       1.0  0.81665  0.25746  0.17081  1.0000
  H   H93       1.0  0.9865800000000001  0.10863999999999997  0.13577  1.0000
  H   H94       1.0  0.92709  0.03161  0.37706  1.0000
  H   H95       1.0  0.83844  0.13068  0.40225  1.0000
  H   H96       1.0  0.72602  0.043939999999999986  0.36862  1.0000
  C   C1        1.0  0.29515  0.04229  0.8794999999999998  1.0000
  C   C2        1.0  0.21412  0.09933  0.93148  1.0000
  C   C3        1.0  0.09139  0.15009  0.90857  1.0000
  C   C4        1.0  0.01671  0.20562  0.95451  1.0000
  C   C5        1.0  0.06976  0.20949  0.02264  1.0000
  C   C6        1.0  0.25681  0.10598999999999997  0.00152  1.0000
  C   C7        1.0  0.39343  0.05910999999999999  0.02873  1.0000
  C   C8        1.0  0.38993  0.009559999999999997  0.09046  1.0000
  C   C9        1.0  0.52859  0.97754  0.11597  1.0000
  C   C10       1.0  0.66265  0.9923299999999998  0.07914  1.0000
  C   C11       1.0  0.65306  0.039179999999999986  0.01714  1.0000
  C   C12       1.0  0.24351000000000003  0.9873499999999997  0.12705  1.0000
  C   C13       1.0  0.56718  0.18099999999999994  0.64808  1.0000
  C   C14       1.0  0.6504  0.25683  0.65242  1.0000
  C   C15       1.0  0.65355  0.18943  0.75518  1.0000
  C   C16       1.0  0.69018  0.16992  0.82867  1.0000
  C   C17       1.0  0.7985  0.33162999999999987  0.74853  1.0000
  C   C18       1.0  0.96544  0.30499999999999994  0.75516  1.0000
  C   C19       1.0  0.04064  0.28404  0.68569  1.0000
  C   C20       1.0  0.20402  0.25028  0.69347  1.0000
  C   C21       1.0  0.34616  0.30163  0.80023  1.0000
  C   C22       1.0  0.4311200000000001  0.37416  0.8161  1.0000
  C   C23       1.0  0.36  0.38831  0.7071  1.0000
  C   C24       1.0  0.33583000000000013  0.42245  0.63602  1.0000
  C   C25       1.0  0.20777  0.95858  0.37984  1.0000
  C   C26       1.0  0.2868700000000001  0.90073  0.43173999999999996  1.0000
  C   C27       1.0  0.4095400000000001  0.8499999999999998  0.4088  1.0000
  C   C28       1.0  0.48383  0.79434  0.45472999999999997  1.0000
  C   C29       1.0  0.4301100000000001  0.7902799999999998  0.52276  1.0000
  C   C30       1.0  0.24329  0.8937999999999998  0.50164  1.0000
  C   C31       1.0  0.1066  0.94077  0.52871  1.0000
  C   C32       1.0  0.1101  0.9905999999999998  0.59029  1.0000
  C   C33       1.0  0.97144  0.022639999999999993  0.61576  1.0000
  C   C34       1.0  0.83736  0.007639999999999998  0.57902  1.0000
  C   C35       1.0  0.8469000000000002  0.96063  0.51709  1.0000
  C   C36       1.0  0.25638  0.01274  0.6269  1.0000
  C   C37       1.0  0.9329400000000001  0.81906  0.14847  1.0000
  C   C38       1.0  0.84975  0.7432099999999998  0.15273  1.0000
  C   C39       1.0  0.8464  0.8106099999999998  0.25551  1.0000
  C   C40       1.0  0.8097100000000003  0.83007  0.32899  1.0000
  C   C41       1.0  0.70145  0.6683499999999998  0.24876  1.0000
  C   C42       1.0  0.53445  0.6949399999999998  0.2554  1.0000
  C   C43       1.0  0.4592200000000001  0.71582  0.18593  1.0000
  C   C44       1.0  0.29579  0.74951  0.19371  1.0000
  C   C45       1.0  0.15382  0.6982799999999998  0.30054  1.0000
  C   C46       1.0  0.06908  0.6257199999999998  0.31649  1.0000
  C   C47       1.0  0.13998  0.61141  0.20747  1.0000
  C   C48       1.0  0.16403  0.57724  0.13636  1.0000
  C   C49       1.0  0.70504  0.54377  0.62016  1.0000
  C   C50       1.0  0.78629  0.6003199999999997  0.56806  1.0000
  C   C51       1.0  0.9095900000000002  0.6506999999999997  0.59094  1.0000
  C   C52       1.0  0.98463  0.70603  0.54494  1.0000
  C   C53       1.0  0.9312500000000001  0.7099499999999997  0.47685000000000005  1.0000
  C   C54       1.0  0.74357  0.60676  0.49805000000000005  1.0000
  C   C55       1.0  0.60682  0.55975  0.47108000000000005  1.0000
  C   C56       1.0  0.61028  0.50978  0.4096  1.0000
  C   C57       1.0  0.47154000000000007  0.47765  0.38417  1.0000
  C   C58       1.0  0.3375600000000001  0.49249  0.421  1.0000
  C   C59       1.0  0.34721  0.5395799999999997  0.4829  1.0000
  C   C60       1.0  0.75636  0.48727  0.37301  1.0000
  C   C61       1.0  0.4325  0.6815399999999998  0.8515999999999999  1.0000
  C   C62       1.0  0.34928  0.75727  0.84727  1.0000
  C   C63       1.0  0.3464000000000001  0.68983  0.7445  1.0000
  C   C64       1.0  0.3095800000000001  0.67022  0.67105  1.0000
  C   C65       1.0  0.20144000000000006  0.83189  0.75109  1.0000
  C   C66       1.0  0.03445  0.80513  0.74456  1.0000
  C   C67       1.0  0.95954  0.7841399999999997  0.8141  1.0000
  C   C68       1.0  0.79615  0.7502299999999997  0.80639  1.0000
  C   C69       1.0  0.65483  0.80111  0.69942  1.0000
  C   C70       1.0  0.5700100000000001  0.8734699999999997  0.68332  1.0000
  C   C71       1.0  0.6401100000000002  0.88804  0.79245  1.0000
  C   C72       1.0  0.66402  0.92243  0.8635099999999999  1.0000
  C   C73       1.0  0.79528  0.4562499999999999  0.12045999999999998  1.0000
  C   C74       1.0  0.71424  0.3994399999999999  0.06833  1.0000
  C   C75       1.0  0.5910700000000001  0.3488699999999999  0.09111  1.0000
  C   C76       1.0  0.51556  0.29387  0.045  1.0000
  C   C77       1.0  0.56844  0.29022  0.97684  1.0000
  C   C78       1.0  0.75656  0.3932  0.99821  1.0000
  C   C79       1.0  0.89309  0.4402599999999999  0.9710599999999999  1.0000
  C   C80       1.0  0.88955  0.48987  0.90935  1.0000
  C   C81       1.0  0.02826  0.52206  0.88395  1.0000
  C   C82       1.0  0.16221  0.5076  0.92088  1.0000
  C   C83       1.0  0.15259000000000003  0.4608799999999999  0.98293  1.0000
  C   C84       1.0  0.74333  0.51249  0.87275  1.0000
  C   C85       1.0  0.06781  0.31805  0.35213  1.0000
  C   C86       1.0  0.15114  0.24237  0.34764  1.0000
  C   C87       1.0  0.15365  0.30996  0.24493  1.0000
  C   C88       1.0  0.19045  0.3297099999999999  0.1715  1.0000
  C   C89       1.0  0.2988  0.16797  0.25126  1.0000
  C   C90       1.0  0.46573  0.19481  0.24471999999999997  1.0000
  C   C91       1.0  0.5405300000000002  0.21584  0.31428  1.0000
  C   C92       1.0  0.70387  0.24985  0.30659  1.0000
  C   C93       1.0  0.84538  0.19887  0.19966  1.0000
  C   C94       1.0  0.93025  0.1265  0.1836  1.0000
  C   C95       1.0  0.86001  0.11205  0.29271  1.0000
  C   C96       1.0  0.8362  0.07768  0.36378  1.0000
  N   N1        1.0  0.56925  0.13981  0.71229  1.0000
  N   N2        1.0  0.70357  0.26137  0.72003  1.0000
  N   N3        1.0  0.4398100000000001  0.42741  0.7578  1.0000
  N   N4        1.0  0.3024000000000001  0.31115  0.73155  1.0000
  N   N5        1.0  0.5224  0.0724  0.99229  1.0000
  N   N6        1.0  0.18682  0.16121  0.04609  1.0000
  N   N7        1.0  0.93084  0.86026  0.21272  1.0000
  N   N8        1.0  0.79642  0.73866  0.22032999999999997  1.0000
  N   N9        1.0  0.06042  0.57235  0.25826  1.0000
  N   N10       1.0  0.19746  0.68868  0.23184  1.0000
  N   N11       1.0  0.97764  0.9274  0.49229  1.0000
  N   N12       1.0  0.31272  0.83835  0.54618  1.0000
  N   N13       1.0  0.43073  0.6403099999999998  0.78735  1.0000
  N   N14       1.0  0.29629  0.7617199999999997  0.77961  1.0000
  N   N15       1.0  0.56079  0.92687  0.74151  1.0000
  N   N16       1.0  0.6978700000000002  0.81087  0.76819  1.0000
  N   N17       1.0  0.47793  0.57316  0.50751  1.0000
  N   N18       1.0  0.81387  0.66175  0.45335000000000003  1.0000
  N   N19       1.0  0.06938  0.35936  0.28794  1.0000
  N   N20       1.0  0.20391  0.23803999999999995  0.27994  1.0000
  N   N21       1.0  0.9394100000000001  0.07318  0.24181  1.0000
  N   N22       1.0  0.80224  0.18917999999999993  0.26843  1.0000
  N   N23       1.0  0.02195  0.42726  0.0076  1.0000
  N   N24       1.0  0.68595  0.33837  0.95349  1.0000
  O   O1        1.0  0.29606  0.96107  0.8853  1.0000
  O   O2        1.0  0.35532  0.08837  0.8296500000000001  1.0000
  O   O3        1.0  0.12253  0.9779099999999997  0.09399  1.0000
  O   O4        1.0  0.25792  0.9775899999999997  0.19393  1.0000
  O   O5        1.0  0.21161000000000005  0.03975  0.38539  1.0000
  O   O6        1.0  0.14462000000000005  0.91326  0.33031  1.0000
  O   O7        1.0  0.37759  0.02212  0.59395  1.0000
  O   O8        1.0  0.24184  0.02242  0.69377  1.0000
  O   O9        1.0  0.7042  0.4625599999999999  0.61479  1.0000
  O   O10       1.0  0.6448800000000001  0.59033  0.66982  1.0000
  O   O11       1.0  0.87691  0.4758399999999999  0.40603  1.0000
  O   O12       1.0  0.7420100000000001  0.47926  0.306  1.0000
  O   O13       1.0  0.79578  0.5374399999999998  0.11476999999999998  1.0000
  O   O14       1.0  0.85533  0.41015  0.17033  1.0000
  O   O15       1.0  0.6231900000000002  0.52397  0.9060000000000001  1.0000
  O   O16       1.0  0.7575  0.5206  0.80573  1.0000
