data_image0
_chemical_formula_structural       Zn10H112C146N36O32
_chemical_formula_sum              "Zn10 H112 C146 N36 O32"
_cell_length_a       20.09379
_cell_length_b       20.17308
_cell_length_c       20.90636
_cell_angle_alpha    61.13049999999999
_cell_angle_beta     77.76418
_cell_angle_gamma    64.01508

_symmetry_space_group_name_H-M    'P 1'
_symmetry_Int_Tables_number       1

loop_
  _symmetry_equiv_pos_as_xyz
  'x,y,z'

loop_
  _atom_site_type_symbol
  _atom_site_label
  _atom_site_symmetry_multiplicity
  _atom_site_fract_x
  _atom_site_fract_y
  _atom_site_fract_z
  _atom_site_occupancy
  Zn  Zn1       1.0  0.12114  0.12676  0.03155  1.0000
  Zn  Zn2       1.0  0.35381000000000007  0.16363999999999998  0.80391  1.0000
  Zn  Zn3       1.0  0.37913  0.84117  0.03156  1.0000
  Zn  Zn4       1.0  0.14544000000000004  0.032979999999999975  0.80359  1.0000
  Zn  Zn5       1.0  0.24990999999999997  0.040630000000000055  0.9175  1.0000
  Zn  Zn6       1.0  0.8788600000000001  0.8732400000000001  0.9684499999999999  1.0000
  Zn  Zn7       1.0  0.6462  0.83635  0.19608999999999996  1.0000
  Zn  Zn8       1.0  0.6208799999999999  0.15883000000000014  0.9684499999999999  1.0000
  Zn  Zn9       1.0  0.8545700000000002  0.96702  0.19641  1.0000
  Zn  Zn10      1.0  0.7501  0.95937  0.0825  1.0000
  H   H1        1.0  0.6566899999999999  0.99103  0.90484  1.0000
  H   H2        1.0  0.4766500000000001  0.33753  0.6689  1.0000
  H   H3        1.0  0.92787  0.10877000000000003  0.2127  1.0000
  H   H4        1.0  0.56401  0.80725  0.03158  1.0000
  H   H5        1.0  0.5346700000000001  0.09799  0.84865  1.0000
  H   H6        1.0  0.36386999999999997  0.7670900000000003  0.21977999999999998  1.0000
  H   H7        1.0  0.5343  0.12809  0.63117  1.0000
  H   H8        1.0  0.6715799999999998  0.84921  0.99339  1.0000
  H   H9        1.0  0.6249199999999998  0.17062000000000002  0.53578  1.0000
  H   H10       1.0  0.10361999999999996  0.31707000000000013  0.00206  1.0000
  H   H11       1.0  0.29972000000000004  0.34999  0.8055  1.0000
  H   H12       1.0  0.13243000000000002  0.44353999999999993  0.94307  1.0000
  H   H13       1.0  0.22829  0.4593100000000001  0.84758  1.0000
  H   H14       1.0  0.30626000000000003  0.7727999999999999  0.33605  1.0000
  H   H15       1.0  0.5481699999999999  0.49633  0.58048  1.0000
  H   H16       1.0  0.47073  0.4710200000000001  0.5892599999999999  1.0000
  H   H17       1.0  0.53662  0.41239000000000003  0.66234  1.0000
  H   H18       1.0  0.72436  0.19243999999999997  0.49693  1.0000
  H   H19       1.0  0.6563299999999999  0.2610100000000001  0.42521  1.0000
  H   H20       1.0  0.8435  0.16069999999999998  0.29882  1.0000
  H   H21       1.0  0.7502999999999999  0.25682  0.32926  1.0000
  H   H22       1.0  0.82008  0.18312000000000006  0.3989699999999999  1.0000
  H   H23       1.0  0.02156999999999998  0.28683000000000003  0.14761  1.0000
  H   H24       1.0  0.33712999999999993  0.2518700000000001  0.61689  1.0000
  H   H25       1.0  0.29189  0.2801  0.50054  1.0000
  H   H26       1.0  0.9743900000000001  0.43892  0.21233  1.0000
  H   H27       1.0  0.04224999999999995  0.34539000000000014  0.20993999999999996  1.0000
  H   H28       1.0  0.9746400000000005  0.41769  0.13839  1.0000
  H   H29       1.0  0.84323  0.10407999999999996  0.90461  1.0000
  H   H30       1.0  0.023930000000000007  0.99406  0.66822  1.0000
  H   H31       1.0  0.5718300000000002  0.6783500000000001  0.21275999999999995  1.0000
  H   H32       1.0  0.93556  0.1612  0.03148  1.0000
  H   H33       1.0  0.9656099999999999  0.05322000000000003  0.84853  1.0000
  H   H34       1.0  0.13629  0.013080000000000003  0.21938  1.0000
  H   H35       1.0  0.9652999999999998  0.24125000000000002  0.63101  1.0000
  H   H36       1.0  0.8283399999999999  0.15740000000000012  0.99309  1.0000
  H   H37       1.0  0.87372  0.29385999999999995  0.53672  1.0000
  H   H38       1.0  0.39612  0.68118  0.00258  1.0000
  H   H39       1.0  0.20052000000000006  0.8432700000000001  0.8056999999999999  1.0000
  H   H40       1.0  0.3685099999999999  0.61299  0.94344  1.0000
  H   H41       1.0  0.2730099999999998  0.6921500000000003  0.84779  1.0000
  H   H42       1.0  0.19441999999999998  0.8920900000000002  0.33586  1.0000
  H   H43       1.0  0.95133  0.92345  0.5806499999999999  1.0000
  H   H44       1.0  0.02954999999999993  0.9388900000000001  0.5892599999999999  1.0000
  H   H45       1.0  0.96324  0.92604  0.6620999999999999  1.0000
  H   H46       1.0  0.77471  0.31154  0.49625  1.0000
  H   H47       1.0  0.84381  0.31233  0.42553  1.0000
  H   H48       1.0  0.6570299999999998  0.54037  0.29796  1.0000
  H   H49       1.0  0.75024  0.41253000000000006  0.32802  1.0000
  H   H50       1.0  0.6810999999999999  0.4178700000000001  0.39809  1.0000
  H   H51       1.0  0.4778500000000001  0.56557  0.14796  1.0000
  H   H52       1.0  0.16316  0.13115000000000002  0.61661  1.0000
  H   H53       1.0  0.2085  0.21948  0.50037  1.0000
  H   H54       1.0  0.52508  0.34877000000000014  0.21238999999999997  1.0000
  H   H55       1.0  0.45724999999999993  0.44495000000000007  0.20956999999999998  1.0000
  H   H56       1.0  0.5252  0.44392  0.13837  1.0000
  H   H57       1.0  0.34332  0.008970000000000004  0.09516999999999999  1.0000
  H   H58       1.0  0.52335  0.66247  0.3311  1.0000
  H   H59       1.0  0.07213999999999991  0.8912300000000001  0.7873  1.0000
  H   H60       1.0  0.43598999999999993  0.19275000000000003  0.96842  1.0000
  H   H61       1.0  0.4653299999999999  0.9020000000000001  0.15135  1.0000
  H   H62       1.0  0.6361300000000001  0.23290999999999998  0.78022  1.0000
  H   H63       1.0  0.46570000000000006  0.8719000000000001  0.36883  1.0000
  H   H64       1.0  0.32843  0.15078  0.00661  1.0000
  H   H65       1.0  0.37509000000000003  0.82938  0.46422  1.0000
  H   H66       1.0  0.89638  0.68293  0.99794  1.0000
  H   H67       1.0  0.7002799999999999  0.6500100000000002  0.1945  1.0000
  H   H68       1.0  0.86758  0.55646  0.056929999999999994  1.0000
  H   H69       1.0  0.7717199999999999  0.54068  0.15242  1.0000
  H   H70       1.0  0.69375  0.22720000000000004  0.66395  1.0000
  H   H71       1.0  0.45184000000000013  0.50366  0.41952  1.0000
  H   H72       1.0  0.52928  0.52898  0.41074  1.0000
  H   H73       1.0  0.46338  0.58761  0.33766  1.0000
  H   H74       1.0  0.27564999999999984  0.8075600000000003  0.50307  1.0000
  H   H75       1.0  0.34367999999999993  0.7389800000000001  0.5747899999999999  1.0000
  H   H76       1.0  0.1565099999999999  0.8393000000000003  0.70118  1.0000
  H   H77       1.0  0.24970999999999988  0.7431700000000003  0.67074  1.0000
  H   H78       1.0  0.17992000000000002  0.81688  0.60103  1.0000
  H   H79       1.0  0.97843  0.71317  0.85239  1.0000
  H   H80       1.0  0.6628799999999999  0.7481300000000001  0.38310999999999995  1.0000
  H   H81       1.0  0.7081199999999997  0.7198900000000004  0.49946  1.0000
  H   H82       1.0  0.025619999999999973  0.56108  0.78767  1.0000
  H   H83       1.0  0.9577600000000002  0.6546100000000001  0.79006  1.0000
  H   H84       1.0  0.025370000000000007  0.58231  0.86161  1.0000
  H   H85       1.0  0.15678000000000003  0.89592  0.09539  1.0000
  H   H86       1.0  0.97607  0.0059400000000000164  0.33178  1.0000
  H   H87       1.0  0.42818000000000006  0.32164000000000004  0.78724  1.0000
  H   H88       1.0  0.06445000000000001  0.83879  0.9685199999999999  1.0000
  H   H89       1.0  0.03438999999999994  0.94678  0.15147  1.0000
  H   H90       1.0  0.8637100000000002  0.98692  0.78062  1.0000
  H   H91       1.0  0.034699999999999995  0.75875  0.36898999999999993  1.0000
  H   H92       1.0  0.17167000000000002  0.8426  0.0069099999999999995  1.0000
  H   H93       1.0  0.12629  0.70614  0.46328  1.0000
  H   H94       1.0  0.60388  0.31882  0.99742  1.0000
  H   H95       1.0  0.7994900000000001  0.15672  0.19429999999999997  1.0000
  H   H96       1.0  0.6315  0.38701  0.05656  1.0000
  H   H97       1.0  0.7269999999999999  0.30785000000000007  0.15221  1.0000
  H   H98       1.0  0.80559  0.10791000000000002  0.66414  1.0000
  H   H99       1.0  0.04868000000000001  0.07653999999999998  0.41936  1.0000
  H   H100      1.0  0.97045  0.061100000000000036  0.41074  1.0000
  H   H101      1.0  0.03676  0.07395000000000002  0.3379  1.0000
  H   H102      1.0  0.2252999999999999  0.6884600000000001  0.50375  1.0000
  H   H103      1.0  0.15619999999999992  0.6876700000000001  0.57447  1.0000
  H   H104      1.0  0.3429700000000001  0.4596199999999999  0.70204  1.0000
  H   H105      1.0  0.24976000000000012  0.5874699999999999  0.67198  1.0000
  H   H106      1.0  0.31889999999999996  0.5821300000000001  0.6019099999999998  1.0000
  H   H107      1.0  0.52216  0.4344199999999999  0.85204  1.0000
  H   H108      1.0  0.8368500000000001  0.86885  0.38339  1.0000
  H   H109      1.0  0.79151  0.7805199999999999  0.49963  1.0000
  H   H110      1.0  0.4749200000000001  0.65122  0.78762  1.0000
  H   H111      1.0  0.5427599999999998  0.5550500000000002  0.79043  1.0000
  H   H112      1.0  0.4748099999999999  0.5560699999999998  0.86163  1.0000
  C   C1        1.0  0.60859  0.97525  0.9189  1.0000
  C   C2        1.0  0.4893799999999999  0.9292100000000002  0.9582699999999998  1.0000
  C   C3        1.0  0.48097000000000006  0.01065000000000002  0.9070199999999999  1.0000
  C   C4        1.0  0.50954  0.30199999999999994  0.63916  1.0000
  C   C5        1.0  0.9291800000000001  0.15965000000000001  0.21739999999999998  1.0000
  C   C6        1.0  0.5582399999999998  0.8690000000000001  0.9910299999999999  1.0000
  C   C7        1.0  0.28112999999999994  0.8875300000000002  0.15413  1.0000
  C   C8        1.0  0.5410100000000001  0.03521000000000008  0.8867899999999999  1.0000
  C   C9        1.0  0.18576  0.2640100000000001  0.9354499999999999  1.0000
  C   C10       1.0  0.50063  0.23007  0.65525  1.0000
  C   C11       1.0  0.56066  0.32624  0.58654  1.0000
  C   C12       1.0  0.3144199999999999  0.81926  0.21985  1.0000
  C   C13       1.0  0.54232  0.18325999999999995  0.61777  1.0000
  C   C14       1.0  0.6171200000000001  0.8935200000000001  0.9700199999999999  1.0000
  C   C15       1.0  0.5929900000000001  0.2073  0.56467  1.0000
  C   C16       1.0  0.24039  0.27364000000000005  0.88022  1.0000
  C   C17       1.0  0.14527  0.3252300000000001  0.9595299999999999  1.0000
  C   C18       1.0  0.25722  0.34394  0.84729  1.0000
  C   C19       1.0  0.16205999999999993  0.3945000000000002  0.9263999999999999  1.0000
  C   C20       1.0  0.21722000000000005  0.40382  0.87125  1.0000
  C   C21       1.0  0.28207  0.8236100000000001  0.28395  1.0000
  C   C22       1.0  0.5295199999999997  0.44584000000000007  0.60268  1.0000
  C   C23       1.0  0.028699999999999996  0.16306  0.12423999999999999  1.0000
  C   C24       1.0  0.69427  0.25711  0.45904  1.0000
  C   C25       1.0  0.6030499999999999  0.27784000000000003  0.54904  1.0000
  C   C26       1.0  0.8820299999999999  0.18885  0.26583  1.0000
  C   C27       1.0  0.7900900000000001  0.24893  0.36384  1.0000
  C   C28       1.0  0.8848199999999999  0.25315  0.2726  1.0000
  C   C29       1.0  0.4479600000000001  0.20060000000000006  0.71111  1.0000
  C   C30       1.0  0.97908  0.1953  0.17502  1.0000
  C   C31       1.0  0.98205  0.26052  0.18113  1.0000
  C   C32       1.0  0.93543  0.28982  0.22944  1.0000
  C   C33       1.0  0.27419000000000004  0.17582000000000006  0.68249  1.0000
  C   C34       1.0  0.29947  0.22631999999999997  0.61686  1.0000
  C   C35       1.0  0.2742  0.24111000000000005  0.55258  1.0000
  C   C36       1.0  0.98462  0.39027000000000006  0.19724999999999995  1.0000
  C   C37       1.0  0.8913399999999999  0.10576000000000003  0.91869  1.0000
  C   C38       1.0  0.010559999999999993  0.11244000000000004  0.9582799999999999  1.0000
  C   C39       1.0  0.018920000000000034  0.08220999999999995  0.90708  1.0000
  C   C40       1.0  0.99077  0.059250000000000025  0.6386499999999999  1.0000
  C   C41       1.0  0.57058  0.62272  0.21746  1.0000
  C   C42       1.0  0.94157  0.13996000000000006  0.9909099999999998  1.0000
  C   C43       1.0  0.21899999999999994  0.9577200000000001  0.15403  1.0000
  C   C44       1.0  0.9590099999999999  0.0779099999999999  0.8866800000000001  1.0000
  C   C45       1.0  0.31375000000000003  0.80037  0.9356799999999998  1.0000
  C   C46       1.0  0.9995499999999999  0.11519000000000003  0.65462  1.0000
  C   C47       1.0  0.93942  0.08746000000000004  0.58643  1.0000
  C   C48       1.0  0.1857399999999999  0.96075  0.21961000000000003  1.0000
  C   C49       1.0  0.95729  0.19941000000000003  0.6177  1.0000
  C   C50       1.0  0.8827999999999999  0.13642999999999994  0.96975  1.0000
  C   C51       1.0  0.9060699999999999  0.22830000000000003  0.5652  1.0000
  C   C52       1.0  0.25925  0.8457400000000002  0.8803599999999999  1.0000
  C   C53       1.0  0.35459999999999997  0.71511  0.96001  1.0000
  C   C54       1.0  0.24289999999999992  0.8079600000000001  0.84755  1.0000
  C   C55       1.0  0.33843  0.67865  0.92685  1.0000
  C   C56       1.0  0.28345  0.72417  0.87161  1.0000
  C   C57       1.0  0.21832000000000004  0.8928  0.28384  1.0000
  C   C58       1.0  0.9705999999999998  0.9515700000000001  0.6025  1.0000
  C   C59       1.0  0.4706600000000001  0.71208  0.1245  1.0000
  C   C60       1.0  0.8050900000000001  0.2834700000000001  0.45929999999999993  1.0000
  C   C61       1.0  0.89614  0.17323  0.54968  1.0000
  C   C62       1.0  0.61798  0.54506  0.26564  1.0000
  C   C63       1.0  0.7101899999999999  0.3866200000000002  0.36326  1.0000
  C   C64       1.0  0.6147999999999999  0.47399  0.27275  1.0000
  C   C65       1.0  0.05276999999999997  0.08838999999999998  0.70998  1.0000
  C   C66       1.0  0.5205  0.62936  0.17543  1.0000
  C   C67       1.0  0.5175000000000001  0.55808  0.18147999999999997  1.0000
  C   C68       1.0  0.5640299999999999  0.4804700000000002  0.22977999999999998  1.0000
  C   C69       1.0  0.22566999999999995  0.14177000000000003  0.6824299999999999  1.0000
  C   C70       1.0  0.20061  0.15689000000000003  0.61674  1.0000
  C   C71       1.0  0.22596000000000002  0.20645  0.5524899999999999  1.0000
  C   C72       1.0  0.51491  0.41251000000000004  0.19719  1.0000
  C   C73       1.0  0.7498800000000001  0.29417  0.41106  1.0000
  C   C74       1.0  0.39141  0.024750000000000008  0.0811  1.0000
  C   C75       1.0  0.51063  0.07079  0.04173  1.0000
  C   C76       1.0  0.51903  0.9893400000000001  0.09297999999999998  1.0000
  C   C77       1.0  0.49047  0.698  0.36084  1.0000
  C   C78       1.0  0.07083000000000005  0.84034  0.7826  1.0000
  C   C79       1.0  0.44177000000000005  0.13099000000000002  0.00897  1.0000
  C   C80       1.0  0.7188800000000001  0.11247000000000011  0.8458799999999997  1.0000
  C   C81       1.0  0.45899  0.96478  0.11321  1.0000
  C   C82       1.0  0.8142400000000001  0.73599  0.06456  1.0000
  C   C83       1.0  0.4993699999999999  0.76992  0.34475  1.0000
  C   C84       1.0  0.43935  0.6737600000000002  0.4134599999999999  1.0000
  C   C85       1.0  0.68558  0.18074  0.78015  1.0000
  C   C86       1.0  0.45768999999999993  0.81673  0.38223  1.0000
  C   C87       1.0  0.38287999999999994  0.10647999999999999  0.02998  1.0000
  C   C88       1.0  0.40702  0.79269  0.43534  1.0000
  C   C89       1.0  0.75962  0.72636  0.11978  1.0000
  C   C90       1.0  0.85474  0.67477  0.04047  1.0000
  C   C91       1.0  0.7427899999999998  0.6560600000000001  0.15271  1.0000
  C   C92       1.0  0.8379499999999999  0.6055  0.0736  1.0000
  C   C93       1.0  0.78279  0.59618  0.12875  1.0000
  C   C94       1.0  0.7179399999999999  0.17638000000000006  0.7160499999999999  1.0000
  C   C95       1.0  0.4704800000000001  0.55416  0.39731999999999995  1.0000
  C   C96       1.0  0.9713099999999999  0.8369400000000004  0.87576  1.0000
  C   C97       1.0  0.30573  0.7428800000000001  0.54097  1.0000
  C   C98       1.0  0.3969599999999999  0.72216  0.45096  1.0000
  C   C99       1.0  0.11797999999999992  0.8111500000000001  0.73417  1.0000
  C   C100      1.0  0.20992  0.75107  0.63617  1.0000
  C   C101      1.0  0.11519000000000003  0.74684  0.72741  1.0000
  C   C102      1.0  0.5520399999999999  0.7993999999999999  0.28889  1.0000
  C   C103      1.0  0.020920000000000046  0.80469  0.82498  1.0000
  C   C104      1.0  0.017960000000000052  0.73947  0.8188699999999999  1.0000
  C   C105      1.0  0.06457999999999993  0.7101800000000001  0.7705599999999999  1.0000
  C   C106      1.0  0.7258199999999999  0.82418  0.31751  1.0000
  C   C107      1.0  0.70054  0.77368  0.38314  1.0000
  C   C108      1.0  0.72581  0.75889  0.44742000000000004  1.0000
  C   C109      1.0  0.015379999999999977  0.60972  0.80275  1.0000
  C   C110      1.0  0.10867  0.8942400000000001  0.08130999999999998  1.0000
  C   C111      1.0  0.9894400000000001  0.8875600000000001  0.04172  1.0000
  C   C112      1.0  0.9810800000000001  0.9177800000000002  0.09291999999999999  1.0000
  C   C113      1.0  0.00923999999999996  0.9407500000000001  0.36136  1.0000
  C   C114      1.0  0.42942  0.37727  0.78254  1.0000
  C   C115      1.0  0.05843999999999991  0.8600400000000001  0.00909  1.0000
  C   C116      1.0  0.781  0.04228000000000001  0.84597  1.0000
  C   C117      1.0  0.04100000000000013  0.9220899999999997  0.11332  1.0000
  C   C118      1.0  0.68626  0.19963  0.06432  1.0000
  C   C119      1.0  0.0004600000000000436  0.88481  0.34538  1.0000
  C   C120      1.0  0.060590000000000054  0.91254  0.41357  1.0000
  C   C121      1.0  0.8142700000000002  0.03925000000000001  0.78039  1.0000
  C   C122      1.0  0.04270999999999999  0.80059  0.3823  1.0000
  C   C123      1.0  0.11719999999999996  0.8635700000000002  0.030249999999999996  1.0000
  C   C124      1.0  0.09393999999999998  0.77169  0.43479999999999996  1.0000
  C   C125      1.0  0.74075  0.15426000000000004  0.11964  1.0000
  C   C126      1.0  0.64541  0.28489  0.03999  1.0000
  C   C127      1.0  0.7571099999999998  0.19203  0.15245  1.0000
  C   C128      1.0  0.6615699999999999  0.32134000000000007  0.07315  1.0000
  C   C129      1.0  0.7165500000000001  0.27583  0.12839  1.0000
  C   C130      1.0  0.7816899999999999  0.10720000000000007  0.71616  1.0000
  C   C131      1.0  0.029400000000000003  0.04841999999999998  0.3975  1.0000
  C   C132      1.0  0.52934  0.28792  0.8755  1.0000
  C   C133      1.0  0.19492000000000004  0.71652  0.54071  1.0000
  C   C134      1.0  0.10386000000000002  0.8267599999999999  0.45033  1.0000
  C   C135      1.0  0.38202  0.45494  0.73436  1.0000
  C   C136      1.0  0.2898100000000001  0.6133699999999999  0.63674  1.0000
  C   C137      1.0  0.38521  0.5260100000000001  0.72725  1.0000
  C   C138      1.0  0.9472400000000001  0.91161  0.29002  1.0000
  C   C139      1.0  0.47951  0.3706300000000001  0.82458  1.0000
  C   C140      1.0  0.4824999999999999  0.44191  0.81852  1.0000
  C   C141      1.0  0.4359800000000001  0.5195199999999999  0.77022  1.0000
  C   C142      1.0  0.77433  0.8582300000000002  0.31757  1.0000
  C   C143      1.0  0.7993899999999999  0.8431000000000003  0.38326  1.0000
  C   C144      1.0  0.7740500000000001  0.79355  0.44751  1.0000
  C   C145      1.0  0.48508999999999985  0.5874900000000002  0.80281  1.0000
  C   C146      1.0  0.25013  0.7058300000000001  0.58895  1.0000
  N   N1        1.0  0.3738600000000001  0.000850000000000009  0.9218399999999999  1.0000
  N   N2        1.0  0.18399999999999994  0.1893600000000001  0.9554099999999999  1.0000
  N   N3        1.0  0.2342  0.15588000000000002  0.91476  1.0000
  N   N4        1.0  0.4081599999999999  0.05260000000000014  0.88626  1.0000
  N   N5        1.0  0.42130999999999996  0.9261500000000003  0.9653899999999999  1.0000
  N   N6        1.0  0.29775999999999997  0.90352  0.08241  1.0000
  N   N7        1.0  0.26902  0.20485  0.86921  1.0000
  N   N8        1.0  0.28745000000000004  0.14948  0.75413  1.0000
  N   N9        1.0  0.12614  0.07686000000000003  0.9219099999999999  1.0000
  N   N10       1.0  0.31550999999999996  0.8552000000000001  0.9553699999999999  1.0000
  N   N11       1.0  0.26536999999999994  0.92923  0.9145100000000002  1.0000
  N   N12       1.0  0.09171999999999998  0.060860000000000095  0.8863299999999998  1.0000
  N   N13       1.0  0.07875000000000001  0.1081  0.96545  1.0000
  N   N14       1.0  0.20242  0.013280000000000009  0.08227999999999999  1.0000
  N   N15       1.0  0.23055999999999993  0.92566  0.86906  1.0000
  N   N16       1.0  0.21235  0.09638000000000002  0.75408  1.0000
  N   N17       1.0  0.25012999999999996  0.9791000000000001  0.04084  1.0000
  N   N18       1.0  0.24987000000000004  0.10225000000000001  0.79541  1.0000
  N   N19       1.0  0.62614  0.9991500000000001  0.07816  1.0000
  N   N20       1.0  0.8160099999999999  0.81064  0.04459  1.0000
  N   N21       1.0  0.76581  0.84412  0.08524  1.0000
  N   N22       1.0  0.5918500000000001  0.94739  0.11374999999999999  1.0000
  N   N23       1.0  0.5787  0.07385  0.03461  1.0000
  N   N24       1.0  0.70224  0.09646999999999997  0.91759  1.0000
  N   N25       1.0  0.7309799999999999  0.7951400000000001  0.13079  1.0000
  N   N26       1.0  0.71256  0.85052  0.24587  1.0000
  N   N27       1.0  0.8738599999999999  0.9231300000000001  0.0781  1.0000
  N   N28       1.0  0.68449  0.14479  0.04463  1.0000
  N   N29       1.0  0.73464  0.07077000000000001  0.08549  1.0000
  N   N30       1.0  0.9082800000000001  0.93914  0.11366999999999998  1.0000
  N   N31       1.0  0.9212500000000001  0.8919  0.03456  1.0000
  N   N32       1.0  0.7975800000000001  0.98672  0.9177199999999999  1.0000
  N   N33       1.0  0.7694400000000002  0.07434  0.13094  1.0000
  N   N34       1.0  0.7876599999999999  0.9036200000000002  0.24591999999999997  1.0000
  N   N35       1.0  0.74988  0.02090000000000004  0.9591599999999999  1.0000
  N   N36       1.0  0.75013  0.89775  0.20459  1.0000
  O   O1        1.0  0.40370999999999996  0.2439600000000001  0.74511  1.0000
  O   O2        1.0  0.07063000000000001  0.20114  0.08016999999999999  1.0000
  O   O3        1.0  0.44542000000000004  0.13345000000000004  0.72494  1.0000
  O   O4        1.0  0.57491  0.39399  0.56785  1.0000
  O   O5        1.0  0.8415300000000001  0.28504  0.31895  1.0000
  O   O6        1.0  0.6531099999999999  0.30422  0.4989799999999999  1.0000
  O   O7        1.0  0.030539999999999998  0.09982000000000002  0.12391  1.0000
  O   O8        1.0  0.9334400000000002  0.35293  0.23967  1.0000
  O   O9        1.0  0.09768999999999999  0.011180000000000011  0.74278  1.0000
  O   O10       1.0  0.43068000000000006  0.7174000000000003  0.07926  1.0000
  O   O11       1.0  0.05476  0.14129  0.72482  1.0000
  O   O12       1.0  0.92596  0.03836999999999998  0.56719  1.0000
  O   O13       1.0  0.6578  0.39569999999999994  0.31924  1.0000
  O   O14       1.0  0.84537  0.19639000000000004  0.50055  1.0000
  O   O15       1.0  0.46679999999999994  0.7761500000000001  0.12487999999999999  1.0000
  O   O16       1.0  0.5657899999999999  0.40724000000000016  0.24000999999999997  1.0000
  O   O17       1.0  0.5962999999999999  0.7560400000000003  0.25488999999999995  1.0000
  O   O18       1.0  0.9293799999999998  0.79886  0.91983  1.0000
  O   O19       1.0  0.5545899999999999  0.8665500000000004  0.27507  1.0000
  O   O20       1.0  0.4250999999999998  0.6060100000000003  0.43215  1.0000
  O   O21       1.0  0.15846999999999994  0.7149600000000002  0.6810599999999999  1.0000
  O   O22       1.0  0.34689  0.69577  0.50102  1.0000
  O   O23       1.0  0.96947  0.9001800000000001  0.87609  1.0000
  O   O24       1.0  0.06655999999999997  0.6470700000000001  0.76033  1.0000
  O   O25       1.0  0.9023200000000001  0.9888200000000001  0.25722  1.0000
  O   O26       1.0  0.5693299999999999  0.28259999999999996  0.9207400000000001  1.0000
  O   O27       1.0  0.94525  0.8587099999999999  0.27518  1.0000
  O   O28       1.0  0.07405000000000009  0.96163  0.43280999999999986  1.0000
  O   O29       1.0  0.34220000000000006  0.6042999999999998  0.68076  1.0000
  O   O30       1.0  0.15463999999999997  0.8036000000000001  0.49944999999999995  1.0000
  O   O31       1.0  0.53321  0.22385000000000002  0.8751199999999999  1.0000
  O   O32       1.0  0.4342100000000001  0.5927500000000001  0.75999  1.0000
