data_image0
_chemical_formula_structural       Zn8H96C144N16O48
_chemical_formula_sum              "Zn8 H96 C144 N16 O48"
_cell_length_a       17.68819
_cell_length_b       17.68819
_cell_length_c       22.92055
_cell_angle_alpha    90.0
_cell_angle_beta     90.0
_cell_angle_gamma    90.0

_space_group_name_H-M_alt    "P 1"
_space_group_IT_number       1

loop_
  _space_group_symop_operation_xyz
  'x, y, z'

loop_
  _atom_site_type_symbol
  _atom_site_label
  _atom_site_symmetry_multiplicity
  _atom_site_fract_x
  _atom_site_fract_y
  _atom_site_fract_z
  _atom_site_occupancy
  Zn  Zn1       1.0  0.5693500000000001  0.08431  0.79596  1.0000
  Zn  Zn2       1.0  0.43065  0.9156999999999998  0.79596  1.0000
  Zn  Zn3       1.0  0.08431  0.43065  0.20404000000000005  1.0000
  Zn  Zn4       1.0  0.9156999999999998  0.5693500000000001  0.20404000000000005  1.0000
  Zn  Zn5       1.0  0.93065  0.58431  0.7040400000000001  1.0000
  Zn  Zn6       1.0  0.06935000000000001  0.41569  0.7040400000000001  1.0000
  Zn  Zn7       1.0  0.41569  0.93065  0.29596  1.0000
  Zn  Zn8       1.0  0.58431  0.06935000000000001  0.29596  1.0000
  H   H1        1.0  0.64012  0.96721  0.50777  1.0000
  H   H2        1.0  0.54938  0.78557  0.77628  1.0000
  H   H3        1.0  0.7076400000000002  0.67848  0.7327200000000001  1.0000
  H   H4        1.0  0.46259999999999996  0.12968000000000002  0.68993  1.0000
  H   H5        1.0  0.9086200000000001  0.83081  0.74023  1.0000
  H   H6        1.0  0.5286400000000001  0.1712  0.39073  1.0000
  H   H7        1.0  0.6726  0.02798  0.7017100000000001  1.0000
  H   H8        1.0  0.63979  0.9662900000000001  0.39852  1.0000
  H   H9        1.0  0.52483  0.18245  0.49947  1.0000
  H   H10       1.0  0.46661  0.12954  0.5815800000000001  1.0000
  H   H11       1.0  0.7524  0.9487600000000002  0.77884  1.0000
  H   H12       1.0  0.68756  0.02574  0.59347  1.0000
  H   H13       1.0  0.35989  0.0328  0.50777  1.0000
  H   H14       1.0  0.45063  0.21443  0.77628  1.0000
  H   H15       1.0  0.29237  0.32152  0.7327200000000001  1.0000
  H   H16       1.0  0.5374000000000001  0.87033  0.68993  1.0000
  H   H17       1.0  0.09138000000000003  0.1692  0.74023  1.0000
  H   H18       1.0  0.47135999999999995  0.8288  0.39073  1.0000
  H   H19       1.0  0.3274  0.9720299999999998  0.7017100000000001  1.0000
  H   H20       1.0  0.36022  0.03371  0.39852  1.0000
  H   H21       1.0  0.47517  0.81755  0.49947  1.0000
  H   H22       1.0  0.5333900000000001  0.87047  0.5815800000000001  1.0000
  H   H23       1.0  0.24761  0.05124  0.77884  1.0000
  H   H24       1.0  0.31244000000000005  0.97426  0.59347  1.0000
  H   H25       1.0  0.96721  0.35989  0.49223  1.0000
  H   H26       1.0  0.78557  0.45063  0.22372000000000006  1.0000
  H   H27       1.0  0.67848  0.29237  0.26728  1.0000
  H   H28       1.0  0.12968000000000002  0.5374000000000001  0.31007  1.0000
  H   H29       1.0  0.83081  0.09138000000000003  0.25977  1.0000
  H   H30       1.0  0.1712  0.47135999999999995  0.60927  1.0000
  H   H31       1.0  0.02798  0.3274  0.29829  1.0000
  H   H32       1.0  0.9662900000000001  0.36022  0.60147  1.0000
  H   H33       1.0  0.18245  0.47517  0.50052  1.0000
  H   H34       1.0  0.12954  0.5333900000000001  0.41842  1.0000
  H   H35       1.0  0.9487600000000002  0.24761  0.22116000000000002  1.0000
  H   H36       1.0  0.02574  0.31244000000000005  0.40653  1.0000
  H   H37       1.0  0.0328  0.64012  0.49223  1.0000
  H   H38       1.0  0.21443  0.54938  0.22372000000000006  1.0000
  H   H39       1.0  0.32152  0.7076400000000002  0.26728  1.0000
  H   H40       1.0  0.87033  0.46259999999999996  0.31007  1.0000
  H   H41       1.0  0.1692  0.9086200000000001  0.25977  1.0000
  H   H42       1.0  0.8288  0.5286400000000001  0.60927  1.0000
  H   H43       1.0  0.9720299999999998  0.6726  0.29829  1.0000
  H   H44       1.0  0.03371  0.63979  0.60147  1.0000
  H   H45       1.0  0.81755  0.52483  0.50052  1.0000
  H   H46       1.0  0.87047  0.46661  0.41842  1.0000
  H   H47       1.0  0.05124  0.7524  0.22116000000000002  1.0000
  H   H48       1.0  0.97426  0.68756  0.40653  1.0000
  H   H49       1.0  0.85989  0.46721  0.9922300000000001  1.0000
  H   H50       1.0  0.95063  0.28557  0.72372  1.0000
  H   H51       1.0  0.79237  0.17848  0.76728  1.0000
  H   H52       1.0  0.0374  0.62968  0.81007  1.0000
  H   H53       1.0  0.59138  0.3308  0.75977  1.0000
  H   H54       1.0  0.97136  0.67121  0.10927  1.0000
  H   H55       1.0  0.82741  0.52798  0.79829  1.0000
  H   H56       1.0  0.86022  0.46629  0.10148000000000001  1.0000
  H   H57       1.0  0.97517  0.68246  0.00053  1.0000
  H   H58       1.0  0.03339  0.6295400000000001  0.91842  1.0000
  H   H59       1.0  0.74761  0.44876  0.7211600000000001  1.0000
  H   H60       1.0  0.81244  0.52575  0.9065300000000001  1.0000
  H   H61       1.0  0.14012  0.5328  0.9922300000000001  1.0000
  H   H62       1.0  0.04938  0.71444  0.72372  1.0000
  H   H63       1.0  0.20763  0.82153  0.76728  1.0000
  H   H64       1.0  0.9626  0.3703300000000001  0.81007  1.0000
  H   H65       1.0  0.40862000000000004  0.6692  0.75977  1.0000
  H   H66       1.0  0.02864  0.3288  0.10927  1.0000
  H   H67       1.0  0.1726  0.47202  0.79829  1.0000
  H   H68       1.0  0.13978  0.53371  0.10148000000000001  1.0000
  H   H69       1.0  0.02483  0.31755  0.00053  1.0000
  H   H70       1.0  0.9666100000000001  0.37047  0.91842  1.0000
  H   H71       1.0  0.2524  0.55125  0.7211600000000001  1.0000
  H   H72       1.0  0.18756  0.47426000000000007  0.9065300000000001  1.0000
  H   H73       1.0  0.5328  0.85989  0.007770000000000002  1.0000
  H   H74       1.0  0.71444  0.95063  0.27628  1.0000
  H   H75       1.0  0.82153  0.79237  0.23272  1.0000
  H   H76       1.0  0.3703300000000001  0.0374  0.18993000000000002  1.0000
  H   H77       1.0  0.6692  0.59138  0.24023000000000003  1.0000
  H   H78       1.0  0.3288  0.97136  0.89073  1.0000
  H   H79       1.0  0.47202  0.82741  0.20171000000000003  1.0000
  H   H80       1.0  0.53371  0.86022  0.89852  1.0000
  H   H81       1.0  0.31755  0.97517  0.9994700000000001  1.0000
  H   H82       1.0  0.37047  0.03339  0.08158000000000001  1.0000
  H   H83       1.0  0.55125  0.74761  0.27884  1.0000
  H   H84       1.0  0.47426000000000007  0.81244  0.09347000000000001  1.0000
  H   H85       1.0  0.46721  0.14012  0.007770000000000002  1.0000
  H   H86       1.0  0.28557  0.04938  0.27628  1.0000
  H   H87       1.0  0.17848  0.20763  0.23272  1.0000
  H   H88       1.0  0.62968  0.9626  0.18993000000000002  1.0000
  H   H89       1.0  0.3308  0.40862000000000004  0.24023000000000003  1.0000
  H   H90       1.0  0.67121  0.02864  0.89073  1.0000
  H   H91       1.0  0.52798  0.1726  0.20171000000000003  1.0000
  H   H92       1.0  0.46629  0.13978  0.89852  1.0000
  H   H93       1.0  0.68246  0.02483  0.9994700000000001  1.0000
  H   H94       1.0  0.6295400000000001  0.9666100000000001  0.08158000000000001  1.0000
  H   H95       1.0  0.44876  0.2524  0.27884  1.0000
  H   H96       1.0  0.52575  0.18756  0.09347000000000001  1.0000
  C   C1        1.0  0.58133  0.07477  0.51329  1.0000
  C   C2        1.0  0.57749  0.07682  0.57768  1.0000
  C   C3        1.0  0.60678  0.9118000000000002  0.78919  1.0000
  C   C4        1.0  0.6151100000000002  0.01401  0.48377  1.0000
  C   C5        1.0  0.66899  0.8602400000000002  0.7725800000000002  1.0000
  C   C6        1.0  0.71696  0.73776  0.74284  1.0000
  C   C7        1.0  0.65571  0.78252  0.7599400000000001  1.0000
  C   C8        1.0  0.79015  0.76695  0.73905  1.0000
  C   C9        1.0  0.5109400000000001  0.1064  0.6668200000000001  1.0000
  C   C10       1.0  0.55239  0.12749000000000002  0.4186800000000001  1.0000
  C   C11       1.0  0.62844  0.04961  0.67315  1.0000
  C   C12       1.0  0.61485  0.01268  0.42304  1.0000
  C   C13       1.0  0.5499900000000001  0.13286  0.47918  1.0000
  C   C14       1.0  0.80418  0.84421  0.75285  1.0000
  C   C15       1.0  0.51408  0.10694  0.60619  1.0000
  C   C16       1.0  0.74294  0.88953  0.76864  1.0000
  C   C17       1.0  0.63595  0.04806  0.61272  1.0000
  C   C18       1.0  0.8537  0.71645  0.7222  1.0000
  C   C19       1.0  0.41867  0.9252299999999999  0.51329  1.0000
  C   C20       1.0  0.42252  0.92318  0.57768  1.0000
  C   C21       1.0  0.39323  0.08821  0.78919  1.0000
  C   C22       1.0  0.38489  0.9860000000000001  0.48377  1.0000
  C   C23       1.0  0.33101  0.13977  0.7725800000000002  1.0000
  C   C24       1.0  0.28304  0.26224000000000003  0.74284  1.0000
  C   C25       1.0  0.34429  0.21748000000000003  0.7599400000000001  1.0000
  C   C26       1.0  0.20985  0.23305  0.73905  1.0000
  C   C27       1.0  0.48906  0.89361  0.6668200000000001  1.0000
  C   C28       1.0  0.44761000000000006  0.87251  0.4186800000000001  1.0000
  C   C29       1.0  0.37156  0.9504000000000001  0.67315  1.0000
  C   C30       1.0  0.38516  0.9873199999999999  0.42304  1.0000
  C   C31       1.0  0.45002  0.86715  0.47918  1.0000
  C   C32       1.0  0.19582  0.1558  0.75285  1.0000
  C   C33       1.0  0.48592  0.89307  0.60619  1.0000
  C   C34       1.0  0.25706000000000007  0.11048  0.76864  1.0000
  C   C35       1.0  0.36406  0.95194  0.61272  1.0000
  C   C36       1.0  0.1463  0.28356  0.7222  1.0000
  C   C37       1.0  0.07477  0.41867  0.48671  1.0000
  C   C38       1.0  0.07682  0.42252  0.42231  1.0000
  C   C39       1.0  0.9118000000000002  0.39323  0.21081  1.0000
  C   C40       1.0  0.01401  0.38489  0.51623  1.0000
  C   C41       1.0  0.8602400000000002  0.33101  0.22742  1.0000
  C   C42       1.0  0.73776  0.28304  0.25716  1.0000
  C   C43       1.0  0.78252  0.34429  0.24006000000000002  1.0000
  C   C44       1.0  0.76695  0.20985  0.26094  1.0000
  C   C45       1.0  0.1064  0.48906  0.33318000000000003  1.0000
  C   C46       1.0  0.12749000000000002  0.44761000000000006  0.58132  1.0000
  C   C47       1.0  0.04961  0.37156  0.32685  1.0000
  C   C48       1.0  0.01268  0.38516  0.57696  1.0000
  C   C49       1.0  0.13286  0.45002  0.52082  1.0000
  C   C50       1.0  0.84421  0.19582  0.24715  1.0000
  C   C51       1.0  0.10694  0.48592  0.39381  1.0000
  C   C52       1.0  0.88953  0.25706000000000007  0.23136  1.0000
  C   C53       1.0  0.04806  0.36406  0.38728  1.0000
  C   C54       1.0  0.71645  0.1463  0.27779  1.0000
  C   C55       1.0  0.9252299999999999  0.58133  0.48671  1.0000
  C   C56       1.0  0.92318  0.57749  0.42231  1.0000
  C   C57       1.0  0.08821  0.60678  0.21081  1.0000
  C   C58       1.0  0.9860000000000001  0.6151100000000002  0.51623  1.0000
  C   C59       1.0  0.13977  0.66899  0.22742  1.0000
  C   C60       1.0  0.26224000000000003  0.71696  0.25716  1.0000
  C   C61       1.0  0.21748000000000003  0.65571  0.24006000000000002  1.0000
  C   C62       1.0  0.23305  0.79015  0.26094  1.0000
  C   C63       1.0  0.89361  0.5109400000000001  0.33318000000000003  1.0000
  C   C64       1.0  0.87251  0.55239  0.58132  1.0000
  C   C65       1.0  0.9504000000000001  0.62844  0.32685  1.0000
  C   C66       1.0  0.9873199999999999  0.61485  0.57696  1.0000
  C   C67       1.0  0.86715  0.5499900000000001  0.52082  1.0000
  C   C68       1.0  0.1558  0.80418  0.24715  1.0000
  C   C69       1.0  0.89307  0.51408  0.39381  1.0000
  C   C70       1.0  0.11048  0.74294  0.23136  1.0000
  C   C71       1.0  0.95194  0.63595  0.38728  1.0000
  C   C72       1.0  0.28356  0.8537  0.27779  1.0000
  C   C73       1.0  0.9186699999999999  0.57477  0.98671  1.0000
  C   C74       1.0  0.9225200000000001  0.57682  0.9223100000000001  1.0000
  C   C75       1.0  0.8932300000000002  0.4118  0.7108100000000002  1.0000
  C   C76       1.0  0.88489  0.51401  0.01623  1.0000
  C   C77       1.0  0.83101  0.36023  0.72742  1.0000
  C   C78       1.0  0.78305  0.23776  0.75715  1.0000
  C   C79       1.0  0.8443  0.28252  0.74006  1.0000
  C   C80       1.0  0.70986  0.26695  0.76094  1.0000
  C   C81       1.0  0.98906  0.6064  0.83318  1.0000
  C   C82       1.0  0.94761  0.62749  0.08132  1.0000
  C   C83       1.0  0.87156  0.54961  0.82685  1.0000
  C   C84       1.0  0.88516  0.51268  0.07696  1.0000
  C   C85       1.0  0.95002  0.63286  0.02082  1.0000
  C   C86       1.0  0.69583  0.34421  0.7471400000000001  1.0000
  C   C87       1.0  0.9859200000000001  0.60694  0.8938  1.0000
  C   C88       1.0  0.75706  0.38952  0.7313600000000002  1.0000
  C   C89       1.0  0.86406  0.5480600000000001  0.88728  1.0000
  C   C90       1.0  0.6463  0.21644000000000002  0.7777900000000001  1.0000
  C   C91       1.0  0.08133  0.42523  0.98671  1.0000
  C   C92       1.0  0.07748  0.42318  0.9223100000000001  1.0000
  C   C93       1.0  0.10678000000000001  0.58821  0.7108100000000002  1.0000
  C   C94       1.0  0.11511000000000002  0.48599  0.01623  1.0000
  C   C95       1.0  0.16899  0.63977  0.72742  1.0000
  C   C96       1.0  0.21696000000000004  0.76224  0.75715  1.0000
  C   C97       1.0  0.15571  0.71748  0.74006  1.0000
  C   C98       1.0  0.29015  0.7330600000000003  0.76094  1.0000
  C   C99       1.0  0.01094  0.39361000000000007  0.83318  1.0000
  C   C100      1.0  0.05239  0.37251  0.08132  1.0000
  C   C101      1.0  0.12844  0.4504  0.82685  1.0000
  C   C102      1.0  0.11484000000000001  0.48732  0.07696  1.0000
  C   C103      1.0  0.04999000000000001  0.36714  0.02082  1.0000
  C   C104      1.0  0.30418  0.6558  0.7471400000000001  1.0000
  C   C105      1.0  0.01408  0.39307  0.8938  1.0000
  C   C106      1.0  0.24293999999999996  0.61048  0.7313600000000002  1.0000
  C   C107      1.0  0.13594  0.45194  0.88728  1.0000
  C   C108      1.0  0.35370000000000007  0.78356  0.7777900000000001  1.0000
  C   C109      1.0  0.42523  0.9186699999999999  0.01329  1.0000
  C   C110      1.0  0.42318  0.9225200000000001  0.07769  1.0000
  C   C111      1.0  0.58821  0.8932300000000002  0.28919  1.0000
  C   C112      1.0  0.48599  0.88489  0.98377  1.0000
  C   C113      1.0  0.63977  0.83101  0.27258000000000004  1.0000
  C   C114      1.0  0.76224  0.78305  0.24284  1.0000
  C   C115      1.0  0.71748  0.8443  0.25994  1.0000
  C   C116      1.0  0.7330600000000003  0.70986  0.23906  1.0000
  C   C117      1.0  0.39361000000000007  0.98906  0.16682000000000002  1.0000
  C   C118      1.0  0.37251  0.94761  0.91868  1.0000
  C   C119      1.0  0.4504  0.87156  0.17315  1.0000
  C   C120      1.0  0.48732  0.88516  0.9230400000000002  1.0000
  C   C121      1.0  0.36714  0.95002  0.9791800000000002  1.0000
  C   C122      1.0  0.6558  0.69583  0.25285  1.0000
  C   C123      1.0  0.39307  0.9859200000000001  0.10619000000000002  1.0000
  C   C124      1.0  0.61048  0.75706  0.26864  1.0000
  C   C125      1.0  0.45194  0.86406  0.11272  1.0000
  C   C126      1.0  0.78356  0.6463  0.22220000000000006  1.0000
  C   C127      1.0  0.57477  0.08133  0.01329  1.0000
  C   C128      1.0  0.57682  0.07748  0.07769  1.0000
  C   C129      1.0  0.4118  0.10678000000000001  0.28919  1.0000
  C   C130      1.0  0.51401  0.11511000000000002  0.98377  1.0000
  C   C131      1.0  0.36023  0.16899  0.27258000000000004  1.0000
  C   C132      1.0  0.23776  0.21696000000000004  0.24284  1.0000
  C   C133      1.0  0.28252  0.15571  0.25994  1.0000
  C   C134      1.0  0.26695  0.29015  0.23906  1.0000
  C   C135      1.0  0.6064  0.01094  0.16682000000000002  1.0000
  C   C136      1.0  0.62749  0.05239  0.91868  1.0000
  C   C137      1.0  0.54961  0.12844  0.17315  1.0000
  C   C138      1.0  0.51268  0.11484000000000001  0.9230400000000002  1.0000
  C   C139      1.0  0.63286  0.04999000000000001  0.9791800000000002  1.0000
  C   C140      1.0  0.34421  0.30418  0.25285  1.0000
  C   C141      1.0  0.60694  0.01408  0.10619000000000002  1.0000
  C   C142      1.0  0.38952  0.24293999999999996  0.26864  1.0000
  C   C143      1.0  0.5480600000000001  0.13594  0.11272  1.0000
  C   C144      1.0  0.21644000000000002  0.35370000000000007  0.22220000000000006  1.0000
  N   N1        1.0  0.56666  0.07756  0.70008  1.0000
  N   N2        1.0  0.58345  0.068  0.39079  1.0000
  N   N3        1.0  0.43334  0.9224399999999999  0.70008  1.0000
  N   N4        1.0  0.41655  0.9320000000000002  0.39079  1.0000
  N   N5        1.0  0.07756  0.43334  0.29991  1.0000
  N   N6        1.0  0.068  0.41655  0.60921  1.0000
  N   N7        1.0  0.9224399999999999  0.56666  0.29991  1.0000
  N   N8        1.0  0.9320000000000002  0.58345  0.60921  1.0000
  N   N9        1.0  0.93335  0.57757  0.7999100000000001  1.0000
  N   N10       1.0  0.9165500000000001  0.568  0.10921000000000003  1.0000
  N   N11       1.0  0.06666  0.42244  0.7999100000000001  1.0000
  N   N12       1.0  0.08345  0.432  0.10921000000000003  1.0000
  N   N13       1.0  0.42244  0.93335  0.20008000000000004  1.0000
  N   N14       1.0  0.432  0.9165500000000001  0.8907900000000002  1.0000
  N   N15       1.0  0.57757  0.06666  0.20008000000000004  1.0000
  N   N16       1.0  0.568  0.08345  0.8907900000000002  1.0000
  O   O1        1.0  0.62143  0.9813700000000001  0.7971700000000002  1.0000
  O   O2        1.0  0.5871100000000001  0.74802  0.7627000000000002  1.0000
  O   O3        1.0  0.87455  0.87456  0.75134  1.0000
  O   O4        1.0  0.54036  0.88212  0.79455  1.0000
  O   O5        1.0  0.83723  0.64747  0.70862  1.0000
  O   O6        1.0  0.9208099999999999  0.74211  0.7227400000000002  1.0000
  O   O7        1.0  0.3785700000000001  0.01864  0.7971700000000002  1.0000
  O   O8        1.0  0.4129  0.25198  0.7627000000000002  1.0000
  O   O9        1.0  0.12546  0.12544  0.75134  1.0000
  O   O10       1.0  0.45965000000000006  0.11789000000000001  0.79455  1.0000
  O   O11       1.0  0.16277  0.35253  0.70862  1.0000
  O   O12       1.0  0.0792  0.25789  0.7227400000000002  1.0000
  O   O13       1.0  0.9813700000000001  0.3785700000000001  0.20282  1.0000
  O   O14       1.0  0.74802  0.4129  0.23729000000000003  1.0000
  O   O15       1.0  0.87456  0.12546  0.24866  1.0000
  O   O16       1.0  0.88212  0.45965000000000006  0.20545  1.0000
  O   O17       1.0  0.64747  0.16277  0.29138  1.0000
  O   O18       1.0  0.74211  0.0792  0.27726  1.0000
  O   O19       1.0  0.01864  0.62143  0.20282  1.0000
  O   O20       1.0  0.25198  0.5871100000000001  0.23729000000000003  1.0000
  O   O21       1.0  0.12544  0.87455  0.24866  1.0000
  O   O22       1.0  0.11789000000000001  0.54036  0.20545  1.0000
  O   O23       1.0  0.35253  0.83723  0.29138  1.0000
  O   O24       1.0  0.25789  0.9208099999999999  0.27726  1.0000
  O   O25       1.0  0.87858  0.48136000000000007  0.70282  1.0000
  O   O26       1.0  0.9129000000000002  0.24802000000000002  0.73729  1.0000
  O   O27       1.0  0.62546  0.37456000000000006  0.7486600000000001  1.0000
  O   O28       1.0  0.9596499999999999  0.38211  0.70545  1.0000
  O   O29       1.0  0.6627700000000001  0.14747  0.79137  1.0000
  O   O30       1.0  0.5792  0.24211  0.77726  1.0000
  O   O31       1.0  0.12143  0.51864  0.70282  1.0000
  O   O32       1.0  0.08710000000000001  0.75198  0.73729  1.0000
  O   O33       1.0  0.37454  0.62545  0.7486600000000001  1.0000
  O   O34       1.0  0.04035  0.61789  0.70545  1.0000
  O   O35       1.0  0.33723  0.85253  0.79137  1.0000
  O   O36       1.0  0.4208100000000001  0.75789  0.77726  1.0000
  O   O37       1.0  0.51864  0.87858  0.29717  1.0000
  O   O38       1.0  0.75198  0.9129000000000002  0.2627  1.0000
  O   O39       1.0  0.62545  0.62546  0.25134  1.0000
  O   O40       1.0  0.61789  0.9596499999999999  0.29455  1.0000
  O   O41       1.0  0.85253  0.6627700000000001  0.20862  1.0000
  O   O42       1.0  0.75789  0.5792  0.22274000000000002  1.0000
  O   O43       1.0  0.48136000000000007  0.12143  0.29717  1.0000
  O   O44       1.0  0.24802000000000002  0.08710000000000001  0.2627  1.0000
  O   O45       1.0  0.37456000000000006  0.37454  0.25134  1.0000
  O   O46       1.0  0.38211  0.04035  0.29455  1.0000
  O   O47       1.0  0.14747  0.33723  0.20862  1.0000
  O   O48       1.0  0.24211  0.4208100000000001  0.22274000000000002  1.0000
