data_image0
_chemical_formula_structural       Zn8H112C104S8N16O32
_chemical_formula_sum              "Zn8 H112 C104 S8 N16 O32"
_cell_length_a       9.50175
_cell_length_b       15.80445
_cell_length_c       22.1979
_cell_angle_alpha    90.0
_cell_angle_beta     90.0
_cell_angle_gamma    90.0

_space_group_name_H-M_alt    "P 1"
_space_group_IT_number       1

loop_
  _space_group_symop_operation_xyz
  'x, y, z'

loop_
  _atom_site_type_symbol
  _atom_site_label
  _atom_site_symmetry_multiplicity
  _atom_site_fract_x
  _atom_site_fract_y
  _atom_site_fract_z
  _atom_site_occupancy
  Zn  Zn1       1.0  0.81214  0.30837  0.51226  1.0000
  Zn  Zn2       1.0  0.68786  0.69162  0.01226  1.0000
  Zn  Zn3       1.0  0.18786  0.80837  0.9877399999999998  1.0000
  Zn  Zn4       1.0  0.31214  0.19163  0.48774  1.0000
  Zn  Zn5       1.0  0.18786  0.6916300000000002  0.48774  1.0000
  Zn  Zn6       1.0  0.31214  0.30837  0.9877399999999998  1.0000
  Zn  Zn7       1.0  0.81214  0.19163  0.01226  1.0000
  Zn  Zn8       1.0  0.68786  0.80837  0.51226  1.0000
  H   H1        1.0  0.82536  0.49985  0.49466  1.0000
  H   H2        1.0  0.68057  0.60658  0.44262  1.0000
  H   H3        1.0  0.39229  0.40654  0.39335999999999993  1.0000
  H   H4        1.0  0.5476  0.3065  0.45007  1.0000
  H   H5        1.0  0.44408000000000003  0.63865  0.39192  1.0000
  H   H6        1.0  0.33173  0.5534900000000003  0.3713  1.0000
  H   H7        1.0  0.60808  0.60433  0.30965  1.0000
  H   H8        1.0  0.51279  0.51256  0.2905  1.0000
  H   H9        1.0  0.3876  0.69182  0.28836  1.0000
  H   H10       1.0  0.30326  0.5982700000000002  0.26305  1.0000
  H   H11       1.0  0.40651  0.52032  0.16851  1.0000
  H   H12       1.0  0.5256  0.54373  0.07082  1.0000
  H   H13       1.0  0.68716  0.77493  0.12805  1.0000
  H   H14       1.0  0.5633  0.7636200000000002  0.22682999999999998  1.0000
  H   H15       1.0  0.67464  0.50015  0.99466  1.0000
  H   H16       1.0  0.81943  0.39342  0.94262  1.0000
  H   H17       1.0  0.10771  0.59346  0.89336  1.0000
  H   H18       1.0  0.9524  0.69349  0.95007  1.0000
  H   H19       1.0  0.05592  0.36135  0.8919199999999999  1.0000
  H   H20       1.0  0.16827  0.44651000000000013  0.8713  1.0000
  H   H21       1.0  0.89192  0.39567  0.8096499999999999  1.0000
  H   H22       1.0  0.98721  0.48744  0.7905  1.0000
  H   H23       1.0  0.1124  0.3081800000000001  0.78836  1.0000
  H   H24       1.0  0.19674  0.40173  0.76305  1.0000
  H   H25       1.0  0.09349  0.47968  0.66851  1.0000
  H   H26       1.0  0.9744  0.4562600000000001  0.57082  1.0000
  H   H27       1.0  0.81284  0.22507  0.62805  1.0000
  H   H28       1.0  0.9367000000000001  0.23638  0.72683  1.0000
  H   H29       1.0  0.17464  0.9998500000000001  0.00534  1.0000
  H   H30       1.0  0.31943  0.10658  0.057379999999999994  1.0000
  H   H31       1.0  0.60771  0.90654  0.10664  1.0000
  H   H32       1.0  0.4524000000000001  0.8065000000000002  0.049929999999999995  1.0000
  H   H33       1.0  0.55592  0.13865  0.10808  1.0000
  H   H34       1.0  0.66827  0.05349  0.1287  1.0000
  H   H35       1.0  0.39192  0.10433000000000003  0.19034999999999996  1.0000
  H   H36       1.0  0.48721  0.01256  0.20951  1.0000
  H   H37       1.0  0.6124  0.19182000000000005  0.21164  1.0000
  H   H38       1.0  0.69674  0.09827  0.23694999999999997  1.0000
  H   H39       1.0  0.59349  0.02032  0.33149  1.0000
  H   H40       1.0  0.4744  0.04373000000000001  0.42917999999999995  1.0000
  H   H41       1.0  0.31284  0.27493  0.37195  1.0000
  H   H42       1.0  0.4366999999999999  0.2636200000000001  0.27317  1.0000
  H   H43       1.0  0.32536  0.00015  0.50534  1.0000
  H   H44       1.0  0.18057  0.89342  0.55738  1.0000
  H   H45       1.0  0.8922900000000001  0.09346  0.60664  1.0000
  H   H46       1.0  0.0476  0.19350000000000006  0.54994  1.0000
  H   H47       1.0  0.9440800000000001  0.8613500000000002  0.60808  1.0000
  H   H48       1.0  0.83173  0.9465  0.6287  1.0000
  H   H49       1.0  0.10808  0.89567  0.69035  1.0000
  H   H50       1.0  0.01279  0.9874400000000002  0.70951  1.0000
  H   H51       1.0  0.8876  0.80818  0.71164  1.0000
  H   H52       1.0  0.80326  0.90172  0.73695  1.0000
  H   H53       1.0  0.9065099999999999  0.97968  0.83149  1.0000
  H   H54       1.0  0.0256  0.95626  0.9291799999999998  1.0000
  H   H55       1.0  0.18716  0.72506  0.8719599999999998  1.0000
  H   H56       1.0  0.0633  0.73638  0.77317  1.0000
  H   H57       1.0  0.17464  0.50015  0.50534  1.0000
  H   H58       1.0  0.31943  0.39342  0.55738  1.0000
  H   H59       1.0  0.60771  0.59346  0.60664  1.0000
  H   H60       1.0  0.4524000000000001  0.69349  0.54994  1.0000
  H   H61       1.0  0.55592  0.36135  0.60808  1.0000
  H   H62       1.0  0.66827  0.44651000000000013  0.6287  1.0000
  H   H63       1.0  0.39192  0.39567  0.69035  1.0000
  H   H64       1.0  0.48721  0.48744  0.70951  1.0000
  H   H65       1.0  0.6124  0.3081800000000001  0.71164  1.0000
  H   H66       1.0  0.69674  0.40172000000000013  0.73695  1.0000
  H   H67       1.0  0.59349  0.47968  0.83149  1.0000
  H   H68       1.0  0.4744  0.4562600000000001  0.9291799999999998  1.0000
  H   H69       1.0  0.31284  0.22507  0.8719599999999998  1.0000
  H   H70       1.0  0.4366999999999999  0.23638  0.77317  1.0000
  H   H71       1.0  0.32536  0.49985  0.00534  1.0000
  H   H72       1.0  0.18057  0.60658  0.057379999999999994  1.0000
  H   H73       1.0  0.8922900000000001  0.40654  0.10664  1.0000
  H   H74       1.0  0.0476  0.3065  0.049929999999999995  1.0000
  H   H75       1.0  0.9440800000000001  0.63865  0.10808  1.0000
  H   H76       1.0  0.83173  0.5534900000000003  0.1287  1.0000
  H   H77       1.0  0.10808  0.60433  0.19034999999999996  1.0000
  H   H78       1.0  0.01279  0.51256  0.20951  1.0000
  H   H79       1.0  0.8876  0.69181  0.21164  1.0000
  H   H80       1.0  0.80326  0.5982700000000002  0.23694999999999997  1.0000
  H   H81       1.0  0.9065099999999999  0.52032  0.33149  1.0000
  H   H82       1.0  0.0256  0.54373  0.42917999999999995  1.0000
  H   H83       1.0  0.18716  0.77493  0.37195  1.0000
  H   H84       1.0  0.0633  0.7636100000000002  0.27317  1.0000
  H   H85       1.0  0.82536  0.00015  0.99466  1.0000
  H   H86       1.0  0.68057  0.89342  0.94262  1.0000
  H   H87       1.0  0.39229  0.09346  0.89336  1.0000
  H   H88       1.0  0.5476  0.19349  0.95007  1.0000
  H   H89       1.0  0.44408000000000003  0.8613500000000002  0.8919199999999999  1.0000
  H   H90       1.0  0.33173  0.9465  0.8713  1.0000
  H   H91       1.0  0.60808  0.89567  0.8096499999999999  1.0000
  H   H92       1.0  0.51279  0.9874400000000002  0.7905  1.0000
  H   H93       1.0  0.3876  0.80818  0.78836  1.0000
  H   H94       1.0  0.30326  0.90173  0.76305  1.0000
  H   H95       1.0  0.40651  0.97967  0.66851  1.0000
  H   H96       1.0  0.5256  0.95626  0.57082  1.0000
  H   H97       1.0  0.68716  0.7250700000000002  0.62805  1.0000
  H   H98       1.0  0.5633  0.73638  0.72683  1.0000
  H   H99       1.0  0.67464  0.9998500000000001  0.49466  1.0000
  H   H100      1.0  0.81943  0.10658  0.44262  1.0000
  H   H101      1.0  0.10771  0.90654  0.39335999999999993  1.0000
  H   H102      1.0  0.9524  0.8065000000000002  0.45007  1.0000
  H   H103      1.0  0.05592  0.13865  0.39192  1.0000
  H   H104      1.0  0.16827  0.05349  0.3713  1.0000
  H   H105      1.0  0.89192  0.10433000000000003  0.30965  1.0000
  H   H106      1.0  0.98721  0.01256  0.2905  1.0000
  H   H107      1.0  0.1124  0.19182000000000005  0.28836  1.0000
  H   H108      1.0  0.19674  0.09827  0.26305  1.0000
  H   H109      1.0  0.09349  0.02032  0.16851  1.0000
  H   H110      1.0  0.9744  0.04373000000000001  0.07082  1.0000
  H   H111      1.0  0.81284  0.27493  0.12805  1.0000
  H   H112      1.0  0.9367000000000001  0.2636200000000001  0.22682999999999998  1.0000
  C   C1        1.0  0.72949  0.48093  0.47162  1.0000
  C   C2        1.0  0.64833  0.54046  0.44121  1.0000
  C   C3        1.0  0.52631  0.51478  0.41093999999999997  1.0000
  C   C4        1.0  0.48863000000000006  0.42915  0.41441  1.0000
  C   C5        1.0  0.57372  0.37314  0.44573999999999997  1.0000
  C   C6        1.0  0.44182  0.57448  0.37293  1.0000
  C   C7        1.0  0.50163  0.57709  0.30842  1.0000
  C   C8        1.0  0.40582  0.63001  0.26697  1.0000
  C   C9        1.0  0.47162000000000004  0.6414100000000003  0.20606  1.0000
  C   C10       1.0  0.46417  0.5790200000000002  0.16111  1.0000
  C   C11       1.0  0.53081  0.5915500000000002  0.10607  1.0000
  C   C12       1.0  0.61745  0.72199  0.13794  1.0000
  C   C13       1.0  0.55154  0.71376  0.19329999999999994  1.0000
  C   C14       1.0  0.77051  0.51906  0.9716199999999999  1.0000
  C   C15       1.0  0.8516700000000001  0.45954  0.94121  1.0000
  C   C16       1.0  0.9736800000000001  0.48522  0.9109399999999999  1.0000
  C   C17       1.0  0.01137  0.5708500000000002  0.91441  1.0000
  C   C18       1.0  0.9262799999999999  0.62686  0.94574  1.0000
  C   C19       1.0  0.05818  0.42552  0.8729299999999999  1.0000
  C   C20       1.0  0.9983700000000001  0.42291  0.8084199999999999  1.0000
  C   C21       1.0  0.09418  0.3699800000000001  0.76697  1.0000
  C   C22       1.0  0.028380000000000002  0.35859  0.7060599999999999  1.0000
  C   C23       1.0  0.03583  0.42097  0.66111  1.0000
  C   C24       1.0  0.9691899999999999  0.40844  0.60607  1.0000
  C   C25       1.0  0.88255  0.27801  0.63794  1.0000
  C   C26       1.0  0.94846  0.28624  0.6932999999999999  1.0000
  C   C27       1.0  0.27051  0.9809300000000002  0.02838  1.0000
  C   C28       1.0  0.35167  0.04046  0.058789999999999995  1.0000
  C   C29       1.0  0.47368  0.01478  0.08906  1.0000
  C   C30       1.0  0.51137  0.92915  0.08559  1.0000
  C   C31       1.0  0.42628  0.8731400000000001  0.05425999999999999  1.0000
  C   C32       1.0  0.55818  0.07448  0.12707  1.0000
  C   C33       1.0  0.4983699999999999  0.07709000000000003  0.19158  1.0000
  C   C34       1.0  0.59418  0.13001000000000004  0.23304  1.0000
  C   C35       1.0  0.52838  0.14141  0.29395  1.0000
  C   C36       1.0  0.53583  0.07902  0.33889  1.0000
  C   C37       1.0  0.46919  0.09156  0.39393999999999996  1.0000
  C   C38       1.0  0.38255  0.22199  0.36207  1.0000
  C   C39       1.0  0.4484600000000001  0.21376  0.3067  1.0000
  C   C40       1.0  0.22949  0.01906  0.52839  1.0000
  C   C41       1.0  0.14833  0.9595400000000002  0.55879  1.0000
  C   C42       1.0  0.02631  0.98522  0.58906  1.0000
  C   C43       1.0  0.98863  0.07085  0.58559  1.0000
  C   C44       1.0  0.07372  0.12686  0.55426  1.0000
  C   C45       1.0  0.94182  0.9255100000000003  0.6270699999999999  1.0000
  C   C46       1.0  0.00163  0.9229100000000002  0.69158  1.0000
  C   C47       1.0  0.9058200000000001  0.8699800000000002  0.7330399999999999  1.0000
  C   C48       1.0  0.9716200000000002  0.85858  0.79395  1.0000
  C   C49       1.0  0.96417  0.92097  0.83889  1.0000
  C   C50       1.0  0.03081  0.90844  0.8939399999999998  1.0000
  C   C51       1.0  0.11745000000000001  0.7780100000000002  0.86207  1.0000
  C   C52       1.0  0.05154  0.78624  0.8066999999999999  1.0000
  C   C53       1.0  0.27051  0.51906  0.52839  1.0000
  C   C54       1.0  0.35167  0.45954  0.55879  1.0000
  C   C55       1.0  0.47369000000000006  0.48522  0.58906  1.0000
  C   C56       1.0  0.51137  0.5708500000000002  0.58559  1.0000
  C   C57       1.0  0.42628  0.62686  0.55426  1.0000
  C   C58       1.0  0.55818  0.42552  0.6270699999999999  1.0000
  C   C59       1.0  0.4983699999999999  0.42291  0.69158  1.0000
  C   C60       1.0  0.59418  0.3699800000000001  0.7330399999999999  1.0000
  C   C61       1.0  0.52838  0.3585800000000001  0.79395  1.0000
  C   C62       1.0  0.53583  0.42097  0.83889  1.0000
  C   C63       1.0  0.46919  0.40844  0.8939299999999999  1.0000
  C   C64       1.0  0.38255  0.27801  0.86207  1.0000
  C   C65       1.0  0.4484600000000001  0.28624  0.8066999999999999  1.0000
  C   C66       1.0  0.22949  0.48094  0.02838  1.0000
  C   C67       1.0  0.14833  0.54046  0.058789999999999995  1.0000
  C   C68       1.0  0.026320000000000003  0.51478  0.08906  1.0000
  C   C69       1.0  0.98863  0.42915  0.08559  1.0000
  C   C70       1.0  0.07372  0.37314  0.05425999999999999  1.0000
  C   C71       1.0  0.94182  0.57448  0.12707  1.0000
  C   C72       1.0  0.00163  0.57709  0.19158  1.0000
  C   C73       1.0  0.9058200000000001  0.63001  0.23304  1.0000
  C   C74       1.0  0.9716200000000002  0.6414100000000003  0.29395  1.0000
  C   C75       1.0  0.96417  0.5790200000000002  0.33889  1.0000
  C   C76       1.0  0.03081  0.5915500000000002  0.39393999999999996  1.0000
  C   C77       1.0  0.11745000000000001  0.72199  0.36207  1.0000
  C   C78       1.0  0.05154  0.71376  0.3067  1.0000
  C   C79       1.0  0.72949  0.01906  0.9716199999999999  1.0000
  C   C80       1.0  0.64833  0.9595400000000002  0.94121  1.0000
  C   C81       1.0  0.52632  0.98522  0.9109399999999999  1.0000
  C   C82       1.0  0.48863000000000006  0.07085  0.91441  1.0000
  C   C83       1.0  0.57372  0.12686  0.94574  1.0000
  C   C84       1.0  0.44182  0.9255100000000003  0.8729299999999999  1.0000
  C   C85       1.0  0.50163  0.9229100000000002  0.8084199999999999  1.0000
  C   C86       1.0  0.40582  0.8699800000000002  0.76697  1.0000
  C   C87       1.0  0.47162000000000004  0.85858  0.7060599999999999  1.0000
  C   C88       1.0  0.46417  0.92097  0.66111  1.0000
  C   C89       1.0  0.53081  0.90844  0.60607  1.0000
  C   C90       1.0  0.61745  0.7780100000000002  0.63794  1.0000
  C   C91       1.0  0.55154  0.78624  0.6932999999999999  1.0000
  C   C92       1.0  0.77051  0.9809300000000002  0.47162  1.0000
  C   C93       1.0  0.8516700000000001  0.04046  0.44121  1.0000
  C   C94       1.0  0.97369  0.01478  0.41093999999999997  1.0000
  C   C95       1.0  0.01137  0.92915  0.41441  1.0000
  C   C96       1.0  0.9262799999999999  0.8731400000000001  0.44573999999999997  1.0000
  C   C97       1.0  0.05818  0.07448  0.37293  1.0000
  C   C98       1.0  0.9983700000000001  0.07709000000000003  0.30842  1.0000
  C   C99       1.0  0.09418  0.13002  0.26697  1.0000
  C   C100      1.0  0.028380000000000002  0.14141  0.20606  1.0000
  C   C101      1.0  0.03583  0.07902  0.16111  1.0000
  C   C102      1.0  0.9691899999999999  0.09156  0.10607  1.0000
  C   C103      1.0  0.88255  0.22199  0.13794  1.0000
  C   C104      1.0  0.94846  0.21376  0.19329999999999994  1.0000
  S   S1        1.0  0.07406  0.32252  0.44187  1.0000
  S   S2        1.0  0.42594000000000004  0.67747  0.9418699999999999  1.0000
  S   S3        1.0  0.92594  0.82252  0.05812999999999999  1.0000
  S   S4        1.0  0.57406  0.17748  0.5581299999999999  1.0000
  S   S5        1.0  0.92594  0.67747  0.5581299999999999  1.0000
  S   S6        1.0  0.57406  0.32252  0.05812999999999999  1.0000
  S   S7        1.0  0.07406  0.17748  0.9418699999999999  1.0000
  S   S8        1.0  0.42594000000000004  0.82252  0.44187  1.0000
  N   N1        1.0  0.69316  0.39809  0.47353  1.0000
  N   N2        1.0  0.60591  0.66251  0.09427999999999999  1.0000
  N   N3        1.0  0.80684  0.6019  0.97353  1.0000
  N   N4        1.0  0.8940899999999999  0.3374900000000001  0.59428  1.0000
  N   N5        1.0  0.30684  0.8981000000000002  0.02647  1.0000
  N   N6        1.0  0.39409  0.16251000000000004  0.4057299999999999  1.0000
  N   N7        1.0  0.19316  0.1019  0.52647  1.0000
  N   N8        1.0  0.10591000000000002  0.83749  0.90573  1.0000
  N   N9        1.0  0.30684  0.6019  0.52647  1.0000
  N   N10       1.0  0.39409  0.3374900000000001  0.90573  1.0000
  N   N11       1.0  0.19316  0.3981  0.02647  1.0000
  N   N12       1.0  0.10591000000000002  0.66251  0.4057299999999999  1.0000
  N   N13       1.0  0.69316  0.1019  0.97353  1.0000
  N   N14       1.0  0.60591  0.83749  0.59428  1.0000
  N   N15       1.0  0.80684  0.8980900000000003  0.47353  1.0000
  N   N16       1.0  0.8940899999999999  0.16251000000000004  0.09427999999999999  1.0000
  O   O1        1.0  0.95613  0.25917  0.45746999999999993  1.0000
  O   O2        1.0  0.20122  0.29769  0.48125  1.0000
  O   O3        1.0  0.10877999999999999  0.31455  0.3772599999999999  1.0000
  O   O4        1.0  0.02807  0.40842  0.46035  1.0000
  O   O5        1.0  0.54387  0.74083  0.95747  1.0000
  O   O6        1.0  0.29878  0.7023  0.9812499999999997  1.0000
  O   O7        1.0  0.39122  0.68544  0.87726  1.0000
  O   O8        1.0  0.47191999999999995  0.59157  0.9603499999999999  1.0000
  O   O9        1.0  0.04387  0.75917  0.04253  1.0000
  O   O10       1.0  0.79878  0.79769  0.01875  1.0000
  O   O11       1.0  0.89122  0.8145500000000002  0.12274  1.0000
  O   O12       1.0  0.9719200000000001  0.90842  0.03965  1.0000
  O   O13       1.0  0.45613000000000004  0.24083000000000004  0.54253  1.0000
  O   O14       1.0  0.70122  0.2023  0.51875  1.0000
  O   O15       1.0  0.60878  0.18545  0.62274  1.0000
  O   O16       1.0  0.52807  0.09157  0.53965  1.0000
  O   O17       1.0  0.04387  0.74083  0.54253  1.0000
  O   O18       1.0  0.79878  0.7023  0.51875  1.0000
  O   O19       1.0  0.89122  0.68544  0.62274  1.0000
  O   O20       1.0  0.9719300000000001  0.59157  0.53965  1.0000
  O   O21       1.0  0.45613000000000004  0.25917  0.04253  1.0000
  O   O22       1.0  0.70122  0.29769  0.01875  1.0000
  O   O23       1.0  0.60878  0.31455  0.12274  1.0000
  O   O24       1.0  0.52808  0.40843  0.03965  1.0000
  O   O25       1.0  0.95613  0.24083000000000004  0.95747  1.0000
  O   O26       1.0  0.20122  0.2023  0.9812499999999997  1.0000
  O   O27       1.0  0.10877999999999999  0.18545  0.87726  1.0000
  O   O28       1.0  0.02808  0.09157  0.9603499999999999  1.0000
  O   O29       1.0  0.54387  0.75917  0.45746999999999993  1.0000
  O   O30       1.0  0.29878  0.79769  0.48125  1.0000
  O   O31       1.0  0.39122  0.8145500000000002  0.3772599999999999  1.0000
  O   O32       1.0  0.47193  0.90842  0.46035  1.0000
