data_image0
_chemical_formula_structural       Zn8H96C144N24O40
_chemical_formula_sum              "Zn8 H96 C144 N24 O40"
_cell_length_a       9.79983
_cell_length_b       20.06313
_cell_length_c       21.71825
_cell_angle_alpha    75.2844
_cell_angle_beta     76.9771
_cell_angle_gamma    75.64992

_symmetry_space_group_name_H-M    'P 1'
_symmetry_Int_Tables_number       1

loop_
  _symmetry_equiv_pos_as_xyz
  'x,y,z'

loop_
  _atom_site_type_symbol
  _atom_site_label
  _atom_site_symmetry_multiplicity
  _atom_site_fract_x
  _atom_site_fract_y
  _atom_site_fract_z
  _atom_site_occupancy
  Zn  Zn1       1.0  0.18181  0.6178699999999999  0.6981800000000001  1.0000
  Zn  Zn2       1.0  0.91932  0.6401  0.58304  1.0000
  Zn  Zn3       1.0  0.49916999999999984  0.8833799999999999  0.8019100000000001  1.0000
  Zn  Zn4       1.0  0.14275999999999997  0.8616299999999999  0.9168200000000001  1.0000
  Zn  Zn5       1.0  0.8182  0.38213  0.30183  1.0000
  Zn  Zn6       1.0  0.08069000000000001  0.3599  0.41697  1.0000
  Zn  Zn7       1.0  0.50083  0.11661999999999999  0.19810000000000005  1.0000
  Zn  Zn8       1.0  0.8572400000000001  0.13837  0.08318000000000002  1.0000
  H   H1        1.0  0.5809400000000002  0.01145000000000001  0.88008  1.0000
  H   H2        1.0  0.4026  0.17189  0.99347  1.0000
  H   H3        1.0  0.17046000000000003  0.01327  0.00257  1.0000
  H   H4        1.0  0.69733  0.10935999999999997  0.8243000000000001  1.0000
  H   H5        1.0  0.7769900000000002  0.04158999999999999  0.88424  1.0000
  H   H6        1.0  0.7380600000000002  0.24023999999999998  0.8316100000000002  1.0000
  H   H7        1.0  0.17668999999999999  0.22900999999999994  0.8417200000000001  1.0000
  H   H8        1.0  0.21383  0.09926999999999997  0.8728300000000001  1.0000
  H   H9        1.0  0.0115999999999999  0.03911999999999995  0.8880300000000002  1.0000
  H   H10       1.0  0.97923  0.34254999999999997  0.8466400000000001  1.0000
  H   H11       1.0  0.9997800000000001  0.33564999999999995  0.76459  1.0000
  H   H12       1.0  0.5397199999999999  0.41288  0.79249  1.0000
  H   H13       1.0  0.6251  0.6196  0.70627  1.0000
  H   H14       1.0  0.96406  0.45171999999999995  0.77245  1.0000
  H   H15       1.0  0.9225100000000004  0.73189  0.72292  1.0000
  H   H16       1.0  0.84773  0.86081  0.68412  1.0000
  H   H17       1.0  0.2792600000000003  0.8614  0.5793  1.0000
  H   H18       1.0  0.3372200000000001  0.73138  0.62244  1.0000
  H   H19       1.0  0.8000400000000005  0.18034999999999998  0.56553  1.0000
  H   H20       1.0  0.8425  0.30112  0.5095  1.0000
  H   H21       1.0  0.26495000000000013  0.22199999999999998  0.4368600000000001  1.0000
  H   H22       1.0  0.23488000000000003  0.09784999999999999  0.48196000000000006  1.0000
  H   H23       1.0  0.21482000000000015  0.9910499999999999  0.64017  1.0000
  H   H24       1.0  0.26227000000000006  0.03262  0.56494  1.0000
  H   H25       1.0  0.47197000000000033  0.49098  0.61904  1.0000
  H   H26       1.0  0.5689700000000002  0.32790999999999987  0.50859  1.0000
  H   H27       1.0  0.18370999999999998  0.48572  0.4989  1.0000
  H   H28       1.0  0.6319000000000001  0.39318  0.67645  1.0000
  H   H29       1.0  0.7027  0.4602999999999999  0.6156700000000002  1.0000
  H   H30       1.0  0.8094399999999999  0.26192000000000004  0.66891  1.0000
  H   H31       1.0  0.24862999999999993  0.27012  0.65849  1.0000
  H   H32       1.0  0.18789  0.4  0.6287600000000001  1.0000
  H   H33       1.0  0.9403199999999998  0.46175  0.61368  1.0000
  H   H34       1.0  0.16764999999999994  0.15776000000000004  0.6528  1.0000
  H   H35       1.0  0.10100999999999999  0.16443  0.73505  1.0000
  H   H36       1.0  0.7443300000000003  0.08887999999999999  0.70697  1.0000
  H   H37       1.0  0.9526100000000002  0.88216  0.79429  1.0000
  H   H38       1.0  0.1876  0.04971999999999999  0.72763  1.0000
  H   H39       1.0  0.37857000000000013  0.7693  0.77666  1.0000
  H   H40       1.0  0.3926799999999999  0.6407899999999999  0.8158500000000001  1.0000
  H   H41       1.0  0.72092  0.63824  0.92083  1.0000
  H   H42       1.0  0.69304  0.76822  0.87743  1.0000
  H   H43       1.0  0.5464400000000001  0.3209199999999999  0.93417  1.0000
  H   H44       1.0  0.6517100000000001  0.19959  0.9901600000000002  1.0000
  H   H45       1.0  0.9238800000000001  0.27604  0.06392  1.0000
  H   H46       1.0  0.81705  0.40051  0.018390000000000004  1.0000
  H   H47       1.0  0.8477000000000002  0.5075699999999999  0.86009  1.0000
  H   H48       1.0  0.8610100000000002  0.46763  0.93595  1.0000
  H   H49       1.0  0.41905999999999993  0.98855  0.11993  1.0000
  H   H50       1.0  0.5974100000000001  0.82811  0.00653  1.0000
  H   H51       1.0  0.8295500000000009  0.98673  0.99743  1.0000
  H   H52       1.0  0.30267  0.89063  0.1757  1.0000
  H   H53       1.0  0.22301  0.95841  0.11576000000000002  1.0000
  H   H54       1.0  0.26194999999999996  0.75976  0.16839000000000004  1.0000
  H   H55       1.0  0.8233199999999999  0.77099  0.15829  1.0000
  H   H56       1.0  0.78618  0.90073  0.12717  1.0000
  H   H57       1.0  0.9884100000000001  0.96088  0.11197  1.0000
  H   H58       1.0  0.02078000000000001  0.6574499999999999  0.15336  1.0000
  H   H59       1.0  0.00023000000000005286  0.6643399999999999  0.23541  1.0000
  H   H60       1.0  0.46028999999999975  0.58711  0.20751  1.0000
  H   H61       1.0  0.37490999999999997  0.38040000000000007  0.29374  1.0000
  H   H62       1.0  0.03594000000000001  0.54828  0.22755  1.0000
  H   H63       1.0  0.07749000000000002  0.26811  0.27708  1.0000
  H   H64       1.0  0.15228  0.13918999999999998  0.31588  1.0000
  H   H65       1.0  0.7207500000000001  0.13859999999999995  0.42070000000000013  1.0000
  H   H66       1.0  0.6627899999999999  0.26861999999999997  0.37757  1.0000
  H   H67       1.0  0.1999699999999999  0.81964  0.4344700000000001  1.0000
  H   H68       1.0  0.15750999999999996  0.69888  0.4905100000000001  1.0000
  H   H69       1.0  0.7350600000000003  0.7779999999999998  0.56314  1.0000
  H   H70       1.0  0.7651200000000002  0.9021499999999999  0.51804  1.0000
  H   H71       1.0  0.7851900000000002  0.008949999999999994  0.35984  1.0000
  H   H72       1.0  0.73774  0.96738  0.43506  1.0000
  H   H73       1.0  0.52804  0.50902  0.38097  1.0000
  H   H74       1.0  0.43104000000000003  0.67209  0.49141000000000007  1.0000
  H   H75       1.0  0.8163000000000001  0.51427  0.5011  1.0000
  H   H76       1.0  0.36810999999999994  0.60682  0.32355  1.0000
  H   H77       1.0  0.2973  0.53969  0.38434  1.0000
  H   H78       1.0  0.19057000000000002  0.73808  0.3311  1.0000
  H   H79       1.0  0.7513800000000002  0.7298799999999999  0.34151  1.0000
  H   H80       1.0  0.8121200000000003  0.6  0.37124  1.0000
  H   H81       1.0  0.05969000000000006  0.5382499999999999  0.38633  1.0000
  H   H82       1.0  0.8323500000000001  0.84224  0.3472  1.0000
  H   H83       1.0  0.8990000000000001  0.8355699999999999  0.26495  1.0000
  H   H84       1.0  0.25568000000000013  0.9111199999999999  0.29303  1.0000
  H   H85       1.0  0.04738999999999998  0.11783999999999999  0.20571000000000006  1.0000
  H   H86       1.0  0.8124100000000001  0.9502799999999999  0.27237  1.0000
  H   H87       1.0  0.62144  0.23069999999999996  0.22334000000000004  1.0000
  H   H88       1.0  0.60732  0.35921  0.18415  1.0000
  H   H89       1.0  0.2790900000000001  0.36176  0.07917  1.0000
  H   H90       1.0  0.3069600000000001  0.23178  0.12257  1.0000
  H   H91       1.0  0.45356  0.67908  0.06583  1.0000
  H   H92       1.0  0.34830000000000017  0.8004  0.00984  1.0000
  H   H93       1.0  0.07612999999999978  0.72396  0.9360800000000002  1.0000
  H   H94       1.0  0.18295999999999996  0.59949  0.9816100000000001  1.0000
  H   H95       1.0  0.15229999999999996  0.49243  0.13991  1.0000
  H   H96       1.0  0.13898999999999997  0.53236  0.06406  1.0000
  C   C1        1.0  0.35623  0.94511  0.91723  1.0000
  C   C2        1.0  0.3757399999999999  0.005879999999999953  0.9398100000000001  1.0000
  C   C3        1.0  0.4983600000000001  0.03500999999999998  0.9152000000000001  1.0000
  C   C4        1.0  0.5088199999999999  0.09401000000000002  0.93596  1.0000
  C   C5        1.0  0.39589000000000013  0.12512  0.97864  1.0000
  C   C6        1.0  0.27526  0.09537  0.0031300000000000004  1.0000
  C   C7        1.0  0.26564  0.03539999999999998  0.98412  1.0000
  C   C8        1.0  0.15011  0.12948  0.04626000000000001  1.0000
  C   C9        1.0  0.74035  0.09876999999999998  0.8692600000000001  1.0000
  C   C10       1.0  0.8615100000000001  0.13563999999999996  0.8609900000000003  1.0000
  C   C11       1.0  0.8416499999999999  0.20923  0.84142  1.0000
  C   C12       1.0  0.95397  0.2432699999999999  0.8349400000000001  1.0000
  C   C13       1.0  0.08824000000000014  0.20313000000000003  0.8467  1.0000
  C   C14       1.0  0.10932999999999987  0.13001999999999994  0.8645000000000003  1.0000
  C   C15       1.0  0.9957600000000004  0.09617999999999999  0.8726400000000001  1.0000
  C   C16       1.0  0.93826  0.32191  0.81351  1.0000
  C   C17       1.0  0.7561600000000002  0.4237199999999999  0.7865700000000001  1.0000
  C   C18       1.0  0.6134799999999999  0.44881  0.77832  1.0000
  C   C19       1.0  0.5659900000000002  0.51904  0.75007  1.0000
  C   C20       1.0  0.6613800000000002  0.56536  0.7298000000000001  1.0000
  C   C21       1.0  0.8033  0.5407099999999999  0.7395000000000002  1.0000
  C   C22       1.0  0.85196  0.46958  0.76783  1.0000
  C   C23       1.0  0.41433000000000003  0.5416999999999998  0.7389200000000001  1.0000
  C   C24       1.0  0.9059699999999997  0.5892  0.7192700000000001  1.0000
  C   C25       1.0  0.99801  0.76251  0.69118  1.0000
  C   C26       1.0  0.9563300000000002  0.8341999999999999  0.66842  1.0000
  C   C27       1.0  0.05681999999999989  0.87155  0.6267200000000002  1.0000
  C   C28       1.0  0.19750000000000006  0.8346099999999999  0.61089  1.0000
  C   C29       1.0  0.23029000000000016  0.7622999999999999  0.6350300000000001  1.0000
  C   C30       1.0  0.005559999999999914  0.9457899999999999  0.59991  1.0000
  C   C31       1.0  0.9862300000000002  0.05889  0.55867  1.0000
  C   C32       1.0  0.015300000000000003  0.12895999999999996  0.53028  1.0000
  C   C33       1.0  0.9035499999999999  0.18758999999999998  0.5368  1.0000
  C   C34       1.0  0.9263000000000001  0.2543999999999999  0.50564  1.0000
  C   C35       1.0  0.16374999999999998  0.20946000000000004  0.46465000000000006  1.0000
  C   C36       1.0  0.14772999999999994  0.14092  0.49324  1.0000
  C   C37       1.0  0.21789999999999993  0.55538  0.58299  1.0000
  C   C38       1.0  0.3204199999999999  0.49453  0.56017  1.0000
  C   C39       1.0  0.44811  0.4662899999999999  0.5848  1.0000
  C   C40       1.0  0.53897  0.40686  0.56503  1.0000
  C   C41       1.0  0.50018  0.37488  0.52304  1.0000
  C   C42       1.0  0.37348000000000003  0.40354  0.49861  1.0000
  C   C43       1.0  0.28376  0.46395  0.51676  1.0000
  C   C44       1.0  0.3277700000000001  0.36702  0.45674  1.0000
  C   C45       1.0  0.7088000000000002  0.40321999999999997  0.63134  1.0000
  C   C46       1.0  0.8587699999999998  0.36597999999999997  0.6397800000000001  1.0000
  C   C47       1.0  0.8923899999999999  0.29234  0.65907  1.0000
  C   C48       1.0  0.03248000000000007  0.25748999999999994  0.66524  1.0000
  C   C49       1.0  0.13912999999999995  0.29678  0.65375  1.0000
  C   C50       1.0  0.10522000000000004  0.36996  0.63668  1.0000
  C   C51       1.0  0.96575  0.40464  0.6286700000000001  1.0000
  C   C52       1.0  0.07341999999999996  0.17872999999999992  0.6862400000000001  1.0000
  C   C53       1.0  0.9654000000000001  0.07787  0.71347  1.0000
  C   C54       1.0  0.83988  0.05286999999999999  0.72166  1.0000
  C   C55       1.0  0.8351399999999999  0.98267  0.7500800000000001  1.0000
  C   C56       1.0  0.9573100000000002  0.93631  0.77043  1.0000
  C   C57       1.0  0.08426000000000006  0.96079  0.76046  1.0000
  C   C58       1.0  0.08903999999999995  0.031889999999999974  0.7321000000000001  1.0000
  C   C59       1.0  0.6949700000000001  0.9602299999999999  0.76126  1.0000
  C   C60       1.0  0.21632000000000012  0.9123699999999999  0.7805000000000001  1.0000
  C   C61       1.0  0.45296000000000003  0.7385099999999999  0.80854  1.0000
  C   C62       1.0  0.45956000000000014  0.66691  0.83152  1.0000
  C   C63       1.0  0.55575  0.6290099999999998  0.87333  1.0000
  C   C64       1.0  0.6440200000000003  0.6654999999999999  0.8891200000000001  1.0000
  C   C65       1.0  0.6291700000000001  0.73777  0.8648000000000001  1.0000
  C   C66       1.0  0.5520800000000001  0.5548  0.90019  1.0000
  C   C67       1.0  0.6051900000000001  0.44149  0.94135  1.0000
  C   C68       1.0  0.6758800000000001  0.37100999999999995  0.96971  1.0000
  C   C69       1.0  0.62856  0.31288999999999995  0.9631000000000001  1.0000
  C   C70       1.0  0.68609  0.2457  0.99428  1.0000
  C   C71       1.0  0.83827  0.28912  0.03577  1.0000
  C   C72       1.0  0.7832800000000002  0.35796  0.007050000000000001  1.0000
  C   C73       1.0  0.6437800000000001  0.054889999999999994  0.08277000000000001  1.0000
  C   C74       1.0  0.6242700000000001  0.9941199999999999  0.06019000000000001  1.0000
  C   C75       1.0  0.5016400000000001  0.9649899999999999  0.0848  1.0000
  C   C76       1.0  0.49118  0.9059899999999999  0.06404  1.0000
  C   C77       1.0  0.60412  0.87488  0.02137  1.0000
  C   C78       1.0  0.72475  0.90463  0.99687  1.0000
  C   C79       1.0  0.73436  0.9645999999999999  0.01588  1.0000
  C   C80       1.0  0.8499000000000001  0.8705099999999998  0.9537500000000001  1.0000
  C   C81       1.0  0.25964999999999994  0.9012300000000001  0.13074  1.0000
  C   C82       1.0  0.13849000000000017  0.8643599999999999  0.13901  1.0000
  C   C83       1.0  0.15835000000000005  0.7907699999999999  0.15858  1.0000
  C   C84       1.0  0.04604000000000002  0.75673  0.16506000000000004  1.0000
  C   C85       1.0  0.9117700000000004  0.7968699999999997  0.15331  1.0000
  C   C86       1.0  0.8906800000000001  0.8699799999999999  0.1355  1.0000
  C   C87       1.0  0.004240000000000013  0.90382  0.12736  1.0000
  C   C88       1.0  0.06173999999999995  0.67808  0.18649  1.0000
  C   C89       1.0  0.24384000000000006  0.57628  0.21343  1.0000
  C   C90       1.0  0.38653000000000004  0.5511899999999998  0.22168000000000002  1.0000
  C   C91       1.0  0.4340199999999999  0.48096  0.24994  1.0000
  C   C92       1.0  0.33863  0.43464  0.2702  1.0000
  C   C93       1.0  0.19671000000000002  0.4592899999999999  0.26051  1.0000
  C   C94       1.0  0.14804  0.53042  0.23217  1.0000
  C   C95       1.0  0.5856699999999999  0.4583  0.26108  1.0000
  C   C96       1.0  0.09403999999999993  0.41080000000000005  0.28073000000000004  1.0000
  C   C97       1.0  0.0020000000000000586  0.23748999999999998  0.30882  1.0000
  C   C98       1.0  0.04367  0.16579999999999995  0.33158  1.0000
  C   C99       1.0  0.9431900000000003  0.12843999999999994  0.37328  1.0000
  C   C100      1.0  0.8025100000000001  0.16539  0.38911000000000007  1.0000
  C   C101      1.0  0.76972  0.23769999999999997  0.36497  1.0000
  C   C102      1.0  0.9944500000000001  0.05420999999999999  0.4001  1.0000
  C   C103      1.0  0.013779999999999952  0.94111  0.44133  1.0000
  C   C104      1.0  0.98471  0.87104  0.4697200000000001  1.0000
  C   C105      1.0  0.09645000000000009  0.8124099999999997  0.46320000000000006  1.0000
  C   C106      1.0  0.07371000000000005  0.7455899999999999  0.49436  1.0000
  C   C107      1.0  0.83626  0.79054  0.53535  1.0000
  C   C108      1.0  0.8522800000000001  0.85908  0.50676  1.0000
  C   C109      1.0  0.7821  0.44461999999999996  0.41701000000000005  1.0000
  C   C110      1.0  0.6795900000000001  0.50547  0.4398300000000001  1.0000
  C   C111      1.0  0.5519000000000001  0.53371  0.4152100000000001  1.0000
  C   C112      1.0  0.4610299999999999  0.59313  0.43497000000000013  1.0000
  C   C113      1.0  0.49982000000000015  0.6251199999999999  0.47696  1.0000
  C   C114      1.0  0.6265300000000001  0.59646  0.5014  1.0000
  C   C115      1.0  0.7162400000000001  0.53605  0.48325000000000007  1.0000
  C   C116      1.0  0.6722400000000002  0.63298  0.54326  1.0000
  C   C117      1.0  0.29121000000000014  0.5967799999999999  0.36866  1.0000
  C   C118      1.0  0.14124  0.63402  0.36022  1.0000
  C   C119      1.0  0.10760999999999997  0.70765  0.34093  1.0000
  C   C120      1.0  0.9675200000000002  0.7425099999999999  0.33476  1.0000
  C   C121      1.0  0.8608800000000001  0.70322  0.34625  1.0000
  C   C122      1.0  0.8947899999999999  0.63004  0.36332  1.0000
  C   C123      1.0  0.03426000000000001  0.5953599999999999  0.37133000000000005  1.0000
  C   C124      1.0  0.9265800000000001  0.8212699999999998  0.31377  1.0000
  C   C125      1.0  0.034609999999999946  0.9221200000000002  0.28653000000000006  1.0000
  C   C126      1.0  0.16013000000000002  0.94713  0.27834  1.0000
  C   C127      1.0  0.16486  0.017329999999999998  0.24992  1.0000
  C   C128      1.0  0.042700000000000016  0.06367999999999999  0.22957  1.0000
  C   C129      1.0  0.91574  0.03920999999999999  0.23954000000000003  1.0000
  C   C130      1.0  0.9109599999999994  0.9681100000000001  0.26791  1.0000
  C   C131      1.0  0.30504000000000003  0.03976999999999999  0.23875000000000002  1.0000
  C   C132      1.0  0.7836900000000001  0.08763  0.21950000000000003  1.0000
  C   C133      1.0  0.5470400000000001  0.26149  0.19146  1.0000
  C   C134      1.0  0.54044  0.33308  0.16848  1.0000
  C   C135      1.0  0.44426  0.37098  0.12668  1.0000
  C   C136      1.0  0.35599  0.33449  0.11088  1.0000
  C   C137      1.0  0.37083  0.26223  0.1352  1.0000
  C   C138      1.0  0.4479200000000001  0.4452  0.09981000000000001  1.0000
  C   C139      1.0  0.39482000000000006  0.55851  0.05866  1.0000
  C   C140      1.0  0.32412  0.62898  0.03029  1.0000
  C   C141      1.0  0.37145  0.68711  0.03691  1.0000
  C   C142      1.0  0.3139200000000001  0.7543  0.005720000000000001  1.0000
  C   C143      1.0  0.16172999999999996  0.71088  0.96424  1.0000
  C   C144      1.0  0.21673000000000014  0.6420399999999999  0.99295  1.0000
  N   N1        1.0  0.13164  0.7265  0.67405  1.0000
  N   N2        1.0  0.08153000000000012  0.99884  0.5814  1.0000
  N   N3        1.0  0.8717200000000004  0.9720799999999999  0.58895  1.0000
  N   N4        1.0  0.8602800000000003  0.04231999999999999  0.56251  1.0000
  N   N5        1.0  0.22181000000000023  0.99023  0.59235  1.0000
  N   N6        1.0  0.054220000000000025  0.2650999999999999  0.4698100000000001  1.0000
  N   N7        1.0  0.5339699999999998  0.7741299999999998  0.82553  1.0000
  N   N8        1.0  0.66297  0.5013599999999999  0.9186900000000001  1.0000
  N   N9        1.0  0.43354000000000004  0.52889  0.91115  1.0000
  N   N10       1.0  0.4662400000000001  0.45855999999999997  0.93751  1.0000
  N   N11       1.0  0.80572  0.5095  0.90768  1.0000
  N   N12       1.0  0.7889899999999999  0.23393999999999998  0.03043  1.0000
  N   N13       1.0  0.86837  0.2735  0.32595  1.0000
  N   N14       1.0  0.9184700000000001  0.0011599999999999788  0.41860000000000014  1.0000
  N   N15       1.0  0.12829  0.027919999999999983  0.4110500000000001  1.0000
  N   N16       1.0  0.13972000000000012  0.95768  0.4375  1.0000
  N   N17       1.0  0.7781900000000002  0.009769999999999978  0.4076600000000001  1.0000
  N   N18       1.0  0.9457800000000001  0.7349  0.53019  1.0000
  N   N19       1.0  0.4660299999999999  0.22587  0.17447  1.0000
  N   N20       1.0  0.33703  0.49864  0.08131  1.0000
  N   N21       1.0  0.56646  0.4711099999999999  0.08886  1.0000
  N   N22       1.0  0.5337600000000002  0.54144  0.0625  1.0000
  N   N23       1.0  0.19429000000000002  0.4905  0.09232  1.0000
  N   N24       1.0  0.21102  0.76606  0.96957  1.0000
  O   O1        1.0  0.2271900000000001  0.9360799999999999  0.92799  1.0000
  O   O2        1.0  0.46462000000000003  0.9064499999999999  0.88971  1.0000
  O   O3        1.0  0.14068000000000003  0.18921  0.05603000000000001  1.0000
  O   O4        1.0  0.05263000000000001  0.09091  0.0694  1.0000
  O   O5        1.0  0.6264600000000002  0.12479  0.9183900000000002  1.0000
  O   O6        1.0  0.7899400000000002  0.35352  0.81301  1.0000
  O   O7        1.0  0.017080000000000022  0.57222  0.74622  1.0000
  O   O8        1.0  0.88039  0.64581  0.6765100000000001  1.0000
  O   O9        1.0  0.36166  0.60934  0.7295100000000001  1.0000
  O   O10       1.0  0.34630000000000005  0.49733  0.73733  1.0000
  O   O11       1.0  0.09033999999999999  0.5657  0.57197  1.0000
  O   O12       1.0  0.26052999999999993  0.59253  0.61166  1.0000
  O   O13       1.0  0.38895  0.30636  0.4498400000000001  1.0000
  O   O14       1.0  0.21676000000000004  0.40493  0.43127  1.0000
  O   O15       1.0  0.6698600000000002  0.37639  0.583  1.0000
  O   O16       1.0  0.9547600000000002  0.14813  0.68713  1.0000
  O   O17       1.0  0.33709999999999996  0.92933  0.75324  1.0000
  O   O18       1.0  0.20621999999999993  0.8558200000000001  0.8233700000000002  1.0000
  O   O19       1.0  0.7007500000000002  0.8925599999999999  0.7715800000000002  1.0000
  O   O20       1.0  0.58075  0.005010000000000008  0.76195  1.0000
  O   O21       1.0  0.7728100000000002  0.06392  0.07201  1.0000
  O   O22       1.0  0.53538  0.09355  0.11029  1.0000
  O   O23       1.0  0.8593200000000002  0.8107799999999997  0.9439800000000002  1.0000
  O   O24       1.0  0.9473800000000007  0.90909  0.9306000000000001  1.0000
  O   O25       1.0  0.3735500000000001  0.87521  0.08161  1.0000
  O   O26       1.0  0.21007  0.64648  0.18699  1.0000
  O   O27       1.0  0.9829200000000002  0.42777  0.25378  1.0000
  O   O28       1.0  0.11962000000000002  0.35418999999999995  0.32349  1.0000
  O   O29       1.0  0.6383500000000001  0.39066  0.27049  1.0000
  O   O30       1.0  0.6536999999999998  0.50267  0.26267  1.0000
  O   O31       1.0  0.9096600000000001  0.4342999999999999  0.4280300000000001  1.0000
  O   O32       1.0  0.73947  0.40746999999999994  0.38835000000000003  1.0000
  O   O33       1.0  0.61105  0.69364  0.55016  1.0000
  O   O34       1.0  0.7832500000000002  0.59507  0.56873  1.0000
  O   O35       1.0  0.3301500000000001  0.6236099999999999  0.417  1.0000
  O   O36       1.0  0.045249999999999985  0.85186  0.31287  1.0000
  O   O37       1.0  0.66291  0.07067  0.24676000000000003  1.0000
  O   O38       1.0  0.7937900000000002  0.14418  0.17663  1.0000
  O   O39       1.0  0.29925  0.10742999999999997  0.22843000000000005  1.0000
  O   O40       1.0  0.41925000000000007  0.9949900000000003  0.23806  1.0000
