data_image0
_chemical_formula_structural       Ag16H120C168N36
_chemical_formula_sum              "Ag16 H120 C168 N36"
_cell_length_a       11.65021
_cell_length_b       22.07339
_cell_length_c       22.073679999999996
_cell_angle_alpha    120.02155
_cell_angle_beta     89.99955
_cell_angle_gamma    90.0

_space_group_name_H-M_alt    "P 1"
_space_group_IT_number       1

loop_
  _space_group_symop_operation_xyz
  'x, y, z'

loop_
  _atom_site_type_symbol
  _atom_site_label
  _atom_site_symmetry_multiplicity
  _atom_site_fract_x
  _atom_site_fract_y
  _atom_site_fract_z
  _atom_site_occupancy
  Ag  Ag1       1.0  0.3694099999999999  0.66664  0.3334  1.0000
  Ag  Ag2       1.0  0.8695699999999998  0.33333  0.66658  1.0000
  Ag  Ag3       1.0  0.63108  0.33342  0.66669  1.0000
  Ag  Ag4       1.0  0.13106  0.66659  0.33335  1.0000
  Ag  Ag5       1.0  0.24967999999999999  0.73066  0.26971  1.0000
  Ag  Ag6       1.0  0.24980999999999998  0.53892  0.26938  1.0000
  Ag  Ag7       1.0  0.24961999999999998  0.7303300000000001  0.46108999999999994  1.0000
  Ag  Ag8       1.0  0.75017  0.26964  0.73036  1.0000
  Ag  Ag9       1.0  0.75023  0.46091000000000004  0.73041  1.0000
  Ag  Ag10      1.0  0.75005  0.26967  0.53911  1.0000
  Ag  Ag11      1.0  0.99995  0.4945800000000001  0.99991  1.0000
  Ag  Ag12      1.0  0.00012  0.50519  0.50529  1.0000
  Ag  Ag13      1.0  0.00027  0.00010999999999999598  0.49481  1.0000
  Ag  Ag14      1.0  0.50026  0.50518  0.00017  1.0000
  Ag  Ag15      1.0  0.50052  0.49493  0.4947500000000001  1.0000
  Ag  Ag16      1.0  0.50058  0.99987  0.50514  1.0000
  H   H1        1.0  0.29318  0.011260000000000032  0.45896  1.0000
  H   H2        1.0  0.22211  0.09013999999999997  0.41716  1.0000
  H   H3        1.0  0.22520999999999997  0.05115  0.29046  1.0000
  H   H4        1.0  0.29427  0.93084  0.2047  1.0000
  H   H5        1.0  0.36406  0.85177  0.24662000000000003  1.0000
  H   H6        1.0  0.41475999999999996  0.9304100000000001  0.57843  1.0000
  H   H7        1.0  0.47673  0.91874  0.6789  1.0000
  H   H8        1.0  0.5954999999999999  0.81581  0.65955  1.0000
  H   H9        1.0  0.65223  0.72686  0.53905  1.0000
  H   H10       1.0  0.59049  0.73881  0.43771  1.0000
  H   H11       1.0  0.29306  0.44755000000000006  0.9887  1.0000
  H   H12       1.0  0.22196  0.32683999999999996  0.90976  1.0000
  H   H13       1.0  0.22503  0.2391  0.94868  1.0000
  H   H14       1.0  0.29426  0.2736  0.06893  1.0000
  H   H15       1.0  0.36402999999999996  0.39464  0.14808  1.0000
  H   H16       1.0  0.41457  0.64806  0.06983  1.0000
  H   H17       1.0  0.47662  0.76018  0.08146  1.0000
  H   H18       1.0  0.59545  0.8438000000000001  0.18437  1.0000
  H   H19       1.0  0.65242  0.81224  0.27322  1.0000
  H   H20       1.0  0.5906999999999999  0.69896  0.26131  1.0000
  H   H21       1.0  0.29314  0.54117  0.55247  1.0000
  H   H22       1.0  0.22208999999999998  0.58297  0.67319  1.0000
  H   H23       1.0  0.22513  0.70969  0.76094  1.0000
  H   H24       1.0  0.29413  0.79542  0.7264  1.0000
  H   H25       1.0  0.36393  0.75351  0.60539  1.0000
  H   H26       1.0  0.41473999999999994  0.42153  0.35192  1.0000
  H   H27       1.0  0.47674  0.32105  0.23974  1.0000
  H   H28       1.0  0.59553  0.34038  0.15617  1.0000
  H   H29       1.0  0.6523  0.46085000000000004  0.18774  1.0000
  H   H30       1.0  0.59058  0.5622199999999999  0.30105  1.0000
  H   H31       1.0  0.7932599999999999  0.9888600000000001  0.54109  1.0000
  H   H32       1.0  0.7221499999999997  0.90998  0.58286  1.0000
  H   H33       1.0  0.7252599999999999  0.94894  0.70956  1.0000
  H   H34       1.0  0.7941999999999998  0.06927000000000004  0.79535  1.0000
  H   H35       1.0  0.86414  0.14831000000000005  0.75345  1.0000
  H   H36       1.0  0.9148499999999999  0.06972000000000007  0.42171000000000003  1.0000
  H   H37       1.0  0.97683  0.08126000000000003  0.32117  1.0000
  H   H38       1.0  0.09564  0.18412  0.3404  1.0000
  H   H39       1.0  0.15234  0.27318  0.46088000000000007  1.0000
  H   H40       1.0  0.09065999999999999  0.26134  0.56229  1.0000
  H   H41       1.0  0.79322  0.55237  0.01111  1.0000
  H   H42       1.0  0.72201  0.67301  0.09006  1.0000
  H   H43       1.0  0.7251299999999999  0.7608200000000002  0.05122  1.0000
  H   H44       1.0  0.79417  0.72635  0.9309299999999999  1.0000
  H   H45       1.0  0.8642199999999998  0.6053999999999999  0.8517999999999999  1.0000
  H   H46       1.0  0.9147299999999999  0.35197000000000006  0.9300700000000001  1.0000
  H   H47       1.0  0.9764699999999998  0.2398600000000001  0.91848  1.0000
  H   H48       1.0  0.09553  0.15623  0.81568  1.0000
  H   H49       1.0  0.15237  0.18761999999999995  0.72667  1.0000
  H   H50       1.0  0.0909  0.30093999999999993  0.73857  1.0000
  H   H51       1.0  0.79321  0.45874  0.4476  1.0000
  H   H52       1.0  0.72211  0.4169800000000001  0.32693  1.0000
  H   H53       1.0  0.72527  0.29028000000000004  0.23911000000000002  1.0000
  H   H54       1.0  0.79409  0.2045  0.27365  1.0000
  H   H55       1.0  0.86407  0.24638  0.3946  1.0000
  H   H56       1.0  0.9148499999999999  0.57831  0.64806  1.0000
  H   H57       1.0  0.97676  0.6788599999999999  0.76019  1.0000
  H   H58       1.0  0.09567  0.65966  0.8438  1.0000
  H   H59       1.0  0.15237999999999996  0.53921  0.81237  1.0000
  H   H60       1.0  0.09078  0.43777  0.69905  1.0000
  H   H61       1.0  0.7071599999999999  0.55243  0.54119  1.0000
  H   H62       1.0  0.77799  0.67308  0.58293  1.0000
  H   H63       1.0  0.7747  0.76092  0.70962  1.0000
  H   H64       1.0  0.70583  0.72642  0.79543  1.0000
  H   H65       1.0  0.6363499999999999  0.6054  0.75359  1.0000
  H   H66       1.0  0.58538  0.35187000000000007  0.42155000000000004  1.0000
  H   H67       1.0  0.52322  0.23974  0.32101  1.0000
  H   H68       1.0  0.4046  0.15613  0.34034  1.0000
  H   H69       1.0  0.34776  0.18769  0.4608  1.0000
  H   H70       1.0  0.40959  0.30103  0.56221  1.0000
  H   H71       1.0  0.70709  0.45896  0.01125  1.0000
  H   H72       1.0  0.7779999999999999  0.41720000000000007  0.09012  1.0000
  H   H73       1.0  0.77473  0.2905  0.05119  1.0000
  H   H74       1.0  0.70572  0.2047200000000001  0.93085  1.0000
  H   H75       1.0  0.63622  0.24661000000000008  0.85173  1.0000
  H   H76       1.0  0.58534  0.57842  0.93035  1.0000
  H   H77       1.0  0.52309  0.6789399999999999  0.9188  1.0000
  H   H78       1.0  0.40457  0.6596  0.81582  1.0000
  H   H79       1.0  0.34774  0.53912  0.72688  1.0000
  H   H80       1.0  0.40964  0.43774  0.73877  1.0000
  H   H81       1.0  0.70719  0.98876  0.44759  1.0000
  H   H82       1.0  0.7780799999999998  0.90982  0.32693  1.0000
  H   H83       1.0  0.77481  0.94865  0.23912  1.0000
  H   H84       1.0  0.7056699999999999  0.06895  0.2736  1.0000
  H   H85       1.0  0.63616  0.14813  0.39464  1.0000
  H   H86       1.0  0.58553  0.06984000000000003  0.6481  1.0000
  H   H87       1.0  0.5234  0.08140999999999997  0.76019  1.0000
  H   H88       1.0  0.40467  0.18432999999999994  0.8438199999999999  1.0000
  H   H89       1.0  0.34772  0.27322  0.81229  1.0000
  H   H90       1.0  0.40951  0.26131  0.69899  1.0000
  H   H91       1.0  0.20679  0.4476800000000001  0.45875  1.0000
  H   H92       1.0  0.27799  0.32698  0.41702  1.0000
  H   H93       1.0  0.27483  0.23916  0.29027  1.0000
  H   H94       1.0  0.20578  0.27366  0.20453  1.0000
  H   H95       1.0  0.13603  0.39465000000000006  0.24640000000000004  1.0000
  H   H96       1.0  0.08514  0.64805  0.57828  1.0000
  H   H97       1.0  0.023179999999999996  0.7602100000000002  0.6789  1.0000
  H   H98       1.0  0.9044399999999998  0.8438400000000001  0.65962  1.0000
  H   H99       1.0  0.84757  0.81239  0.53924  1.0000
  H   H100      1.0  0.90915  0.69908  0.43776  1.0000
  H   H101      1.0  0.20676  0.5411200000000002  0.9889400000000002  1.0000
  H   H102      1.0  0.27796  0.58285  0.91002  1.0000
  H   H103      1.0  0.27479  0.7095799999999999  0.9489699999999999  1.0000
  H   H104      1.0  0.20570999999999998  0.79534  0.06929  1.0000
  H   H105      1.0  0.1359  0.7534600000000001  0.14834  1.0000
  H   H106      1.0  0.08509  0.42175  0.06972  1.0000
  H   H107      1.0  0.02327  0.32118  0.08129  1.0000
  H   H108      1.0  0.90441  0.34044  0.18416  1.0000
  H   H109      1.0  0.8477299999999999  0.46088  0.27321  1.0000
  H   H110      1.0  0.90926  0.56231  0.26134  1.0000
  H   H111      1.0  0.20678  0.011069999999999998  0.55232  1.0000
  H   H112      1.0  0.27812  0.09004000000000001  0.67299  1.0000
  H   H113      1.0  0.27493  0.051169999999999945  0.76081  1.0000
  H   H114      1.0  0.20566  0.9309400000000001  0.72633  1.0000
  H   H115      1.0  0.13582  0.85181  0.60534  1.0000
  H   H116      1.0  0.08526  0.9300600000000001  0.352  1.0000
  H   H117      1.0  0.023399999999999994  0.9185500000000001  0.23988  1.0000
  H   H118      1.0  0.9045699999999999  0.81565  0.15621  1.0000
  H   H119      1.0  0.84755  0.7267300000000001  0.18761  1.0000
  H   H120      1.0  0.90903  0.73855  0.3009  1.0000
  C   C1        1.0  0.3793  0.8801700000000001  0.37931  1.0000
  C   C2        1.0  0.45787999999999995  0.8407400000000002  0.44131999999999993  1.0000
  C   C3        1.0  0.33494  0.9266  0.35553  1.0000
  C   C4        1.0  0.29484999999999995  0.99416  0.40332  1.0000
  C   C5        1.0  0.25524  0.03856999999999996  0.37994  1.0000
  C   C6        1.0  0.25557  0.016129999999999995  0.30836  1.0000
  C   C7        1.0  0.29402  0.94873  0.26047  1.0000
  C   C8        1.0  0.33307  0.90402  0.28358  1.0000
  C   C9        1.0  0.50137  0.8362100000000001  0.50112  1.0000
  C   C10       1.0  0.46935  0.8867400000000001  0.5697  1.0000
  C   C11       1.0  0.50356  0.87963  0.62641  1.0000
  C   C12       1.0  0.57004  0.82233  0.61569  1.0000
  C   C13       1.0  0.60195  0.77199  0.54767  1.0000
  C   C14       1.0  0.56835  0.7788400000000001  0.49077999999999994  1.0000
  C   C15       1.0  0.37925999999999993  0.4990300000000001  0.11982  1.0000
  C   C16       1.0  0.45786  0.60054  0.15937  1.0000
  C   C17       1.0  0.33484  0.42878000000000005  0.07335  1.0000
  C   C18       1.0  0.29473  0.40901  0.00577  1.0000
  C   C19       1.0  0.25510999999999995  0.34119  0.96134  1.0000
  C   C20       1.0  0.25542  0.29201999999999995  0.9836999999999999  1.0000
  C   C21       1.0  0.29394  0.31151  0.05112  1.0000
  C   C22       1.0  0.33299  0.37937000000000004  0.09584  1.0000
  C   C23       1.0  0.50126  0.66493  0.16397  1.0000
  C   C24       1.0  0.46920999999999996  0.68303  0.1135  1.0000
  C   C25       1.0  0.5034  0.7468300000000001  0.12057999999999999  1.0000
  C   C26       1.0  0.56999  0.79344  0.17787  1.0000
  C   C27       1.0  0.60201  0.77571  0.22813000000000003  1.0000
  C   C28       1.0  0.56844  0.71198  0.22129999999999997  1.0000
  C   C29       1.0  0.37928  0.62075  0.50099  1.0000
  C   C30       1.0  0.45782999999999996  0.55869  0.39947  1.0000
  C   C31       1.0  0.33489  0.64458  0.57126  1.0000
  C   C32       1.0  0.29482  0.59679  0.59101  1.0000
  C   C33       1.0  0.2552  0.62019  0.65886  1.0000
  C   C34       1.0  0.25551  0.6917700000000001  0.708  1.0000
  C   C35       1.0  0.29393  0.7396699999999999  0.68851  1.0000
  C   C36       1.0  0.33299999999999996  0.71652  0.62063  1.0000
  C   C37       1.0  0.5013  0.4988600000000001  0.33508  1.0000
  C   C38       1.0  0.46931  0.43028  0.31698  1.0000
  C   C39       1.0  0.50352  0.37353000000000003  0.25312  1.0000
  C   C40       1.0  0.57006  0.38426  0.20655  1.0000
  C   C41       1.0  0.60197  0.45225000000000004  0.22426  1.0000
  C   C42       1.0  0.56837  0.50919  0.28803  1.0000
  C   C43       1.0  0.87948  0.11997000000000001  0.62079  1.0000
  C   C44       1.0  0.9582599999999999  0.15935  0.55878  1.0000
  C   C45       1.0  0.83501  0.07354000000000001  0.64454  1.0000
  C   C46       1.0  0.79491  0.005979999999999983  0.59673  1.0000
  C   C47       1.0  0.7553199999999999  0.96154  0.62008  1.0000
  C   C48       1.0  0.7557  0.98393  0.69166  1.0000
  C   C49       1.0  0.79404  0.051359999999999975  0.73958  1.0000
  C   C50       1.0  0.83312  0.09607000000000003  0.71648  1.0000
  C   C51       1.0  0.00157  0.1639  0.49896  1.0000
  C   C52       1.0  0.9695  0.11335  0.43039  1.0000
  C   C53       1.0  0.00369  0.12041000000000004  0.37364  1.0000
  C   C54       1.0  0.07025  0.17765000000000006  0.3843  1.0000
  C   C55       1.0  0.10216  0.22804  0.45231  1.0000
  C   C56       1.0  0.0686  0.22123  0.50923  1.0000
  C   C57       1.0  0.8795199999999997  0.50094  0.88005  1.0000
  C   C58       1.0  0.95829  0.3994799999999999  0.8405599999999999  1.0000
  C   C59       1.0  0.83512  0.57119  0.92652  1.0000
  C   C60       1.0  0.79497  0.5909299999999998  0.9940799999999999  1.0000
  C   C61       1.0  0.7553399999999999  0.65873  0.03854  1.0000
  C   C62       1.0  0.75567  0.70793  0.0162  1.0000
  C   C63       1.0  0.79413  0.6884599999999998  0.9487899999999999  1.0000
  C   C64       1.0  0.8332499999999999  0.62063  0.90405  1.0000
  C   C65       1.0  0.00168  0.3351  0.83599  1.0000
  C   C66       1.0  0.9694499999999999  0.31702  0.88644  1.0000
  C   C67       1.0  0.00355  0.2532200000000001  0.87941  1.0000
  C   C68       1.0  0.07017  0.20658999999999997  0.82215  1.0000
  C   C69       1.0  0.10223  0.2242500000000001  0.77185  1.0000
  C   C70       1.0  0.06874  0.28798  0.77863  1.0000
  C   C71       1.0  0.87951  0.37914  0.49905  1.0000
  C   C72       1.0  0.9582399999999999  0.4412  0.60051  1.0000
  C   C73       1.0  0.83504  0.3553200000000001  0.42879999999999996  1.0000
  C   C74       1.0  0.79495  0.40312000000000003  0.40906  1.0000
  C   C75       1.0  0.7553  0.37975000000000003  0.34122  1.0000
  C   C76       1.0  0.75568  0.30819  0.29205  1.0000
  C   C77       1.0  0.79399  0.26026  0.31153  1.0000
  C   C78       1.0  0.83314  0.28338  0.37939  1.0000
  C   C79       1.0  0.00155  0.50106  0.66494  1.0000
  C   C80       1.0  0.9695  0.56961  0.683  1.0000
  C   C81       1.0  0.00364  0.62641  0.74685  1.0000
  C   C82       1.0  0.07023  0.61574  0.79344  1.0000
  C   C83       1.0  0.10218  0.54777  0.77578  1.0000
  C   C84       1.0  0.06866  0.49079  0.71201  1.0000
  C   C85       1.0  0.6207  0.50098  0.62079  1.0000
  C   C86       1.0  0.5420199999999998  0.3995000000000001  0.55868  1.0000
  C   C87       1.0  0.66509  0.57122  0.6446  1.0000
  C   C88       1.0  0.7051499999999999  0.59101  0.59682  1.0000
  C   C89       1.0  0.7446799999999999  0.65882  0.62017  1.0000
  C   C90       1.0  0.74434  0.70802  0.69176  1.0000
  C   C91       1.0  0.706  0.6885  0.73966  1.0000
  C   C92       1.0  0.66708  0.62065  0.71655  1.0000
  C   C93       1.0  0.49859  0.33509  0.49885  1.0000
  C   C94       1.0  0.53061  0.31699  0.43026  1.0000
  C   C95       1.0  0.4964299999999999  0.25313  0.37351  1.0000
  C   C96       1.0  0.42996  0.20654000000000003  0.38421  1.0000
  C   C97       1.0  0.39802999999999994  0.22423  0.45222  1.0000
  C   C98       1.0  0.4315899999999999  0.28802  0.50914  1.0000
  C   C99       1.0  0.62071  0.37929  0.88013  1.0000
  C   C100      1.0  0.54198  0.44133999999999995  0.84078  1.0000
  C   C101      1.0  0.66512  0.35551  0.92656  1.0000
  C   C102      1.0  0.70519  0.4033399999999999  0.9941399999999999  1.0000
  C   C103      1.0  0.74473  0.3799600000000001  0.03857  1.0000
  C   C104      1.0  0.74432  0.30841  0.0162  1.0000
  C   C105      1.0  0.70603  0.2604699999999999  0.9487299999999999  1.0000
  C   C106      1.0  0.66709  0.28361  0.9040099999999999  1.0000
  C   C107      1.0  0.49863999999999997  0.50114  0.83622  1.0000
  C   C108      1.0  0.53056  0.56973  0.88675  1.0000
  C   C109      1.0  0.4964  0.62644  0.87966  1.0000
  C   C110      1.0  0.42988  0.6157300000000001  0.82234  1.0000
  C   C111      1.0  0.39807  0.5477  0.77199  1.0000
  C   C112      1.0  0.4315899999999999  0.49082000000000003  0.77884  1.0000
  C   C113      1.0  0.6207  0.11987  0.49905  1.0000
  C   C114      1.0  0.54201  0.15931000000000006  0.60052  1.0000
  C   C115      1.0  0.66509  0.07337000000000002  0.42879  1.0000
  C   C116      1.0  0.70517  0.005809999999999989  0.40904  1.0000
  C   C117      1.0  0.7447199999999999  0.9613200000000002  0.34119  1.0000
  C   C118      1.0  0.74432  0.9837  0.29203  1.0000
  C   C119      1.0  0.7059299999999998  0.05109  0.31149  1.0000
  C   C120      1.0  0.66698  0.09588000000000003  0.37939  1.0000
  C   C121      1.0  0.49861999999999995  0.16388  0.66491  1.0000
  C   C122      1.0  0.53071  0.11342  0.68298  1.0000
  C   C123      1.0  0.49653  0.12050000000000002  0.74683  1.0000
  C   C124      1.0  0.42997  0.17778999999999995  0.7934  1.0000
  C   C125      1.0  0.39802  0.2281  0.77574  1.0000
  C   C126      1.0  0.43157  0.22125  0.71196  1.0000
  C   C127      1.0  0.12044  0.49907  0.3792  1.0000
  C   C128      1.0  0.0416  0.60049  0.44126  1.0000
  C   C129      1.0  0.16491999999999998  0.42883  0.35536  1.0000
  C   C130      1.0  0.20497999999999997  0.4090500000000001  0.40314  1.0000
  C   C131      1.0  0.24461999999999998  0.34126  0.3798  1.0000
  C   C132      1.0  0.2443  0.29205  0.3082  1.0000
  C   C133      1.0  0.20596999999999996  0.31158  0.2603  1.0000
  C   C134      1.0  0.16693  0.37941  0.28341  1.0000
  C   C135      1.0  0.9982899999999999  0.66493  0.50107  1.0000
  C   C136      1.0  0.030369999999999998  0.68299  0.56965  1.0000
  C   C137      1.0  0.9963199999999999  0.74685  0.62641  1.0000
  C   C138      1.0  0.9298  0.79345  0.61574  1.0000
  C   C139      1.0  0.89782  0.77579  0.54774  1.0000
  C   C140      1.0  0.9312299999999999  0.7120000000000001  0.4908  1.0000
  C   C141      1.0  0.12045  0.62073  0.11993  1.0000
  C   C142      1.0  0.04156  0.55874  0.15928  1.0000
  C   C143      1.0  0.16488  0.64455  0.07354  1.0000
  C   C144      1.0  0.20496  0.59672  0.00596  1.0000
  C   C145      1.0  0.24460999999999994  0.6200899999999999  0.96154  1.0000
  C   C146      1.0  0.24423  0.69164  0.98392  1.0000
  C   C147      1.0  0.20590999999999998  0.7395799999999999  0.05138  1.0000
  C   C148      1.0  0.16686  0.71646  0.09609  1.0000
  C   C149      1.0  0.99824  0.49894  0.16383  1.0000
  C   C150      1.0  0.03033  0.43039  0.11330999999999998  1.0000
  C   C151      1.0  0.9963199999999999  0.37364  0.12038  1.0000
  C   C152      1.0  0.9297799999999999  0.38432  0.17769  1.0000
  C   C153      1.0  0.89788  0.45233  0.22804999999999997  1.0000
  C   C154      1.0  0.93128  0.50925  0.22123000000000004  1.0000
  C   C155      1.0  0.12037  0.88007  0.50091  1.0000
  C   C156      1.0  0.04152  0.84063  0.3995  1.0000
  C   C157      1.0  0.16484  0.92654  0.57117  1.0000
  C   C158      1.0  0.20494  0.99408  0.59092  1.0000
  C   C159      1.0  0.24467  0.03856  0.65873  1.0000
  C   C160      1.0  0.24431  0.016190000000000013  0.70791  1.0000
  C   C161      1.0  0.20590999999999998  0.9487900000000001  0.68844  1.0000
  C   C162      1.0  0.16679  0.90403  0.62057  1.0000
  C   C163      1.0  0.99827  0.8360100000000001  0.33508  1.0000
  C   C164      1.0  0.03045  0.8865  0.31705  1.0000
  C   C165      1.0  0.9964399999999999  0.8794400000000001  0.2532  1.0000
  C   C166      1.0  0.9298899999999999  0.82215  0.2066  1.0000
  C   C167      1.0  0.8977899999999999  0.77185  0.22423  1.0000
  C   C168      1.0  0.93116  0.77866  0.28801  1.0000
  N   N1        1.0  0.43568  0.7852700000000001  0.37846  1.0000
  N   N2        1.0  0.38366999999999996  0.8102400000000001  0.33937  1.0000
  N   N3        1.0  0.42464  0.90159  0.44409  1.0000
  N   N4        1.0  0.43585999999999997  0.59304  0.21477999999999997  1.0000
  N   N5        1.0  0.38388  0.52894  0.18974  1.0000
  N   N6        1.0  0.42444  0.54248  0.09849  1.0000
  N   N7        1.0  0.43567  0.62156  0.40691  1.0000
  N   N8        1.0  0.38371  0.66067  0.47101000000000004  1.0000
  N   N9        1.0  0.42451  0.55594  0.45756  1.0000
  N   N10       1.0  0.93649  0.21481999999999996  0.62173  1.0000
  N   N11       1.0  0.88437  0.18988  0.66082  1.0000
  N   N12       1.0  0.92464  0.09853  0.55595  1.0000
  N   N13       1.0  0.93637  0.40695  0.78513  1.0000
  N   N14       1.0  0.8843199999999998  0.47103  0.81013  1.0000
  N   N15       1.0  0.92476  0.4575199999999999  0.90142  1.0000
  N   N16       1.0  0.93643  0.37827  0.59301  1.0000
  N   N17       1.0  0.8843499999999999  0.33914999999999995  0.52895  1.0000
  N   N18       1.0  0.92463  0.44399  0.54248  1.0000
  N   N19       1.0  0.56438  0.40684  0.6215  1.0000
  N   N20       1.0  0.61633  0.47092999999999996  0.66066  1.0000
  N   N21       1.0  0.57536  0.45763  0.556  1.0000
  N   N22       1.0  0.56419  0.37849  0.78528  1.0000
  N   N23       1.0  0.61623  0.3393700000000001  0.81019  1.0000
  N   N24       1.0  0.57539  0.44408999999999993  0.9016099999999999  1.0000
  N   N25       1.0  0.56437  0.21478  0.59318  1.0000
  N   N26       1.0  0.61633  0.1898  0.52909  1.0000
  N   N27       1.0  0.57536  0.09846  0.54241  1.0000
  N   N28       1.0  0.06372  0.5931  0.3784  1.0000
  N   N29       1.0  0.11576999999999998  0.52905  0.33927  1.0000
  N   N30       1.0  0.07519  0.54245  0.44403000000000004  1.0000
  N   N31       1.0  0.06373  0.62159  0.21477999999999997  1.0000
  N   N32       1.0  0.11581  0.6606900000000002  0.18987  1.0000
  N   N33       1.0  0.07508  0.55595  0.09845  1.0000
  N   N34       1.0  0.06359  0.7851800000000001  0.40691  1.0000
  N   N35       1.0  0.11563  0.81015  0.47098  1.0000
  N   N36       1.0  0.07513  0.90149  0.45753  1.0000
