data_image0
_chemical_formula_structural       Er4H96C108S8O24
_chemical_formula_sum              "Er4 H96 C108 S8 O24"
_cell_length_a       8.95691
_cell_length_b       14.556239999999999
_cell_length_c       23.085760000000004
_cell_angle_alpha    89.90477000000001
_cell_angle_beta     89.61479000000001
_cell_angle_gamma    91.21576

_space_group_name_H-M_alt    "P 1"
_space_group_IT_number       1

loop_
  _space_group_symop_operation_xyz
  'x, y, z'

loop_
  _atom_site_type_symbol
  _atom_site_label
  _atom_site_symmetry_multiplicity
  _atom_site_fract_x
  _atom_site_fract_y
  _atom_site_fract_z
  _atom_site_occupancy
  Er  Er1       1.0  0.21646  0.00901  0.98853  1.0000
  Er  Er2       1.0  0.27971  0.49935  0.48529000000000005  1.0000
  Er  Er3       1.0  0.77978  0.9953799999999998  0.01163  1.0000
  Er  Er4       1.0  0.71651  0.4954599999999999  0.51153  1.0000
  H   H1        1.0  0.69936  0.22621  0.50605  1.0000
  H   H2        1.0  0.32023  0.24157  0.97607  1.0000
  H   H3        1.0  0.41689  0.49638  0.06335  1.0000
  H   H4        1.0  0.27389  0.4078799999999999  0.9877  1.0000
  H   H5        1.0  0.83447  0.37778  0.14381  1.0000
  H   H6        1.0  0.69582  0.3518699999999999  0.19732  1.0000
  H   H7        1.0  0.33433  0.24557999999999996  0.16165  1.0000
  H   H8        1.0  0.33236  0.13489  0.19255  1.0000
  H   H9        1.0  0.38991  0.23156999999999994  0.23424000000000003  1.0000
  H   H10       1.0  0.6009  0.42051999999999995  0.12336  1.0000
  H   H11       1.0  0.3133  0.11686  0.28934  1.0000
  H   H12       1.0  0.17194999999999994  0.08783  0.34113  1.0000
  H   H13       1.0  0.3944  0.04135  0.36914  1.0000
  H   H14       1.0  0.7353699999999999  0.05788999999999999  0.49916  1.0000
  H   H15       1.0  0.58089  0.96623  0.42895  1.0000
  H   H16       1.0  0.011040000000000001  0.15305  0.38614999999999994  1.0000
  H   H17       1.0  0.83262  0.11827  0.35952  1.0000
  H   H18       1.0  0.86587  0.23183999999999994  0.38361  1.0000
  H   H19       1.0  0.99466  0.3106299999999999  0.09945999999999999  1.0000
  H   H20       1.0  0.14943  0.23916  0.10333000000000002  1.0000
  H   H21       1.0  0.16786  0.3534699999999999  0.12718  1.0000
  H   H22       1.0  0.67238  0.22016999999999998  0.32398  1.0000
  H   H23       1.0  0.61851  0.23193  0.25098  1.0000
  H   H24       1.0  0.67081  0.3301899999999999  0.2918  1.0000
  H   H25       1.0  0.783  0.27513  0.00508  1.0000
  H   H26       1.0  0.18709  0.25711  0.47556  1.0000
  H   H27       1.0  0.08504  0.00179  0.56297  1.0000
  H   H28       1.0  0.23392  0.09055  0.4882000000000001  1.0000
  H   H29       1.0  0.66458  0.12126999999999998  0.64428  1.0000
  H   H30       1.0  0.80279  0.14694  0.69726  1.0000
  H   H31       1.0  0.16587  0.25508  0.66243  1.0000
  H   H32       1.0  0.16824  0.3655199999999999  0.69345  1.0000
  H   H33       1.0  0.10802999999999999  0.26883  0.7350399999999999  1.0000
  H   H34       1.0  0.8992099999999998  0.07826  0.62264  1.0000
  H   H35       1.0  0.18432  0.38306  0.79027  1.0000
  H   H36       1.0  0.32417999999999997  0.41094  0.84206  1.0000
  H   H37       1.0  0.10400999999999999  0.45794999999999997  0.87049  1.0000
  H   H38       1.0  0.7543899999999999  0.44429  0.99915  1.0000
  H   H39       1.0  0.91738  0.53499  0.93015  1.0000
  H   H40       1.0  0.4848  0.34688  0.8865  1.0000
  H   H41       1.0  0.66359  0.38128  0.8592  1.0000
  H   H42       1.0  0.6298499999999999  0.26803  0.8839999999999999  1.0000
  H   H43       1.0  0.50715  0.18945  0.60003  1.0000
  H   H44       1.0  0.35396  0.26221  0.60393  1.0000
  H   H45       1.0  0.33172  0.14767  0.62727  1.0000
  H   H46       1.0  0.82464  0.27964  0.82352  1.0000
  H   H47       1.0  0.87926  0.2681  0.7503200000000001  1.0000
  H   H48       1.0  0.8274399999999997  0.16967999999999994  0.7915400000000001  1.0000
  H   H49       1.0  0.30096  0.76798  0.49161  1.0000
  H   H50       1.0  0.6733699999999999  0.76545  0.025119999999999996  1.0000
  H   H51       1.0  0.58673  0.5096  0.93757  1.0000
  H   H52       1.0  0.72588  0.60016  0.01337  1.0000
  H   H53       1.0  0.16605  0.62405  0.85649  1.0000
  H   H54       1.0  0.3052  0.6511199999999998  0.80337  1.0000
  H   H55       1.0  0.66424  0.7547099999999998  0.83802  1.0000
  H   H56       1.0  0.6672200000000001  0.86477  0.80624  1.0000
  H   H57       1.0  0.6075899999999997  0.76757  0.76549  1.0000
  H   H58       1.0  0.3998899999999999  0.58286  0.8778799999999999  1.0000
  H   H59       1.0  0.68205  0.87741  0.70824  1.0000
  H   H60       1.0  0.82334  0.90686  0.65655  1.0000
  H   H61       1.0  0.6045  0.9515099999999999  0.62968  1.0000
  H   H62       1.0  0.26322  0.93596  0.49976  1.0000
  H   H63       1.0  0.4166399999999999  0.02672  0.57087  1.0000
  H   H64       1.0  0.9880399999999999  0.84613  0.61314  1.0000
  H   H65       1.0  0.16564  0.8808899999999997  0.64038  1.0000
  H   H66       1.0  0.13367  0.76767  0.61549  1.0000
  H   H67       1.0  0.0035399999999999993  0.68978  0.9002300000000001  1.0000
  H   H68       1.0  0.84955  0.76196  0.8962  1.0000
  H   H69       1.0  0.83  0.64755  0.87247  1.0000
  H   H70       1.0  0.3265  0.78008  0.67569  1.0000
  H   H71       1.0  0.38044999999999995  0.7690699999999998  0.7487400000000001  1.0000
  H   H72       1.0  0.32889  0.67032  0.7082200000000001  1.0000
  H   H73       1.0  0.20933  0.7336799999999998  0.99384  1.0000
  H   H74       1.0  0.8131  0.73531  0.5228  1.0000
  H   H75       1.0  0.9161100000000001  0.9940399999999998  0.43957  1.0000
  H   H76       1.0  0.76758  0.9026499999999997  0.51338  1.0000
  H   H77       1.0  0.3341499999999999  0.8778099999999998  0.35647999999999996  1.0000
  H   H78       1.0  0.1969  0.8535399999999997  0.30291  1.0000
  H   H79       1.0  0.83296  0.74499  0.33772  1.0000
  H   H80       1.0  0.8310999999999997  0.63475  0.30638  1.0000
  H   H81       1.0  0.89122  0.7319099999999998  0.26515  1.0000
  H   H82       1.0  0.10105  0.91972  0.37859  1.0000
  H   H83       1.0  0.81612  0.61938  0.20930000000000004  1.0000
  H   H84       1.0  0.67624  0.59033  0.15772  1.0000
  H   H85       1.0  0.89725  0.54583  0.12885  1.0000
  H   H86       1.0  0.24519999999999997  0.56474  0.9995899999999999  1.0000
  H   H87       1.0  0.08576  0.47167  0.06879  1.0000
  H   H88       1.0  0.5136  0.6531999999999999  0.11356  1.0000
  H   H89       1.0  0.3349599999999999  0.61908  0.14111  1.0000
  H   H90       1.0  0.3686799999999999  0.73219  0.11607  1.0000
  H   H91       1.0  0.49189999999999995  0.80986  0.40018  1.0000
  H   H92       1.0  0.6444999999999999  0.7365799999999998  0.39608  1.0000
  H   H93       1.0  0.6676999999999998  0.85144  0.3733  1.0000
  H   H94       1.0  0.17409  0.7206199999999999  0.17677  1.0000
  H   H95       1.0  0.12037  0.73219  0.25007  1.0000
  H   H96       1.0  0.17092  0.8306899999999998  0.20865  1.0000
  C   C1        1.0  0.51093  0.13807  0.028790000000000003  1.0000
  C   C2        1.0  0.6319299999999998  0.18481  0.47659  1.0000
  C   C3        1.0  0.43189  0.17743  0.40491  1.0000
  C   C4        1.0  0.38139  0.28165  0.00818  1.0000
  C   C5        1.0  0.48799  0.23641  0.04167  1.0000
  C   C6        1.0  0.52262  0.22902  0.44401  1.0000
  C   C7        1.0  0.4360499999999999  0.42362  0.05693  1.0000
  C   C8        1.0  0.35581  0.3747999999999999  0.014859999999999998  1.0000
  C   C9        1.0  0.50897  0.3295399999999999  0.45374  1.0000
  C   C10       1.0  0.57222  0.28623  0.08401  1.0000
  C   C11       1.0  0.78535  0.32302999999999993  0.17096  1.0000
  C   C12       1.0  0.3093599999999999  0.20746  0.20151  1.0000
  C   C13       1.0  0.10723  0.18977999999999995  0.27794  1.0000
  C   C14       1.0  0.15087999999999996  0.22030999999999998  0.22215  1.0000
  C   C15       1.0  0.9004599999999999  0.27769  0.20826000000000003  1.0000
  C   C16       1.0  0.54136  0.38029  0.09108  1.0000
  C   C17       1.0  0.22178  0.14402  0.31535  1.0000
  C   C18       1.0  0.85656  0.24639999999999995  0.26381  1.0000
  C   C19       1.0  0.45833999999999997  0.08257  0.3997200000000001  1.0000
  C   C20       1.0  0.65221  0.09058999999999998  0.47248  1.0000
  C   C21       1.0  0.56547  0.03982  0.4334  1.0000
  C   C22       1.0  0.96163  0.20352999999999993  0.29947  1.0000
  C   C23       1.0  0.9163799999999999  0.17461  0.36009  1.0000
  C   C24       1.0  0.04586  0.26368  0.18666  1.0000
  C   C25       1.0  0.09067  0.29373  0.12623  1.0000
  C   C26       1.0  0.6972199999999998  0.25778  0.28391  1.0000
  C   C27       1.0  0.06722999999999998  0.06645  0.10301000000000002  1.0000
  C   C28       1.0  0.9916399999999999  0.36030999999999996  0.527  1.0000
  C   C29       1.0  0.8535199999999997  0.31611  0.97607  1.0000
  C   C30       1.0  0.059129999999999995  0.32205  0.90551  1.0000
  C   C31       1.0  0.12412  0.21690999999999994  0.50742  1.0000
  C   C32       1.0  0.01535  0.26219  0.54024  1.0000
  C   C33       1.0  0.96346  0.27111  0.94387  1.0000
  C   C34       1.0  0.06671  0.07477999999999997  0.55637  1.0000
  C   C35       1.0  0.14964  0.12377  0.51456  1.0000
  C   C36       1.0  0.97804  0.17107  0.95481  1.0000
  C   C37       1.0  0.9295  0.21246  0.58276  1.0000
  C   C38       1.0  0.71407  0.17599  0.67099  1.0000
  C   C39       1.0  0.19002  0.29275  0.70234  1.0000
  C   C40       1.0  0.3899  0.3093299999999999  0.77873  1.0000
  C   C41       1.0  0.3477  0.2791499999999999  0.7229499999999999  1.0000
  C   C42       1.0  0.59854  0.22178999999999993  0.70851  1.0000
  C   C43       1.0  0.95976  0.11836999999999998  0.59013  1.0000
  C   C44       1.0  0.27443  0.35510999999999987  0.8163099999999999  1.0000
  C   C45       1.0  0.64122  0.253  0.76396  1.0000
  C   C46       1.0  0.03645  0.41728  0.90064  1.0000
  C   C47       1.0  0.83764  0.4107999999999999  0.97255  1.0000
  C   C48       1.0  0.9289899999999999  0.4609999999999999  0.93416  1.0000
  C   C49       1.0  0.53531  0.29571  0.7998500000000001  1.0000
  C   C50       1.0  0.5797  0.32498  0.8602399999999999  1.0000
  C   C51       1.0  0.45348  0.2359  0.68725  1.0000
  C   C52       1.0  0.41038  0.20673  0.62674  1.0000
  C   C53       1.0  0.80042  0.24199  0.7836  1.0000
  C   C54       1.0  0.4216699999999999  0.4313799999999999  0.60082  1.0000
  C   C55       1.0  0.48382  0.86789  0.97132  1.0000
  C   C56       1.0  0.3669099999999999  0.80903  0.52176  1.0000
  C   C57       1.0  0.56681  0.81574  0.59378  1.0000
  C   C58       1.0  0.61409  0.72483  0.99288  1.0000
  C   C59       1.0  0.50732  0.76926  0.95913  1.0000
  C   C60       1.0  0.47625999999999996  0.76477  0.55431  1.0000
  C   C61       1.0  0.56479  0.58216  0.94408  1.0000
  C   C62       1.0  0.64288  0.63209  0.9862100000000001  1.0000
  C   C63       1.0  0.49174  0.66499  0.54365  1.0000
  C   C64       1.0  0.4248  0.71821  0.9167900000000001  1.0000
  C   C65       1.0  0.21425999999999995  0.67912  0.8293500000000001  1.0000
  C   C66       1.0  0.68906  0.7918799999999998  0.7977899999999999  1.0000
  C   C67       1.0  0.8903  0.8074199999999999  0.72085  1.0000
  C   C68       1.0  0.84719  0.77827  0.77696  1.0000
  C   C69       1.0  0.09864  0.72298  0.79158  1.0000
  C   C70       1.0  0.45803  0.62433  0.9099699999999998  1.0000
  C   C71       1.0  0.7748599999999998  0.85071  0.68273  1.0000
  C   C72       1.0  0.14232999999999998  0.7535399999999998  0.73585  1.0000
  C   C73       1.0  0.53975  0.91043  0.59934  1.0000
  C   C74       1.0  0.3458799999999999  0.9029999999999998  0.52649  1.0000
  C   C75       1.0  0.43208  0.9532399999999998  0.56601  1.0000
  C   C76       1.0  0.036619999999999986  0.7948599999999998  0.69975  1.0000
  C   C77       1.0  0.08233999999999997  0.82431  0.63929  1.0000
  C   C78       1.0  0.95279  0.7364  0.8128999999999998  1.0000
  C   C79       1.0  0.9077800000000004  0.70701  0.87342  1.0000
  C   C80       1.0  0.30193  0.7427199999999998  0.7158999999999999  1.0000
  C   C81       1.0  0.9341200000000001  0.93448  0.89761  1.0000
  C   C82       1.0  0.005399999999999996  0.6335999999999999  0.46957  1.0000
  C   C83       1.0  0.14139  0.6913999999999998  0.02304  1.0000
  C   C84       1.0  0.9371799999999999  0.6825  0.09410999999999999  1.0000
  C   C85       1.0  0.87593  0.77681  0.49156  1.0000
  C   C86       1.0  0.9838099999999997  0.73246  0.45777  1.0000
  C   C87       1.0  0.030409999999999993  0.7347599999999997  0.05559999999999999  1.0000
  C   C88       1.0  0.93405  0.92084  0.44510999999999995  1.0000
  C   C89       1.0  0.85125  0.87034  0.48623  1.0000
  C   C90       1.0  0.01218  0.83458  0.04518  1.0000
  C   C91       1.0  0.06986  0.78394  0.4162  1.0000
  C   C92       1.0  0.28533  0.8238199999999999  0.32903  1.0000
  C   C93       1.0  0.80913  0.70757  0.2977  1.0000
  C   C94       1.0  0.60909  0.6913199999999998  0.22128  1.0000
  C   C95       1.0  0.65152  0.72124  0.27706  1.0000
  C   C96       1.0  0.40109999999999996  0.7788499999999998  0.29139  1.0000
  C   C97       1.0  0.040329999999999984  0.8784199999999998  0.41047  1.0000
  C   C98       1.0  0.72486  0.64647  0.18351  1.0000
  C   C99       1.0  0.35802  0.74772  0.23599000000000003  1.0000
  C   C100      1.0  0.9630399999999999  0.5875999999999999  0.09871999999999999  1.0000
  C   C101      1.0  0.16090999999999997  0.59695  0.0264  1.0000
  C   C102      1.0  0.07154  0.54547  0.06486  1.0000
  C   C103      1.0  0.4637  0.7048599999999998  0.20013  1.0000
  C   C104      1.0  0.41893999999999987  0.6753099999999999  0.13986  1.0000
  C   C105      1.0  0.5458199999999997  0.76433  0.3128  1.0000
  C   C106      1.0  0.58869  0.79255  0.3735  1.0000
  C   C107      1.0  0.19855  0.75846  0.21661  1.0000
  C   C108      1.0  0.56901  0.5591299999999999  0.39396  1.0000
  S   S1        1.0  0.29636  0.23373  0.36368000000000006  1.0000
  S   S2        1.0  0.7094599999999999  0.23087  0.12478  1.0000
  S   S3        1.0  0.19716  0.26551  0.8648599999999999  1.0000
  S   S4        1.0  0.79157  0.26759  0.62399  1.0000
  S   S5        1.0  0.7032599999999999  0.75971  0.63479  1.0000
  S   S6        1.0  0.28734  0.7720999999999998  0.87551  1.0000
  S   S7        1.0  0.79858  0.7373099999999998  0.13525  1.0000
  S   S8        1.0  0.20765  0.73032  0.37432000000000004  1.0000
  O   O1        1.0  0.19750999999999996  0.06261  0.08324  1.0000
  O   O2        1.0  0.42101  0.09698999999999999  0.99396  1.0000
  O   O3        1.0  0.3801899999999999  0.3654  0.45399000000000006  1.0000
  O   O4        1.0  0.62973  0.37525  0.46335000000000004  1.0000
  O   O5        1.0  0.62234  0.09796  0.05147  1.0000
  O   O6        1.0  0.94424  0.0508  0.07909  1.0000
  O   O7        1.0  0.29441  0.44005  0.57979  1.0000
  O   O8        1.0  0.0794  0.40305  0.49195  1.0000
  O   O9        1.0  0.10963  0.13837  0.95508  1.0000
  O   O10       1.0  0.85973  0.12342  0.9654  1.0000
  O   O11       1.0  0.87788  0.39844  0.55051  1.0000
  O   O12       1.0  0.54881  0.44714  0.5796  1.0000
  O   O13       1.0  0.80419  0.93928  0.9177700000000001  1.0000
  O   O14       1.0  0.57388  0.91043  0.00549  1.0000
  O   O15       1.0  0.62046  0.62947  0.54589  1.0000
  O   O16       1.0  0.37250999999999995  0.6195  0.53073  1.0000
  O   O17       1.0  0.3714799999999999  0.90696  0.9485299999999999  1.0000
  O   O18       1.0  0.05819  0.95443  0.9194299999999999  1.0000
  O   O19       1.0  0.6936799999999999  0.55167  0.41751  1.0000
  O   O20       1.0  0.9163099999999998  0.5914499999999998  0.50445  1.0000
  O   O21       1.0  0.87952  0.86576  0.04551999999999999  1.0000
  O   O22       1.0  0.12839  0.88416  0.0345  1.0000
  O   O23       1.0  0.1173  0.5942  0.44562  1.0000
  O   O24       1.0  0.4389299999999999  0.5466  0.41296  1.0000
