data_image0
_chemical_formula_structural       Cu8H88C136N16O16
_chemical_formula_sum              "Cu8 H88 C136 N16 O16"
_cell_length_a       16.0135
_cell_length_b       15.464469999999999
_cell_length_c       20.8799
_cell_angle_alpha    89.94271
_cell_angle_beta     90.03175
_cell_angle_gamma    90.07835

_symmetry_space_group_name_H-M    'P 1'
_symmetry_Int_Tables_number       1

loop_
  _symmetry_equiv_pos_as_xyz
  'x,y,z'

loop_
  _atom_site_type_symbol
  _atom_site_label
  _atom_site_symmetry_multiplicity
  _atom_site_fract_x
  _atom_site_fract_y
  _atom_site_fract_z
  _atom_site_occupancy
  Cu  Cu1       1.0  0.5315300000000002  0.07722  0.55593  1.0000
  Cu  Cu2       1.0  0.53085  0.4220700000000001  0.9435800000000001  1.0000
  Cu  Cu3       1.0  0.9682800000000003  0.92198  0.05670000000000001  1.0000
  Cu  Cu4       1.0  0.96796  0.57565  0.4444100000000001  1.0000
  Cu  Cu5       1.0  0.46848  0.92277  0.44407  1.0000
  Cu  Cu6       1.0  0.4691500000000001  0.57792  0.056420000000000005  1.0000
  Cu  Cu7       1.0  0.031730000000000015  0.07802  0.9433  1.0000
  Cu  Cu8       1.0  0.03204  0.42434  0.5556  1.0000
  H   H1        1.0  0.73636  0.13333  0.47859000000000007  1.0000
  H   H2        1.0  0.90167  0.14593  0.31506  1.0000
  H   H3        1.0  0.77609  0.25806  0.49841  1.0000
  H   H4        1.0  0.8789900000000003  0.8318800000000002  0.17168  1.0000
  H   H5        1.0  0.07316  0.29876  0.45065000000000005  1.0000
  H   H6        1.0  0.9933100000000002  0.1947  0.38464  1.0000
  H   H7        1.0  0.84512  0.14475  0.20028  1.0000
  H   H8        1.0  0.8664600000000002  0.3544600000000001  0.56225  1.0000
  H   H9        1.0  0.8199  0.88554  0.27480000000000004  1.0000
  H   H10       1.0  0.9013400000000003  0.08032  0.09988  1.0000
  H   H11       1.0  0.6883700000000003  0.97493  0.31598  1.0000
  H   H12       1.0  0.73614  0.36755  0.02121  1.0000
  H   H13       1.0  0.90142  0.35444  0.18494000000000002  1.0000
  H   H14       1.0  0.7755900000000002  0.24317000000000005  0.00102  1.0000
  H   H15       1.0  0.87856  0.6682500000000002  0.32914  1.0000
  H   H16       1.0  0.07244  0.20239  0.04931  1.0000
  H   H17       1.0  0.99256  0.30566  0.11559  1.0000
  H   H18       1.0  0.84564  0.3553600000000001  0.29947  1.0000
  H   H19       1.0  0.8659000000000002  0.14731  0.9369900000000002  1.0000
  H   H20       1.0  0.8192  0.6148100000000001  0.22591  1.0000
  H   H21       1.0  0.9017  0.41959000000000013  0.40007  1.0000
  H   H22       1.0  0.6895500000000002  0.52634  0.18396000000000004  1.0000
  H   H23       1.0  0.7644800000000003  0.8674600000000002  0.9778  1.0000
  H   H24       1.0  0.5984  0.85575  0.81458  1.0000
  H   H25       1.0  0.7240900000000002  0.74442  0.99871  1.0000
  H   H26       1.0  0.62102  0.16924  0.67092  1.0000
  H   H27       1.0  0.4275500000000001  0.7016200000000002  0.94997  1.0000
  H   H28       1.0  0.50728  0.8052500000000002  0.8834000000000002  1.0000
  H   H29       1.0  0.6539400000000002  0.8561000000000002  0.69978  1.0000
  H   H30       1.0  0.63375  0.64836  0.06291  1.0000
  H   H31       1.0  0.68176  0.11522  0.7736000000000001  1.0000
  H   H32       1.0  0.59603  0.92086  0.59989  1.0000
  H   H33       1.0  0.8123100000000002  0.0257  0.8146800000000001  1.0000
  H   H34       1.0  0.7631600000000002  0.6322100000000003  0.52166  1.0000
  H   H35       1.0  0.5991400000000002  0.64539  0.68577  1.0000
  H   H36       1.0  0.7245400000000002  0.75714  0.50185  1.0000
  H   H37       1.0  0.6201000000000002  0.33125  0.82878  1.0000
  H   H38       1.0  0.4274300000000001  0.7974300000000002  0.5492  1.0000
  H   H39       1.0  0.50705  0.694  0.61573  1.0000
  H   H40       1.0  0.65486  0.6443  0.80047  1.0000
  H   H41       1.0  0.63453  0.8534500000000003  0.43774  1.0000
  H   H42       1.0  0.68107  0.3853600000000001  0.72619  1.0000
  H   H43       1.0  0.59712  0.57937  0.9004000000000001  1.0000
  H   H44       1.0  0.81195  0.47493  0.68535  1.0000
  H   H45       1.0  0.26365  0.8666600000000002  0.5214200000000001  1.0000
  H   H46       1.0  0.09834  0.85406  0.68494  1.0000
  H   H47       1.0  0.22392000000000006  0.7419300000000002  0.5016  1.0000
  H   H48       1.0  0.12102  0.16811000000000006  0.8283200000000001  1.0000
  H   H49       1.0  0.9268500000000002  0.70124  0.54935  1.0000
  H   H50       1.0  0.006700000000000002  0.80529  0.6153600000000001  1.0000
  H   H51       1.0  0.15489  0.85524  0.7997200000000001  1.0000
  H   H52       1.0  0.13354  0.64554  0.43775  1.0000
  H   H53       1.0  0.18011000000000005  0.11446  0.72521  1.0000
  H   H54       1.0  0.09867  0.9196700000000002  0.90013  1.0000
  H   H55       1.0  0.31163000000000013  0.025070000000000005  0.6840200000000001  1.0000
  H   H56       1.0  0.26387  0.63245  0.9787900000000002  1.0000
  H   H57       1.0  0.09858000000000003  0.64555  0.81506  1.0000
  H   H58       1.0  0.22441  0.75682  0.9989900000000002  1.0000
  H   H59       1.0  0.12144000000000003  0.33174  0.67086  1.0000
  H   H60       1.0  0.9275700000000002  0.7976  0.9507  1.0000
  H   H61       1.0  0.007440000000000001  0.69433  0.8844200000000001  1.0000
  H   H62       1.0  0.15436  0.6446300000000001  0.70053  1.0000
  H   H63       1.0  0.13411  0.85269  0.06302  1.0000
  H   H64       1.0  0.18081  0.38519  0.77409  1.0000
  H   H65       1.0  0.0983  0.5804  0.59993  1.0000
  H   H66       1.0  0.31046  0.47365  0.81604  1.0000
  H   H67       1.0  0.23553000000000004  0.13253  0.0222  1.0000
  H   H68       1.0  0.40161000000000013  0.14425  0.18542  1.0000
  H   H69       1.0  0.27592  0.25557  0.0012900000000000001  1.0000
  H   H70       1.0  0.3789800000000001  0.83076  0.32908  1.0000
  H   H71       1.0  0.57246  0.2983800000000001  0.05003000000000001  1.0000
  H   H72       1.0  0.4927300000000001  0.19474  0.1166  1.0000
  H   H73       1.0  0.3460600000000001  0.1439  0.30022  1.0000
  H   H74       1.0  0.36625  0.35164  0.93709  1.0000
  H   H75       1.0  0.31824000000000013  0.88477  0.22640000000000002  1.0000
  H   H76       1.0  0.4039700000000001  0.07914  0.4001100000000001  1.0000
  H   H77       1.0  0.1877  0.9743000000000003  0.18532000000000004  1.0000
  H   H78       1.0  0.23684000000000005  0.36778  0.47835  1.0000
  H   H79       1.0  0.4008600000000001  0.35461  0.31423  1.0000
  H   H80       1.0  0.27546  0.24286  0.49816  1.0000
  H   H81       1.0  0.37991  0.66875  0.17123  1.0000
  H   H82       1.0  0.57258  0.20257  0.45081  1.0000
  H   H83       1.0  0.49295  0.306  0.38428  1.0000
  H   H84       1.0  0.34515  0.3557  0.19953000000000004  1.0000
  H   H85       1.0  0.36548000000000014  0.14655  0.56226  1.0000
  H   H86       1.0  0.31893  0.61464  0.27381  1.0000
  H   H87       1.0  0.40289000000000014  0.4206200000000001  0.0996  1.0000
  H   H88       1.0  0.18806  0.5250600000000002  0.31465000000000004  1.0000
  C   C1        1.0  0.87619  0.21506000000000003  0.43552  1.0000
  C   C2        1.0  0.82868  0.02045  0.24717  1.0000
  C   C3        1.0  0.6269400000000003  0.0235  0.43345  1.0000
  C   C4        1.0  0.7542500000000002  0.11574000000000002  0.43016  1.0000
  C   C5        1.0  0.8468500000000002  0.12049  0.33943  1.0000
  C   C6        1.0  0.7044800000000002  0.05422  0.39952  1.0000
  C   C7        1.0  0.84196  0.26331  0.48635  1.0000
  C   C8        1.0  0.87004  0.90076  0.17982  1.0000
  C   C9        1.0  0.00725  0.28692  0.4600000000000001  1.0000
  C   C10       1.0  0.9613800000000002  0.22974  0.42257  1.0000
  C   C11       1.0  0.85204  0.07494  0.19634000000000001  1.0000
  C   C12       1.0  0.8253300000000002  0.15094  0.40070000000000006  1.0000
  C   C13       1.0  0.8917900000000002  0.31802000000000014  0.52226  1.0000
  C   C14       1.0  0.8368  0.93102  0.23715000000000003  1.0000
  C   C15       1.0  0.8832900000000002  0.03953  0.14008  1.0000
  C   C16       1.0  0.79993  0.05529  0.30932000000000004  1.0000
  C   C17       1.0  0.72764  0.023130000000000005  0.33917  1.0000
  C   C18       1.0  0.8755900000000002  0.2856300000000001  0.06438  1.0000
  C   C19       1.0  0.82878  0.47984  0.25303  1.0000
  C   C20       1.0  0.62734  0.4793  0.06666  1.0000
  C   C21       1.0  0.75406  0.38539  0.06964  1.0000
  C   C22       1.0  0.8466700000000003  0.37998  0.16057  1.0000
  C   C23       1.0  0.70491  0.44745  0.10011000000000002  1.0000
  C   C24       1.0  0.84141  0.23781000000000005  0.013230000000000002  1.0000
  C   C25       1.0  0.86984  0.5993800000000002  0.32077000000000006  1.0000
  C   C26       1.0  0.006620000000000002  0.2142  0.039720000000000005  1.0000
  C   C27       1.0  0.96073  0.27087  0.07741  1.0000
  C   C28       1.0  0.8523600000000002  0.4251700000000001  0.3036400000000001  1.0000
  C   C29       1.0  0.8249  0.34975  0.09924  1.0000
  C   C30       1.0  0.89126  0.18354  0.97711  1.0000
  C   C31       1.0  0.83648  0.56926  0.26339  1.0000
  C   C32       1.0  0.8835600000000002  0.46045  0.3599800000000001  1.0000
  C   C33       1.0  0.80014  0.44527  0.19072  1.0000
  C   C34       1.0  0.7283900000000002  0.4780900000000001  0.1606  1.0000
  C   C35       1.0  0.62419  0.78626  0.9350300000000001  1.0000
  C   C36       1.0  0.6718500000000002  0.9804  0.74625  1.0000
  C   C37       1.0  0.8743400000000002  0.9778000000000002  0.9325300000000001  1.0000
  C   C38       1.0  0.74655  0.88534  0.9293900000000002  1.0000
  C   C39       1.0  0.6536  0.88072  0.83875  1.0000
  C   C40       1.0  0.79653  0.94681  0.8987600000000001  1.0000
  C   C41       1.0  0.6583  0.73886  0.9864400000000001  1.0000
  C   C42       1.0  0.62983  0.10032  0.67913  1.0000
  C   C43       1.0  0.4933  0.71407  0.9596  1.0000
  C   C44       1.0  0.5391  0.77101  0.9218700000000001  1.0000
  C   C45       1.0  0.6473  0.92594  0.69579  1.0000
  C   C46       1.0  0.67521  0.85025  0.90005  1.0000
  C   C47       1.0  0.60855  0.6844000000000001  0.02261  1.0000
  C   C48       1.0  0.66399  0.06988  0.73616  1.0000
  C   C49       1.0  0.61516  0.96148  0.63984  1.0000
  C   C50       1.0  0.70085  0.94554  0.80842  1.0000
  C   C51       1.0  0.7731600000000002  0.97773  0.8382800000000001  1.0000
  C   C52       1.0  0.62431  0.7143700000000002  0.5649300000000002  1.0000
  C   C53       1.0  0.67179  0.5201500000000002  0.75376  1.0000
  C   C54       1.0  0.873  0.5221  0.567  1.0000
  C   C55       1.0  0.74587  0.61475  0.57029  1.0000
  C   C56       1.0  0.65382  0.62007  0.66133  1.0000
  C   C57       1.0  0.79574  0.55335  0.60104  1.0000
  C   C58       1.0  0.65867  0.76241  0.51389  1.0000
  C   C59       1.0  0.62934  0.40014  0.8206800000000001  1.0000
  C   C60       1.0  0.49338  0.78591  0.53995  1.0000
  C   C61       1.0  0.53908  0.72896  0.57768  1.0000
  C   C62       1.0  0.6478300000000002  0.5744700000000003  0.8043800000000001  1.0000
  C   C63       1.0  0.67509  0.65027  0.59988  1.0000
  C   C64       1.0  0.60902  0.8170500000000003  0.47778000000000004  1.0000
  C   C65       1.0  0.6635900000000002  0.43065  0.76371  1.0000
  C   C66       1.0  0.6157  0.53882  0.86031  1.0000
  C   C67       1.0  0.70075  0.55511  0.69163  1.0000
  C   C68       1.0  0.7727800000000002  0.52277  0.6617100000000001  1.0000
  C   C69       1.0  0.12381  0.78493  0.56449  1.0000
  C   C70       1.0  0.17132000000000006  0.97954  0.7528400000000001  1.0000
  C   C71       1.0  0.37307  0.9765  0.56656  1.0000
  C   C72       1.0  0.24576000000000006  0.8842500000000002  0.5698500000000001  1.0000
  C   C73       1.0  0.15316000000000005  0.8795  0.6605700000000001  1.0000
  C   C74       1.0  0.29553  0.94577  0.6004800000000001  1.0000
  C   C75       1.0  0.15805  0.73668  0.51366  1.0000
  C   C76       1.0  0.12997  0.09924  0.82019  1.0000
  C   C77       1.0  0.9927600000000002  0.71307  0.54  1.0000
  C   C78       1.0  0.03863  0.77025  0.57744  1.0000
  C   C79       1.0  0.14796  0.92506  0.80367  1.0000
  C   C80       1.0  0.1746700000000001  0.84906  0.59931  1.0000
  C   C81       1.0  0.10822000000000002  0.6819800000000003  0.47774000000000005  1.0000
  C   C82       1.0  0.16320000000000007  0.06898  0.76285  1.0000
  C   C83       1.0  0.11671000000000002  0.9604700000000003  0.85992  1.0000
  C   C84       1.0  0.20008  0.9447100000000003  0.6906900000000001  1.0000
  C   C85       1.0  0.2723600000000001  0.9768700000000002  0.66083  1.0000
  C   C86       1.0  0.12441  0.71436  0.93562  1.0000
  C   C87       1.0  0.17122  0.52016  0.7469800000000001  1.0000
  C   C88       1.0  0.37267  0.5207  0.93334  1.0000
  C   C89       1.0  0.24595000000000006  0.6146000000000003  0.9303700000000001  1.0000
  C   C90       1.0  0.15334  0.62002  0.83944  1.0000
  C   C91       1.0  0.29509000000000013  0.55254  0.8998900000000001  1.0000
  C   C92       1.0  0.15859  0.76218  0.9867700000000001  1.0000
  C   C93       1.0  0.13016  0.4006200000000001  0.6792300000000001  1.0000
  C   C94       1.0  0.99339  0.7857900000000002  0.9602800000000001  1.0000
  C   C95       1.0  0.03928  0.7291300000000002  0.9225900000000001  1.0000
  C   C96       1.0  0.14765000000000006  0.57482  0.69636  1.0000
  C   C97       1.0  0.1751  0.65024  0.90077  1.0000
  C   C98       1.0  0.10875000000000003  0.81645  0.02289  1.0000
  C   C99       1.0  0.16352000000000005  0.43073  0.7366200000000002  1.0000
  C   C100      1.0  0.11645000000000003  0.53955  0.64002  1.0000
  C   C101      1.0  0.19987  0.55472  0.8092900000000001  1.0000
  C   C102      1.0  0.27161000000000013  0.5219000000000003  0.8394  1.0000
  C   C103      1.0  0.37581  0.21373  0.06498000000000001  1.0000
  C   C104      1.0  0.32816  0.019600000000000006  0.25375  1.0000
  C   C105      1.0  0.12567  0.02219000000000001  0.06747  1.0000
  C   C106      1.0  0.25345  0.11466000000000003  0.07061  1.0000
  C   C107      1.0  0.34641  0.11927  0.16125  1.0000
  C   C108      1.0  0.20347  0.05318000000000001  0.10124  1.0000
  C   C109      1.0  0.34171  0.2611300000000001  0.013560000000000001  1.0000
  C   C110      1.0  0.37017  0.89968  0.32087000000000004  1.0000
  C   C111      1.0  0.5067100000000002  0.28593  0.040400000000000005  1.0000
  C   C112      1.0  0.4609  0.22898000000000004  0.07814  1.0000
  C   C113      1.0  0.3527  0.07406  0.30421  1.0000
  C   C114      1.0  0.32479  0.14974  0.09996  1.0000
  C   C115      1.0  0.3914600000000001  0.31559  0.97739  1.0000
  C   C116      1.0  0.33602  0.93012  0.26384  1.0000
  C   C117      1.0  0.38484  0.03851  0.36016  1.0000
  C   C118      1.0  0.29915  0.05445  0.19158000000000003  1.0000
  C   C119      1.0  0.22685  0.02226  0.16172  1.0000
  C   C120      1.0  0.3757000000000001  0.2856300000000001  0.4350800000000001  1.0000
  C   C121      1.0  0.32821  0.47984  0.24624000000000001  1.0000
  C   C122      1.0  0.12700000000000006  0.4779  0.43299000000000004  1.0000
  C   C123      1.0  0.25413  0.38525  0.42971  1.0000
  C   C124      1.0  0.3461800000000001  0.37992  0.33867  1.0000
  C   C125      1.0  0.20427  0.44665000000000005  0.39896  1.0000
  C   C126      1.0  0.3413400000000001  0.23759  0.48611000000000004  1.0000
  C   C127      1.0  0.3706700000000001  0.59985  0.17932  1.0000
  C   C128      1.0  0.50663  0.21409  0.46005  1.0000
  C   C129      1.0  0.46093  0.2710400000000001  0.42232  1.0000
  C   C130      1.0  0.35218  0.42552  0.19562000000000002  1.0000
  C   C131      1.0  0.32491  0.3497300000000001  0.40013  1.0000
  C   C132      1.0  0.3909900000000001  0.18295000000000006  0.52222  1.0000
  C   C133      1.0  0.3364100000000001  0.56934  0.2363  1.0000
  C   C134      1.0  0.3843100000000001  0.46117  0.13969  1.0000
  C   C135      1.0  0.29925  0.44489  0.30837  1.0000
  C   C136      1.0  0.22722  0.47722  0.33829000000000004  1.0000
  N   N1        1.0  0.97437  0.33059  0.51044  1.0000
  N   N2        1.0  0.89414  0.95351  0.13161  1.0000
  N   N3        1.0  0.9738700000000002  0.17112  0.9888700000000001  1.0000
  N   N4        1.0  0.8942900000000003  0.54641  0.3687000000000001  1.0000
  N   N5        1.0  0.5261100000000002  0.67124  0.01053  1.0000
  N   N6        1.0  0.60464  0.04753  0.6313800000000002  1.0000
  N   N7        1.0  0.52644  0.82968  0.4894900000000001  1.0000
  N   N8        1.0  0.60451  0.45279000000000014  0.8686  1.0000
  N   N9        1.0  0.02564  0.6694100000000002  0.4895600000000001  1.0000
  N   N10       1.0  0.10587  0.04649  0.86839  1.0000
  N   N11       1.0  0.026130000000000007  0.8288700000000002  0.01113  1.0000
  N   N12       1.0  0.10571  0.45358  0.6313000000000001  1.0000
  N   N13       1.0  0.4739  0.32876  0.9894700000000001  1.0000
  N   N14       1.0  0.39537  0.95247  0.36863000000000007  1.0000
  N   N15       1.0  0.47357  0.17031  0.51052  1.0000
  N   N16       1.0  0.39550000000000013  0.5472  0.13141000000000003  1.0000
  O   O1        1.0  0.62487  0.03759000000000001  0.49345  1.0000
  O   O2        1.0  0.57087  0.9871000000000002  0.39959000000000006  1.0000
  O   O3        1.0  0.6226700000000002  0.4637300000000001  0.006940000000000001  1.0000
  O   O4        1.0  0.57364  0.51863  0.10084  1.0000
  O   O5        1.0  0.87807  0.9620900000000002  0.9923000000000001  1.0000
  O   O6        1.0  0.9291000000000003  0.01652  0.89882  1.0000
  O   O7        1.0  0.87498  0.53574  0.50688  1.0000
  O   O8        1.0  0.92909  0.48555  0.60076  1.0000
  O   O9        1.0  0.37514  0.96241  0.50655  1.0000
  O   O10       1.0  0.42914  0.01289  0.60041  1.0000
  O   O11       1.0  0.37734  0.5362700000000002  0.9930600000000002  1.0000
  O   O12       1.0  0.42636  0.48136  0.8991600000000001  1.0000
  O   O13       1.0  0.12193000000000002  0.03790000000000002  0.007700000000000001  1.0000
  O   O14       1.0  0.0709  0.98347  0.10119  1.0000
  O   O15       1.0  0.12502000000000005  0.46426  0.49313000000000007  1.0000
  O   O16       1.0  0.07092  0.51445  0.3992400000000001  1.0000
