data_image0
_chemical_formula_structural       Cd6H120C168N12O24
_chemical_formula_sum              "Cd6 H120 C168 N12 O24"
_cell_length_a       11.43138
_cell_length_b       18.87044
_cell_length_c       22.601249999999997
_cell_angle_alpha    90.0
_cell_angle_beta     97.39969
_cell_angle_gamma    90.0

_space_group_name_H-M_alt    "P 1"
_space_group_IT_number       1

loop_
  _space_group_symop_operation_xyz
  'x, y, z'

loop_
  _atom_site_type_symbol
  _atom_site_label
  _atom_site_symmetry_multiplicity
  _atom_site_fract_x
  _atom_site_fract_y
  _atom_site_fract_z
  _atom_site_occupancy
  Cd  Cd1       1.0  0.63913  0.026829999999999993  0.05213  1.0000
  Cd  Cd2       1.0  0.36087  0.026829999999999993  0.44788  1.0000
  Cd  Cd3       1.0  0.36087  0.97317  0.94788  1.0000
  Cd  Cd4       1.0  0.63913  0.97317  0.55213  1.0000
  Cd  Cd5       1.0  0.0  0.4999999999999999  0.0  1.0000
  Cd  Cd6       1.0  0.0  0.4999999999999999  0.5  1.0000
  H   H1        1.0  0.6798900000000002  0.17416999999999994  0.99237  1.0000
  H   H2        1.0  0.8122100000000002  0.23769  0.9310600000000001  1.0000
  H   H3        1.0  0.9957200000000002  0.0394  0.91555  1.0000
  H   H4        1.0  0.8512900000000001  0.9835699999999999  0.9765000000000001  1.0000
  H   H5        1.0  0.06939  0.13953  0.87131  1.0000
  H   H6        1.0  0.92718  0.27841999999999995  0.8727  1.0000
  H   H7        1.0  0.02515999999999999  0.3817  0.84691  1.0000
  H   H8        1.0  0.16261  0.44178  0.78645  1.0000
  H   H9        1.0  0.2951000000000001  0.37043  0.73068  1.0000
  H   H10       1.0  0.15560000000000004  0.17907999999999996  0.7979900000000001  1.0000
  H   H11       1.0  0.37259  0.26125  0.7039  1.0000
  H   H12       1.0  0.24242  0.12638  0.73542  1.0000
  H   H13       1.0  0.28398  0.021139999999999996  0.68531  1.0000
  H   H14       1.0  0.4073800000000001  0.9538599999999999  0.62183  1.0000
  H   H15       1.0  0.6196700000000002  0.12817  0.60321  1.0000
  H   H16       1.0  0.50553  0.20328999999999994  0.6648  1.0000
  H   H17       1.0  0.05781000000000003  0.66201  0.9632700000000001  1.0000
  H   H18       1.0  0.18177  0.73188  0.90214  1.0000
  H   H19       1.0  0.32339000000000007  0.53297  0.84752  1.0000
  H   H20       1.0  0.19334999999999997  0.47168  0.91184  1.0000
  H   H21       1.0  0.39505000000000007  0.63777  0.8077700000000001  1.0000
  H   H22       1.0  0.29391  0.78054  0.84432  1.0000
  H   H23       1.0  0.36808000000000013  0.8828  0.81051  1.0000
  H   H24       1.0  0.09733000000000004  0.26995  0.96216  1.0000
  H   H25       1.0  0.20576  0.15413  0.9671399999999999  1.0000
  H   H26       1.0  0.4891800000000001  0.24923999999999996  0.08321  1.0000
  H   H27       1.0  0.37639  0.3638099999999999  0.08111  1.0000
  H   H28       1.0  0.9247599999999999  0.9182199999999999  0.20463  1.0000
  H   H29       1.0  0.9201500000000002  0.14493  0.20603  1.0000
  H   H30       1.0  0.32011  0.17416999999999994  0.50763  1.0000
  H   H31       1.0  0.18778000000000006  0.23769  0.56895  1.0000
  H   H32       1.0  0.004270000000000012  0.0394  0.58446  1.0000
  H   H33       1.0  0.1487  0.9835699999999999  0.52351  1.0000
  H   H34       1.0  0.93061  0.13953  0.6287  1.0000
  H   H35       1.0  0.07282  0.27841999999999995  0.62731  1.0000
  H   H36       1.0  0.9748400000000002  0.3817  0.6531  1.0000
  H   H37       1.0  0.83739  0.44178  0.71356  1.0000
  H   H38       1.0  0.7049000000000002  0.37043  0.76933  1.0000
  H   H39       1.0  0.8444  0.17907999999999996  0.70202  1.0000
  H   H40       1.0  0.6273999999999998  0.26125  0.7961  1.0000
  H   H41       1.0  0.7575800000000003  0.12638  0.76459  1.0000
  H   H42       1.0  0.71602  0.021139999999999996  0.8146900000000001  1.0000
  H   H43       1.0  0.59262  0.9538599999999999  0.8781700000000001  1.0000
  H   H44       1.0  0.38033  0.12817  0.8968  1.0000
  H   H45       1.0  0.49447  0.20328999999999994  0.83521  1.0000
  H   H46       1.0  0.94219  0.66201  0.53673  1.0000
  H   H47       1.0  0.8182300000000001  0.73188  0.59787  1.0000
  H   H48       1.0  0.6766  0.53297  0.65248  1.0000
  H   H49       1.0  0.8066400000000002  0.47168  0.58816  1.0000
  H   H50       1.0  0.60495  0.63777  0.69224  1.0000
  H   H51       1.0  0.70609  0.78054  0.65568  1.0000
  H   H52       1.0  0.63192  0.8828  0.68949  1.0000
  H   H53       1.0  0.90267  0.26995  0.53785  1.0000
  H   H54       1.0  0.79424  0.15413  0.53287  1.0000
  H   H55       1.0  0.51082  0.24923999999999996  0.41679  1.0000
  H   H56       1.0  0.6236100000000001  0.3638199999999999  0.41889  1.0000
  H   H57       1.0  0.07524  0.9182199999999999  0.29537  1.0000
  H   H58       1.0  0.07985  0.14493  0.29398  1.0000
  H   H59       1.0  0.32011  0.82583  0.007629999999999999  1.0000
  H   H60       1.0  0.18779000000000004  0.7623099999999999  0.06895  1.0000
  H   H61       1.0  0.004280000000000001  0.9606  0.08446  1.0000
  H   H62       1.0  0.14871000000000004  0.01643  0.02351  1.0000
  H   H63       1.0  0.93061  0.86047  0.12869  1.0000
  H   H64       1.0  0.07282  0.7215799999999999  0.1273  1.0000
  H   H65       1.0  0.9748400000000002  0.6183  0.1531  1.0000
  H   H66       1.0  0.83739  0.55822  0.21355999999999997  1.0000
  H   H67       1.0  0.7049000000000002  0.62957  0.26933  1.0000
  H   H68       1.0  0.8443999999999999  0.8209199999999999  0.20201999999999998  1.0000
  H   H69       1.0  0.6274100000000001  0.7387499999999998  0.2961  1.0000
  H   H70       1.0  0.7575800000000003  0.87362  0.26459  1.0000
  H   H71       1.0  0.71602  0.97886  0.31469  1.0000
  H   H72       1.0  0.59262  0.046139999999999994  0.37817  1.0000
  H   H73       1.0  0.38033  0.8718299999999999  0.39679  1.0000
  H   H74       1.0  0.49447  0.7967099999999998  0.33521  1.0000
  H   H75       1.0  0.94219  0.33799  0.03673  1.0000
  H   H76       1.0  0.8182300000000001  0.26812  0.09787  1.0000
  H   H77       1.0  0.67661  0.46702999999999995  0.15248  1.0000
  H   H78       1.0  0.80665  0.5283199999999999  0.08816  1.0000
  H   H79       1.0  0.60495  0.3622299999999999  0.19223  1.0000
  H   H80       1.0  0.70609  0.21945999999999996  0.15568  1.0000
  H   H81       1.0  0.63192  0.11719999999999998  0.18948999999999996  1.0000
  H   H82       1.0  0.90267  0.73005  0.03784  1.0000
  H   H83       1.0  0.79424  0.84587  0.03286  1.0000
  H   H84       1.0  0.5108200000000002  0.7507599999999998  0.9167900000000001  1.0000
  H   H85       1.0  0.6236100000000001  0.63619  0.91889  1.0000
  H   H86       1.0  0.07524  0.08178  0.79537  1.0000
  H   H87       1.0  0.07985  0.85507  0.79398  1.0000
  H   H88       1.0  0.6798900000000002  0.82583  0.49237  1.0000
  H   H89       1.0  0.8122200000000002  0.7623099999999999  0.43104999999999993  1.0000
  H   H90       1.0  0.9957300000000001  0.9606  0.41555  1.0000
  H   H91       1.0  0.8513000000000001  0.01643  0.4764999999999999  1.0000
  H   H92       1.0  0.06939  0.86047  0.37131  1.0000
  H   H93       1.0  0.92718  0.7215799999999999  0.3727  1.0000
  H   H94       1.0  0.025160000000000002  0.6183  0.3469  1.0000
  H   H95       1.0  0.16261  0.55822  0.28644  1.0000
  H   H96       1.0  0.2951  0.62957  0.23067  1.0000
  H   H97       1.0  0.1556  0.8209199999999999  0.29799  1.0000
  H   H98       1.0  0.3726  0.7387499999999998  0.2039  1.0000
  H   H99       1.0  0.24242  0.87362  0.23541999999999996  1.0000
  H   H100      1.0  0.28398  0.97886  0.18530999999999997  1.0000
  H   H101      1.0  0.4073800000000001  0.046139999999999994  0.12183  1.0000
  H   H102      1.0  0.6196700000000002  0.8718299999999999  0.10321  1.0000
  H   H103      1.0  0.50553  0.7967099999999998  0.16479  1.0000
  H   H104      1.0  0.05781000000000001  0.33799  0.46327  1.0000
  H   H105      1.0  0.18177  0.26812  0.40213  1.0000
  H   H106      1.0  0.32340000000000013  0.46702999999999995  0.34752  1.0000
  H   H107      1.0  0.19335999999999998  0.5283199999999999  0.41183999999999993  1.0000
  H   H108      1.0  0.39505000000000007  0.3622299999999999  0.30777  1.0000
  H   H109      1.0  0.29390999999999995  0.21945999999999996  0.34432  1.0000
  H   H110      1.0  0.36808000000000013  0.11719999999999998  0.31051  1.0000
  H   H111      1.0  0.09733000000000003  0.73005  0.46216000000000007  1.0000
  H   H112      1.0  0.20576  0.84587  0.46714  1.0000
  H   H113      1.0  0.4891800000000001  0.7507599999999998  0.58322  1.0000
  H   H114      1.0  0.37639  0.63618  0.58111  1.0000
  H   H115      1.0  0.9247600000000001  0.08178  0.70463  1.0000
  H   H116      1.0  0.9201500000000002  0.85507  0.70603  1.0000
  H   H117      1.0  0.5  0.68566  0.7500000000000001  1.0000
  H   H118      1.0  0.5  0.9489399999999999  0.7500000000000001  1.0000
  H   H119      1.0  0.5  0.31434  0.25  1.0000
  H   H120      1.0  0.5  0.05105999999999999  0.25  1.0000
  C   C1        1.0  0.7507500000000001  0.1466  0.9739699999999999  1.0000
  C   C2        1.0  0.82512  0.18133999999999997  0.93966  1.0000
  C   C3        1.0  0.9158600000000001  0.14351  0.9169099999999999  1.0000
  C   C4        1.0  0.9258900000000002  0.07081999999999998  0.9313  1.0000
  C   C5        1.0  0.847  0.03978999999999999  0.9655100000000001  1.0000
  C   C6        1.0  0.9986900000000001  0.17502  0.8806299999999999  1.0000
  C   C7        1.0  0.9958900000000002  0.24287999999999998  0.86101  1.0000
  C   C8        1.0  0.07978  0.27597  0.82597  1.0000
  C   C9        1.0  0.08304  0.35062999999999994  0.8223300000000001  1.0000
  C   C10       1.0  0.16109  0.3842  0.78883  1.0000
  C   C11       1.0  0.23584000000000002  0.34423999999999993  0.7578  1.0000
  C   C12       1.0  0.23416  0.26946  0.7601999999999999  1.0000
  C   C13       1.0  0.15672000000000003  0.23657  0.79518  1.0000
  C   C14       1.0  0.31027  0.22942  0.72529  1.0000
  C   C15       1.0  0.30726000000000003  0.15846  0.7161600000000001  1.0000
  C   C16       1.0  0.38191000000000014  0.11914999999999999  0.68031  1.0000
  C   C17       1.0  0.35743000000000014  0.04716999999999999  0.66789  1.0000
  C   C18       1.0  0.4260900000000001  0.009169999999999998  0.63255  1.0000
  C   C19       1.0  0.5437900000000001  0.10689  0.62184  1.0000
  C   C20       1.0  0.47901  0.14853  0.65629  1.0000
  C   C21       1.0  0.11794000000000004  0.6357899999999999  0.9366599999999999  1.0000
  C   C22       1.0  0.18761000000000003  0.67431  0.90228  1.0000
  C   C23       1.0  0.26431  0.6385  0.86815  1.0000
  C   C24       1.0  0.26554  0.56387  0.87229  1.0000
  C   C25       1.0  0.19351000000000002  0.52925  0.9080300000000001  1.0000
  C   C26       1.0  0.34019000000000005  0.6734899999999999  0.8302800000000001  1.0000
  C   C27       1.0  0.34797000000000006  0.74439  0.82159  1.0000
  C   C28       1.0  0.42562000000000005  0.77976  0.78447  1.0000
  C   C29       1.0  0.4262200000000001  0.85466  0.78387  1.0000
  C   C30       1.0  0.16097000000000003  0.39128999999999997  0.015  1.0000
  C   C31       1.0  0.23056000000000001  0.3238  0.02041  1.0000
  C   C32       1.0  0.18251999999999996  0.26445  0.9888599999999999  1.0000
  C   C33       1.0  0.24272000000000002  0.20044  0.99144  1.0000
  C   C34       1.0  0.3542500000000001  0.19529  0.0251  1.0000
  C   C35       1.0  0.40285000000000004  0.25436999999999993  0.05713  1.0000
  C   C36       1.0  0.34061  0.31806  0.055670000000000004  1.0000
  C   C37       1.0  0.41984000000000005  0.12653  0.02596  1.0000
  C   C38       1.0  0.8209600000000001  0.02968  0.14663  1.0000
  C   C39       1.0  0.9133800000000002  0.0314  0.19995  1.0000
  C   C40       1.0  0.95783  0.9674799999999999  0.22502000000000003  1.0000
  C   C41       1.0  0.9561700000000002  0.09563999999999998  0.2255  1.0000
  C   C42       1.0  0.24925000000000005  0.1466  0.52603  1.0000
  C   C43       1.0  0.17488  0.18133999999999997  0.56034  1.0000
  C   C44       1.0  0.08413000000000002  0.14351  0.58309  1.0000
  C   C45       1.0  0.07411  0.07081999999999998  0.56871  1.0000
  C   C46       1.0  0.153  0.03978999999999999  0.5345  1.0000
  C   C47       1.0  0.0013099999999999997  0.17502  0.61937  1.0000
  C   C48       1.0  0.0041100000000000095  0.24287999999999998  0.63899  1.0000
  C   C49       1.0  0.92021  0.27597  0.67403  1.0000
  C   C50       1.0  0.9169600000000002  0.35062999999999994  0.67768  1.0000
  C   C51       1.0  0.83891  0.3842  0.71118  1.0000
  C   C52       1.0  0.76416  0.34423999999999993  0.7422  1.0000
  C   C53       1.0  0.7658400000000001  0.26946  0.7398100000000001  1.0000
  C   C54       1.0  0.8432800000000003  0.23657  0.70483  1.0000
  C   C55       1.0  0.68973  0.22942  0.77471  1.0000
  C   C56       1.0  0.6927400000000001  0.15846  0.78385  1.0000
  C   C57       1.0  0.6180900000000001  0.11914999999999999  0.8197000000000001  1.0000
  C   C58       1.0  0.64257  0.04716999999999999  0.8321100000000001  1.0000
  C   C59       1.0  0.57391  0.009169999999999998  0.86746  1.0000
  C   C60       1.0  0.45621000000000006  0.10689  0.8781600000000002  1.0000
  C   C61       1.0  0.5209800000000001  0.14853  0.84372  1.0000
  C   C62       1.0  0.8820600000000001  0.6357899999999999  0.56335  1.0000
  C   C63       1.0  0.8123900000000002  0.67431  0.59773  1.0000
  C   C64       1.0  0.7356800000000002  0.6385  0.63185  1.0000
  C   C65       1.0  0.73446  0.56387  0.62771  1.0000
  C   C66       1.0  0.8064900000000003  0.52925  0.59198  1.0000
  C   C67       1.0  0.65981  0.6734899999999999  0.66973  1.0000
  C   C68       1.0  0.65203  0.74439  0.67841  1.0000
  C   C69       1.0  0.57438  0.77976  0.71554  1.0000
  C   C70       1.0  0.57378  0.85466  0.71613  1.0000
  C   C71       1.0  0.8390400000000001  0.39128999999999997  0.48499999999999993  1.0000
  C   C72       1.0  0.7694400000000002  0.3238  0.47959000000000007  1.0000
  C   C73       1.0  0.8174800000000001  0.26445  0.51115  1.0000
  C   C74       1.0  0.7572700000000002  0.20044  0.50856  1.0000
  C   C75       1.0  0.6457500000000002  0.19529  0.47490999999999994  1.0000
  C   C76       1.0  0.5971500000000001  0.25436999999999993  0.44286999999999993  1.0000
  C   C77       1.0  0.6593900000000001  0.31806  0.44433999999999996  1.0000
  C   C78       1.0  0.58016  0.12653  0.47403999999999996  1.0000
  C   C79       1.0  0.17904  0.02968  0.35337  1.0000
  C   C80       1.0  0.08662000000000002  0.0314  0.30005  1.0000
  C   C81       1.0  0.04217  0.9674899999999997  0.27498  1.0000
  C   C82       1.0  0.04383000000000001  0.09563999999999998  0.27451  1.0000
  C   C83       1.0  0.24925000000000005  0.8533999999999998  0.02603  1.0000
  C   C84       1.0  0.17488  0.8186599999999998  0.06034  1.0000
  C   C85       1.0  0.08414000000000002  0.85649  0.08309  1.0000
  C   C86       1.0  0.07411000000000001  0.92918  0.06871  1.0000
  C   C87       1.0  0.153  0.96021  0.0345  1.0000
  C   C88       1.0  0.0013099999999999997  0.82498  0.11937  1.0000
  C   C89       1.0  0.00411  0.75712  0.13899  1.0000
  C   C90       1.0  0.9202200000000003  0.72403  0.17403  1.0000
  C   C91       1.0  0.9169600000000002  0.6493699999999999  0.17768  1.0000
  C   C92       1.0  0.83891  0.6158  0.21117  1.0000
  C   C93       1.0  0.76416  0.65576  0.2422  1.0000
  C   C94       1.0  0.7658400000000001  0.7305399999999997  0.23981  1.0000
  C   C95       1.0  0.8432800000000003  0.76343  0.20482000000000003  1.0000
  C   C96       1.0  0.68973  0.7705799999999999  0.27471  1.0000
  C   C97       1.0  0.6927400000000002  0.84154  0.28385  1.0000
  C   C98       1.0  0.61809  0.8808499999999999  0.3197  1.0000
  C   C99       1.0  0.64257  0.9528299999999998  0.33211  1.0000
  C   C100      1.0  0.57391  0.9908299999999998  0.36745  1.0000
  C   C101      1.0  0.45621  0.8931099999999997  0.37815999999999994  1.0000
  C   C102      1.0  0.52099  0.8514699999999998  0.34372  1.0000
  C   C103      1.0  0.8820600000000001  0.36421  0.06335  1.0000
  C   C104      1.0  0.8123900000000002  0.32569  0.09773  1.0000
  C   C105      1.0  0.7356900000000002  0.3614999999999999  0.13185  1.0000
  C   C106      1.0  0.73446  0.43613  0.12771  1.0000
  C   C107      1.0  0.8064900000000003  0.47075  0.09198  1.0000
  C   C108      1.0  0.65981  0.32651  0.16973  1.0000
  C   C109      1.0  0.65203  0.25561  0.17841  1.0000
  C   C110      1.0  0.57438  0.22023999999999996  0.21554  1.0000
  C   C111      1.0  0.57378  0.14534  0.21613  1.0000
  C   C112      1.0  0.83903  0.6087099999999999  0.985  1.0000
  C   C113      1.0  0.7694400000000002  0.6762  0.9795899999999998  1.0000
  C   C114      1.0  0.8174800000000001  0.73555  0.01115  1.0000
  C   C115      1.0  0.7572700000000002  0.79956  0.00856  1.0000
  C   C116      1.0  0.6457500000000002  0.80471  0.97491  1.0000
  C   C117      1.0  0.5971500000000001  0.7456299999999998  0.9428799999999999  1.0000
  C   C118      1.0  0.6593900000000001  0.68194  0.9443399999999998  1.0000
  C   C119      1.0  0.58016  0.87347  0.97404  1.0000
  C   C120      1.0  0.17904  0.9703199999999998  0.85338  1.0000
  C   C121      1.0  0.08661999999999997  0.9685999999999999  0.80006  1.0000
  C   C122      1.0  0.04217000000000004  0.03252  0.77498  1.0000
  C   C123      1.0  0.04383000000000001  0.90436  0.77451  1.0000
  C   C124      1.0  0.7507500000000001  0.8533999999999998  0.47397  1.0000
  C   C125      1.0  0.8251199999999999  0.8186599999999998  0.43965999999999994  1.0000
  C   C126      1.0  0.9158700000000001  0.85649  0.41691  1.0000
  C   C127      1.0  0.9258900000000002  0.92918  0.43129000000000006  1.0000
  C   C128      1.0  0.847  0.96021  0.4655  1.0000
  C   C129      1.0  0.9986900000000001  0.82498  0.38063  1.0000
  C   C130      1.0  0.9958900000000002  0.75712  0.36101  1.0000
  C   C131      1.0  0.07979  0.72403  0.32597  1.0000
  C   C132      1.0  0.08304  0.6493699999999999  0.32232  1.0000
  C   C133      1.0  0.16109  0.6158  0.28883  1.0000
  C   C134      1.0  0.23584000000000002  0.65576  0.2578  1.0000
  C   C135      1.0  0.23416  0.7305399999999997  0.2602  1.0000
  C   C136      1.0  0.15672000000000003  0.76343  0.29518  1.0000
  C   C137      1.0  0.31027000000000005  0.7705799999999999  0.22529  1.0000
  C   C138      1.0  0.30726000000000003  0.84154  0.21616000000000002  1.0000
  C   C139      1.0  0.38191000000000014  0.8808499999999999  0.18031  1.0000
  C   C140      1.0  0.35743000000000014  0.9528299999999998  0.16789  1.0000
  C   C141      1.0  0.4260900000000001  0.9908299999999998  0.13255  1.0000
  C   C142      1.0  0.5437900000000001  0.8931099999999997  0.12184  1.0000
  C   C143      1.0  0.47902  0.8514699999999998  0.15629  1.0000
  C   C144      1.0  0.11794000000000002  0.36421  0.43666  1.0000
  C   C145      1.0  0.18761000000000003  0.32569  0.40227  1.0000
  C   C146      1.0  0.26432000000000005  0.3614999999999999  0.36815  1.0000
  C   C147      1.0  0.26554  0.43613  0.37229000000000007  1.0000
  C   C148      1.0  0.19351  0.47075  0.40803  1.0000
  C   C149      1.0  0.34019000000000005  0.32651  0.33028  1.0000
  C   C150      1.0  0.34797000000000006  0.25561  0.32159  1.0000
  C   C151      1.0  0.42562000000000005  0.22023999999999996  0.28446  1.0000
  C   C152      1.0  0.4262200000000001  0.14534  0.28387  1.0000
  C   C153      1.0  0.16096  0.6087099999999999  0.515  1.0000
  C   C154      1.0  0.23056000000000001  0.6762  0.52041  1.0000
  C   C155      1.0  0.18252  0.73555  0.48885  1.0000
  C   C156      1.0  0.24273000000000003  0.79956  0.49144  1.0000
  C   C157      1.0  0.3542500000000001  0.80471  0.5251  1.0000
  C   C158      1.0  0.40285000000000004  0.7456299999999998  0.55713  1.0000
  C   C159      1.0  0.34061  0.68194  0.55567  1.0000
  C   C160      1.0  0.41984000000000005  0.87347  0.52596  1.0000
  C   C161      1.0  0.8209600000000001  0.9703199999999998  0.64663  1.0000
  C   C162      1.0  0.9133800000000002  0.9685999999999999  0.69995  1.0000
  C   C163      1.0  0.95783  0.03252  0.72502  1.0000
  C   C164      1.0  0.9561700000000002  0.90436  0.7255  1.0000
  C   C165      1.0  0.5  0.7432899999999998  0.7500000000000001  1.0000
  C   C166      1.0  0.5  0.89131  0.7500000000000001  1.0000
  C   C167      1.0  0.5  0.25671  0.25  1.0000
  C   C168      1.0  0.5  0.10868999999999998  0.25  1.0000
  N   N1        1.0  0.7602900000000002  0.0767  0.98673  1.0000
  N   N2        1.0  0.5180900000000002  0.03808  0.60953  1.0000
  N   N3        1.0  0.11961  0.56416  0.93979  1.0000
  N   N4        1.0  0.23971000000000003  0.0767  0.51328  1.0000
  N   N5        1.0  0.48191  0.03808  0.89048  1.0000
  N   N6        1.0  0.8803900000000002  0.56416  0.56021  1.0000
  N   N7        1.0  0.23971000000000003  0.9232999999999998  0.01327  1.0000
  N   N8        1.0  0.48191  0.96192  0.39047  1.0000
  N   N9        1.0  0.8803900000000002  0.43583999999999995  0.06021000000000001  1.0000
  N   N10       1.0  0.7602900000000002  0.9232999999999998  0.48672999999999994  1.0000
  N   N11       1.0  0.5180900000000002  0.96192  0.10953000000000002  1.0000
  N   N12       1.0  0.11961  0.43583999999999995  0.43979  1.0000
  O   O1        1.0  0.18690000000000004  0.44228  0.05066  1.0000
  O   O2        1.0  0.07299  0.39315999999999995  0.97261  1.0000
  O   O3        1.0  0.36054000000000014  0.07145  0.00897  1.0000
  O   O4        1.0  0.5303200000000001  0.12832999999999997  0.04448  1.0000
  O   O5        1.0  0.8057700000000001  0.97184  0.117  1.0000
  O   O6        1.0  0.76067  0.08572  0.13345  1.0000
  O   O7        1.0  0.81311  0.44228  0.44935  1.0000
  O   O8        1.0  0.9270100000000004  0.39315999999999995  0.5274  1.0000
  O   O9        1.0  0.6394600000000001  0.07145  0.49103  1.0000
  O   O10       1.0  0.46968  0.12832999999999997  0.45552  1.0000
  O   O11       1.0  0.19423  0.97184  0.38299999999999995  1.0000
  O   O12       1.0  0.23934  0.08572  0.36654999999999993  1.0000
  O   O13       1.0  0.8131000000000003  0.55772  0.94935  1.0000
  O   O14       1.0  0.92701  0.60684  0.0274  1.0000
  O   O15       1.0  0.6394600000000001  0.92855  0.99103  1.0000
  O   O16       1.0  0.46968  0.87167  0.9555199999999999  1.0000
  O   O17       1.0  0.19423  0.028159999999999998  0.883  1.0000
  O   O18       1.0  0.23933000000000007  0.91428  0.8665500000000002  1.0000
  O   O19       1.0  0.18689000000000003  0.55772  0.55066  1.0000
  O   O20       1.0  0.07299  0.60684  0.47261  1.0000
  O   O21       1.0  0.36054000000000014  0.92855  0.50897  1.0000
  O   O22       1.0  0.5303200000000001  0.87167  0.54448  1.0000
  O   O23       1.0  0.8057700000000001  0.028159999999999998  0.61701  1.0000
  O   O24       1.0  0.76066  0.91428  0.63345  1.0000
