data_image0
_chemical_formula_structural       Cu12Mo4H80C100S12Br4N20
_chemical_formula_sum              "Cu12 Mo4 H80 C100 S12 Br4 N20"
_cell_length_a       15.01942
_cell_length_b       15.01732
_cell_length_c       17.72042
_cell_angle_alpha    93.96317999999998
_cell_angle_beta     93.95736000000001
_cell_angle_gamma    90.11216

_symmetry_space_group_name_H-M    'P 1'
_symmetry_Int_Tables_number       1

loop_
  _symmetry_equiv_pos_as_xyz
  'x,y,z'

loop_
  _atom_site_type_symbol
  _atom_site_label
  _atom_site_symmetry_multiplicity
  _atom_site_fract_x
  _atom_site_fract_y
  _atom_site_fract_z
  _atom_site_occupancy
  Cu  Cu1       1.0  0.7129499999999998  0.80959  0.85989  1.0000
  Cu  Cu2       1.0  0.59244  0.77118  0.02494  1.0000
  Cu  Cu3       1.0  0.8020799999999998  0.62567  0.98738  1.0000
  Cu  Cu4       1.0  0.19007  0.28726  0.64056  1.0000
  Cu  Cu5       1.0  0.22900999999999996  0.40731  0.47503000000000006  1.0000
  Cu  Cu6       1.0  0.3745799999999999  0.19823  0.51257  1.0000
  Cu  Cu7       1.0  0.28707999999999995  0.19029  0.14017999999999994  1.0000
  Cu  Cu8       1.0  0.40728999999999976  0.22881  0.9750599999999999  1.0000
  Cu  Cu9       1.0  0.19800999999999994  0.37441  0.01259  1.0000
  Cu  Cu10      1.0  0.8098899999999998  0.7127499999999998  0.3594799999999999  1.0000
  Cu  Cu11      1.0  0.77095  0.59271  0.5249599999999999  1.0000
  Cu  Cu12      1.0  0.6254699999999997  0.80179  0.48739000000000005  1.0000
  Mo  Mo1       1.0  0.7655899999999998  0.80344  0.005809999999999998  1.0000
  Mo  Mo2       1.0  0.19659999999999989  0.23441999999999996  0.49441  1.0000
  Mo  Mo3       1.0  0.23434999999999995  0.19656000000000004  0.9942200000000001  1.0000
  Mo  Mo4       1.0  0.8034399999999998  0.76557  0.5055899999999999  1.0000
  H   H1        1.0  0.6759399999999999  0.61856  0.81873  1.0000
  H   H2        1.0  0.5733099999999999  0.52849  0.72931  1.0000
  H   H3        1.0  0.4767699999999999  0.77475  0.64056  1.0000
  H   H4        1.0  0.58389  0.85493  0.7336  1.0000
  H   H5        1.0  0.41566  0.38702  0.5319799999999998  1.0000
  H   H6        1.0  0.52934  0.47081  0.61286  1.0000
  H   H7        1.0  0.34933  0.69627  0.6166199999999998  1.0000
  H   H8        1.0  0.24217999999999995  0.6022499999999998  0.53412  1.0000
  H   H9        1.0  0.79035  0.83597  0.70435  1.0000
  H   H10       1.0  0.9032299999999999  0.93602  0.65829  1.0000
  H   H11       1.0  0.90249  0.08999999999999997  0.8742  1.0000
  H   H12       1.0  0.7872099999999997  0.9841  0.91041  1.0000
  H   H13       1.0  0.10870999999999995  0.5658599999999998  0.44222  1.0000
  H   H14       1.0  0.0267  0.6235299999999998  0.32988  1.0000
  H   H15       1.0  0.15269  0.41729  0.19168  1.0000
  H   H16       1.0  0.22865999999999995  0.36781  0.31105  1.0000
  H   H17       1.0  0.9384899999999998  0.7282  0.09611  1.0000
  H   H18       1.0  0.03976  0.69386  0.20828  1.0000
  H   H19       1.0  0.005940000000000001  0.41452999999999995  0.13506  1.0000
  H   H20       1.0  0.9034399999999998  0.4618  0.02736999999999999  1.0000
  H   H21       1.0  0.3810999999999999  0.32411  0.68127  1.0000
  H   H22       1.0  0.47123  0.42676  0.77065  1.0000
  H   H23       1.0  0.22534000000000004  0.52343  0.85967  1.0000
  H   H24       1.0  0.14487  0.41643  0.7667099999999999  1.0000
  H   H25       1.0  0.6129399999999998  0.5846  0.9679  1.0000
  H   H26       1.0  0.5291399999999998  0.4709  0.887  1.0000
  H   H27       1.0  0.3036899999999999  0.6507  0.88333  1.0000
  H   H28       1.0  0.39753  0.75797  0.96587  1.0000
  H   H29       1.0  0.16400999999999993  0.20951  0.79557  1.0000
  H   H30       1.0  0.06388  0.09672  0.84172  1.0000
  H   H31       1.0  0.90983  0.09743  0.62575  1.0000
  H   H32       1.0  0.01593  0.21257  0.58952  1.0000
  H   H33       1.0  0.4339999999999999  0.8914599999999999  0.05782  1.0000
  H   H34       1.0  0.37635  0.9733099999999998  0.17027  1.0000
  H   H35       1.0  0.5827199999999998  0.8472  0.30823  1.0000
  H   H36       1.0  0.63217  0.77146  0.18874  1.0000
  H   H37       1.0  0.27188  0.06188999999999999  0.4038  1.0000
  H   H38       1.0  0.30619  0.96034  0.29176  1.0000
  H   H39       1.0  0.5854499999999998  0.99387  0.36511  1.0000
  H   H40       1.0  0.53824  0.09661  0.47268  1.0000
  H   H41       1.0  0.32401  0.38141999999999987  0.18129  1.0000
  H   H42       1.0  0.42666  0.47153  0.27068  1.0000
  H   H43       1.0  0.52328  0.22525  0.35946  1.0000
  H   H44       1.0  0.4161499999999999  0.14503999999999997  0.2664299999999999  1.0000
  H   H45       1.0  0.58431  0.61295  0.46802000000000005  1.0000
  H   H46       1.0  0.4706699999999999  0.52919  0.3871  1.0000
  H   H47       1.0  0.65069  0.30375  0.38336  1.0000
  H   H48       1.0  0.7577899999999997  0.39777  0.46590999999999994  1.0000
  H   H49       1.0  0.20967999999999995  0.16403  0.29567  1.0000
  H   H50       1.0  0.09682999999999996  0.06397  0.3417799999999999  1.0000
  H   H51       1.0  0.09746  0.91002  0.12575999999999998  1.0000
  H   H52       1.0  0.21269999999999994  0.01596  0.08953  1.0000
  H   H53       1.0  0.8912599999999998  0.43413  0.55779  1.0000
  H   H54       1.0  0.9732799999999998  0.37644  0.67011  1.0000
  H   H55       1.0  0.8473199999999997  0.58273  0.80833  1.0000
  H   H56       1.0  0.7713599999999998  0.6322  0.68896  1.0000
  H   H57       1.0  0.06161999999999998  0.27184  0.9038599999999998  1.0000
  H   H58       1.0  0.9602899999999998  0.30612  0.79171  1.0000
  H   H59       1.0  0.9940299999999999  0.5855  0.8649599999999997  1.0000
  H   H60       1.0  0.09657999999999996  0.53823  0.9726199999999999  1.0000
  H   H61       1.0  0.6189699999999998  0.6759  0.3187  1.0000
  H   H62       1.0  0.52878  0.5732799999999999  0.2294  1.0000
  H   H63       1.0  0.77466  0.4766  0.14034  1.0000
  H   H64       1.0  0.8550899999999998  0.58363  0.23325999999999997  1.0000
  H   H65       1.0  0.3870499999999999  0.41546999999999995  0.03205  1.0000
  H   H66       1.0  0.47077999999999987  0.52922  0.11295999999999998  1.0000
  H   H67       1.0  0.69637  0.34925  0.11661  1.0000
  H   H68       1.0  0.60241  0.24208999999999994  0.03402  1.0000
  H   H69       1.0  0.8360199999999998  0.79049  0.20442  1.0000
  H   H70       1.0  0.9361299999999998  0.9033  0.15831  1.0000
  H   H71       1.0  0.09012  0.90255  0.37427  1.0000
  H   H72       1.0  0.9840399999999998  0.78741  0.41049  1.0000
  H   H73       1.0  0.5659399999999998  0.10858000000000001  0.9421800000000001  1.0000
  H   H74       1.0  0.6235999999999999  0.02667000000000001  0.82976  1.0000
  H   H75       1.0  0.4173199999999999  0.15279  0.6917099999999998  1.0000
  H   H76       1.0  0.36780999999999997  0.22859  0.81118  1.0000
  H   H77       1.0  0.7281699999999998  0.9381599999999998  0.59624  1.0000
  H   H78       1.0  0.6938099999999998  0.03968  0.70829  1.0000
  H   H79       1.0  0.41458  0.006060000000000003  0.63492  1.0000
  H   H80       1.0  0.46184999999999987  0.90336  0.52734  1.0000
  C   C1        1.0  0.6307999999999998  0.6507799999999998  0.77834  1.0000
  C   C2        1.0  0.57261  0.60075  0.72785  1.0000
  C   C3        1.0  0.5133099999999998  0.64338  0.67727  1.0000
  C   C4        1.0  0.51771  0.73713  0.68008  1.0000
  C   C5        1.0  0.5784  0.78258  0.7315099999999998  1.0000
  C   C6        1.0  0.4026099999999999  0.45568  0.5519  1.0000
  C   C7        1.0  0.4665199999999999  0.50361  0.59844  1.0000
  C   C8        1.0  0.4494399999999999  0.59193  0.62457  1.0000
  C   C9        1.0  0.36724999999999997  0.62818  0.59928  1.0000
  C   C10       1.0  0.30648  0.57566  0.55324  1.0000
  C   C11       1.0  0.8163799999999998  0.8934  0.74024  1.0000
  C   C12       1.0  0.8793899999999998  0.94995  0.71461  1.0000
  C   C13       1.0  0.91285  0.02298  0.76243  1.0000
  C   C14       1.0  0.8800899999999998  0.03426  0.83494  1.0000
  C   C15       1.0  0.8156599999999998  0.97593  0.85538  1.0000
  C   C16       1.0  0.11794999999999996  0.5357  0.3856799999999999  1.0000
  C   C17       1.0  0.07225999999999998  0.56779  0.32227  1.0000
  C   C18       1.0  0.0821  0.52451  0.25053  1.0000
  C   C19       1.0  0.14038999999999996  0.45166  0.24609  1.0000
  C   C20       1.0  0.18384999999999996  0.42459  0.31212  1.0000
  C   C21       1.0  0.9552099999999998  0.6595399999999998  0.10737  1.0000
  C   C22       1.0  0.01096  0.64008  0.16991  1.0000
  C   C23       1.0  0.02940999999999999  0.55055  0.18253  1.0000
  C   C24       1.0  0.9925399999999998  0.4849599999999999  0.12901  1.0000
  C   C25       1.0  0.93627  0.51032  0.06881  1.0000
  C   C26       1.0  0.3489099999999999  0.3692999999999999  0.72169  1.0000
  C   C27       1.0  0.39899  0.4273999999999999  0.77217  1.0000
  C   C28       1.0  0.35652  0.48681  0.82277  1.0000
  C   C29       1.0  0.2628  0.4824  0.82011  1.0000
  C   C30       1.0  0.21721999999999994  0.42180999999999996  0.76869  1.0000
  C   C31       1.0  0.5442799999999999  0.59764  0.94802  1.0000
  C   C32       1.0  0.4963199999999999  0.53368  0.90152  1.0000
  C   C33       1.0  0.40802999999999995  0.55072  0.8753899999999998  1.0000
  C   C34       1.0  0.37175999999999987  0.63287  0.90076  1.0000
  C   C35       1.0  0.4242399999999999  0.6936999999999999  0.9467499999999999  1.0000
  C   C36       1.0  0.10654999999999998  0.18346  0.75973  1.0000
  C   C37       1.0  0.049989999999999986  0.12048  0.78536  1.0000
  C   C38       1.0  0.97694  0.08703  0.73755  1.0000
  C   C39       1.0  0.9656299999999998  0.11973  0.665  1.0000
  C   C40       1.0  0.023999999999999987  0.18412  0.64456  1.0000
  C   C41       1.0  0.46417999999999987  0.8821599999999998  0.11434999999999998  1.0000
  C   C42       1.0  0.4321199999999999  0.92777  0.1778  1.0000
  C   C43       1.0  0.4754599999999999  0.91789  0.24952  1.0000
  C   C44       1.0  0.5483099999999997  0.8596  0.25386  1.0000
  C   C45       1.0  0.57538  0.81623  0.18779  1.0000
  C   C46       1.0  0.34050999999999987  0.045029999999999994  0.3926099999999999  1.0000
  C   C47       1.0  0.35996  0.98914  0.3301299999999999  1.0000
  C   C48       1.0  0.4494599999999999  0.97058  0.31754  1.0000
  C   C49       1.0  0.5150499999999998  0.0074  0.3711  1.0000
  C   C50       1.0  0.4896999999999999  0.0638  0.43123  1.0000
  C   C51       1.0  0.36922  0.3491999999999999  0.22165  1.0000
  C   C52       1.0  0.42737999999999987  0.39925  0.27213  1.0000
  C   C53       1.0  0.4866699999999999  0.3566  0.32273  1.0000
  C   C54       1.0  0.4823199999999999  0.26285  0.31993  1.0000
  C   C55       1.0  0.42164999999999986  0.21739  0.2685  1.0000
  C   C56       1.0  0.59738  0.5443099999999998  0.44807999999999987  1.0000
  C   C57       1.0  0.53349  0.49637  0.40153  1.0000
  C   C58       1.0  0.5505499999999998  0.40806  0.37541  1.0000
  C   C59       1.0  0.63276  0.37184  0.4007  1.0000
  C   C60       1.0  0.6935099999999997  0.42437  0.4467499999999999  1.0000
  C   C61       1.0  0.18363999999999994  0.10659  0.25979  1.0000
  C   C62       1.0  0.12062999999999997  0.05006  0.28542999999999996  1.0000
  C   C63       1.0  0.08714  0.97706  0.23757999999999999  1.0000
  C   C64       1.0  0.11987  0.96575  0.16504  1.0000
  C   C65       1.0  0.18429000000000004  0.02407  0.14459  1.0000
  C   C66       1.0  0.88204  0.46429  0.6143399999999999  1.0000
  C   C67       1.0  0.9277399999999998  0.4322  0.67774  1.0000
  C   C68       1.0  0.9178799999999998  0.47548  0.74948  1.0000
  C   C69       1.0  0.85962  0.54835  0.75392  1.0000
  C   C70       1.0  0.8161599999999998  0.57542  0.68789  1.0000
  C   C71       1.0  0.04486  0.34048  0.89261  1.0000
  C   C72       1.0  0.98908  0.35992  0.83007  1.0000
  C   C73       1.0  0.9705899999999997  0.44945  0.81747  1.0000
  C   C74       1.0  0.0074799999999999945  0.51507  0.8709699999999999  1.0000
  C   C75       1.0  0.06375999999999998  0.48971  0.9311699999999999  1.0000
  C   C76       1.0  0.6510999999999998  0.6307  0.27829  1.0000
  C   C77       1.0  0.6009999999999998  0.57257  0.22784  1.0000
  C   C78       1.0  0.64346  0.5132  0.17722  1.0000
  C   C79       1.0  0.7371699999999998  0.51761  0.17988  1.0000
  C   C80       1.0  0.7827499999999998  0.57823  0.23128  1.0000
  C   C81       1.0  0.4557199999999999  0.4024599999999999  0.05195  1.0000
  C   C82       1.0  0.5036299999999998  0.4664199999999999  0.09847999999999997  1.0000
  C   C83       1.0  0.59196  0.44929999999999987  0.12459  1.0000
  C   C84       1.0  0.62826  0.36714  0.09923  1.0000
  C   C85       1.0  0.5757599999999998  0.30636  0.0532  1.0000
  C   C86       1.0  0.89348  0.81651  0.24026999999999998  1.0000
  C   C87       1.0  0.9500299999999998  0.8795199999999997  0.21465999999999993  1.0000
  C   C88       1.0  0.023049999999999994  0.91299  0.26247  1.0000
  C   C89       1.0  0.03436  0.88024  0.335  1.0000
  C   C90       1.0  0.9759899999999998  0.81583  0.35543  1.0000
  C   C91       1.0  0.53577  0.11787  0.88565  1.0000
  C   C92       1.0  0.56785  0.07223  0.82222  1.0000
  C   C93       1.0  0.52453  0.08211  0.75049  1.0000
  C   C94       1.0  0.4516999999999999  0.14042999999999994  0.74611  1.0000
  C   C95       1.0  0.42461  0.18381  0.81217  1.0000
  C   C96       1.0  0.65954  0.9550099999999999  0.6074099999999999  1.0000
  C   C97       1.0  0.64006  0.010889999999999983  0.6698999999999998  1.0000
  C   C98       1.0  0.5505499999999998  0.029410000000000002  0.68249  1.0000
  C   C99       1.0  0.48499  0.99257  0.62893  1.0000
  C   C100      1.0  0.51036  0.9362  0.56879  1.0000
  S   S1        1.0  0.8386399999999998  0.73725  0.91176  1.0000
  S   S2        1.0  0.6467199999999997  0.88387  0.95867  1.0000
  S   S3        1.0  0.71826  0.69965  0.07767  1.0000
  S   S4        1.0  0.2630099999999999  0.16181  0.58844  1.0000
  S   S5        1.0  0.11621999999999996  0.35348999999999997  0.5412399999999999  1.0000
  S   S6        1.0  0.3002899999999999  0.28166  0.42224  1.0000
  S   S7        1.0  0.16142999999999993  0.26275  0.08824  1.0000
  S   S8        1.0  0.35333  0.11614  0.04117  1.0000
  S   S9        1.0  0.2816899999999999  0.30033  0.9222599999999999  1.0000
  S   S10       1.0  0.7370699999999998  0.8382  0.41154  1.0000
  S   S11       1.0  0.88374  0.64644  0.45876999999999996  1.0000
  S   S12       1.0  0.6997499999999999  0.71838  0.57776  1.0000
  Br  Br1       1.0  0.7534899999999995  0.48224999999999996  0.92707  1.0000
  Br  Br2       1.0  0.5180599999999999  0.24672  0.5727299999999997  1.0000
  Br  Br3       1.0  0.24651999999999993  0.51773  0.07286999999999999  1.0000
  Br  Br4       1.0  0.48209  0.7533299999999998  0.42733  1.0000
  N   N1        1.0  0.6343899999999998  0.74109  0.78089  1.0000
  N   N2        1.0  0.3223199999999999  0.48965  0.53019  1.0000
  N   N3        1.0  0.7832299999999998  0.90612  0.8091099999999999  1.0000
  N   N4        1.0  0.17295999999999995  0.46474  0.38151  1.0000
  N   N5        1.0  0.91621  0.59629  0.05819  1.0000
  N   N6        1.0  0.25862  0.36576  0.71926  1.0000
  N   N7        1.0  0.5102399999999998  0.6779  0.96979  1.0000
  N   N8        1.0  0.09378999999999997  0.21656  0.69084  1.0000
  N   N9        1.0  0.5351599999999997  0.8271799999999999  0.11843000000000001  1.0000
  N   N10       1.0  0.4037799999999999  0.08401  0.4418  1.0000
  N   N11       1.0  0.3656  0.25889  0.21915  1.0000
  N   N12       1.0  0.6776399999999999  0.51033  0.46984999999999993  1.0000
  N   N13       1.0  0.21670999999999996  0.09387999999999999  0.19086999999999996  1.0000
  N   N14       1.0  0.8270199999999998  0.53524  0.6185  1.0000
  N   N15       1.0  0.08382  0.4037499999999999  0.9418  1.0000
  N   N16       1.0  0.7413799999999999  0.63426  0.28072  1.0000
  N   N17       1.0  0.4897499999999999  0.32218999999999987  0.030189999999999998  1.0000
  N   N18       1.0  0.9061899999999998  0.78342  0.30916  1.0000
  N   N19       1.0  0.4647799999999999  0.17283999999999997  0.88155  1.0000
  N   N20       1.0  0.5963  0.91601  0.55823  1.0000
