data_image0
_chemical_formula_structural       Mn8H124C88O40
_chemical_formula_sum              "Mn8 H124 C88 O40"
_cell_length_a       13.14554
_cell_length_b       14.1865
_cell_length_c       18.6544
_cell_angle_alpha    90.00045
_cell_angle_beta     90.00045
_cell_angle_gamma    90.00090000000002

_symmetry_space_group_name_H-M    'P 1'
_symmetry_Int_Tables_number       1

loop_
  _symmetry_equiv_pos_as_xyz
  'x,y,z'

loop_
  _atom_site_type_symbol
  _atom_site_label
  _atom_site_symmetry_multiplicity
  _atom_site_fract_x
  _atom_site_fract_y
  _atom_site_fract_z
  _atom_site_occupancy
  Mn  Mn1       1.0  0.24321000000000007  0.48919  0.42935  1.0000
  Mn  Mn2       1.0  0.28825  0.51396  0.59476  1.0000
  Mn  Mn3       1.0  0.25681  0.51074  0.9310700000000001  1.0000
  Mn  Mn4       1.0  0.21122000000000005  0.48595  0.09582  1.0000
  Mn  Mn5       1.0  0.7573500000000001  0.9888300000000001  0.07271  1.0000
  Mn  Mn6       1.0  0.7125300000000001  0.01297  0.91033  1.0000
  Mn  Mn7       1.0  0.7389300000000001  0.01392  0.58285  1.0000
  Mn  Mn8       1.0  0.78142  0.9892  0.42118  1.0000
  H   H1        1.0  0.7251800000000002  0.27295  0.34192  1.0000
  H   H2        1.0  0.82329  0.30645  0.40113  1.0000
  H   H3        1.0  0.72614  0.38791  0.38043  1.0000
  H   H4        1.0  0.7051500000000003  0.29995  0.57143  1.0000
  H   H5        1.0  0.78856  0.36551  0.51639  1.0000
  H   H6        1.0  0.6738500000000002  0.49159  0.51257  1.0000
  H   H7        1.0  0.59823  0.43033  0.57552  1.0000
  H   H8        1.0  0.57797  0.44288  0.41385  1.0000
  H   H9        1.0  0.53356  0.19772  0.36386  1.0000
  H   H10       1.0  0.56488  0.31175  0.33129  1.0000
  H   H11       1.0  0.44462  0.29280000000000006  0.37056  1.0000
  H   H12       1.0  0.51252  0.16794  0.4955  1.0000
  H   H13       1.0  0.42655  0.26458  0.50239  1.0000
  H   H14       1.0  0.53394  0.25823  0.55957  1.0000
  H   H15       1.0  0.92513  0.45423  0.5748  1.0000
  H   H16       1.0  0.84038  0.54638  0.59954  1.0000
  H   H17       1.0  0.9606300000000002  0.53675  0.64235  1.0000
  H   H18       1.0  0.9481000000000002  0.59689  0.41633  1.0000
  H   H19       1.0  0.86941  0.51366  0.45814  1.0000
  H   H20       1.0  0.7426000000000001  0.62918  0.4778  1.0000
  H   H21       1.0  0.8128300000000003  0.7017  0.41968  1.0000
  H   H22       1.0  0.7975100000000002  0.7040400000000001  0.58063  1.0000
  H   H23       1.0  0.9683000000000003  0.79614  0.64236  1.0000
  H   H24       1.0  0.053760000000000016  0.69838  0.64706  1.0000
  H   H25       1.0  0.9236500000000002  0.68371  0.66832  1.0000
  H   H26       1.0  0.021010000000000004  0.83163  0.52043  1.0000
  H   H27       1.0  0.00907  0.74925  0.44934  1.0000
  H   H28       1.0  0.10562  0.73361  0.51521  1.0000
  H   H29       1.0  0.35935  0.53138  0.19026  1.0000
  H   H30       1.0  0.3948100000000001  0.47438  0.27274  1.0000
  H   H31       1.0  0.34391  0.59007  0.27495  1.0000
  H   H32       1.0  0.7768600000000001  0.72991  0.84542  1.0000
  H   H33       1.0  0.67623  0.69523  0.90283  1.0000
  H   H34       1.0  0.7748600000000001  0.6136700000000002  0.88268  1.0000
  H   H35       1.0  0.7942500000000002  0.6960100000000001  0.0744  1.0000
  H   H36       1.0  0.71252  0.6327700000000002  0.01769  1.0000
  H   H37       1.0  0.82697  0.50685  0.01288  1.0000
  H   H38       1.0  0.90317  0.56715  0.07529  1.0000
  H   H39       1.0  0.92167  0.55774  0.91385  1.0000
  H   H40       1.0  0.9653500000000003  0.80224  0.86453  1.0000
  H   H41       1.0  0.9340700000000002  0.68816  0.83199  1.0000
  H   H42       1.0  0.054350000000000016  0.7074  0.8712000000000001  1.0000
  H   H43       1.0  0.98792  0.83136  0.9952700000000001  1.0000
  H   H44       1.0  0.07460000000000001  0.73557  0.00273  1.0000
  H   H45       1.0  0.9673100000000001  0.74224  0.060099999999999994  1.0000
  H   H46       1.0  0.57472  0.54582  0.07447  1.0000
  H   H47       1.0  0.65959  0.4541  0.09945  1.0000
  H   H48       1.0  0.53906  0.46334000000000003  0.14206  1.0000
  H   H49       1.0  0.55363  0.40077  0.91642  1.0000
  H   H50       1.0  0.6325000000000002  0.48432  0.95839  1.0000
  H   H51       1.0  0.75936  0.36965  0.97829  1.0000
  H   H52       1.0  0.6870400000000002  0.29423  0.92325  1.0000
  H   H53       1.0  0.70203  0.2994800000000001  0.08383  1.0000
  H   H54       1.0  0.5307400000000001  0.20404  0.14304  1.0000
  H   H55       1.0  0.44537  0.3018  0.14776  1.0000
  H   H56       1.0  0.5753800000000001  0.3161  0.16926  1.0000
  H   H57       1.0  0.4793  0.16786000000000004  0.02024  1.0000
  H   H58       1.0  0.49252  0.25128  0.94981  1.0000
  H   H59       1.0  0.39628  0.26684  0.01558  1.0000
  H   H60       1.0  0.1399  0.46844  0.69066  1.0000
  H   H61       1.0  0.10448000000000002  0.52525  0.77288  1.0000
  H   H62       1.0  0.15509000000000006  0.40963  0.77512  1.0000
  H   H63       1.0  0.27652  0.77052  0.15483  1.0000
  H   H64       1.0  0.17606  0.80494  0.09735  1.0000
  H   H65       1.0  0.27477000000000007  0.88603  0.11718999999999999  1.0000
  H   H66       1.0  0.29458000000000006  0.80362  0.92574  1.0000
  H   H67       1.0  0.21229000000000006  0.8671500000000001  0.9822999999999998  1.0000
  H   H68       1.0  0.32702000000000003  0.99324  0.98721  1.0000
  H   H69       1.0  0.40376  0.93242  0.9249500000000002  1.0000
  H   H70       1.0  0.42188  0.94189  0.08612  1.0000
  H   H71       1.0  0.46548000000000006  0.69755  0.13581  1.0000
  H   H72       1.0  0.4345000000000001  0.8115400000000002  0.16835  1.0000
  H   H73       1.0  0.55418  0.7923800000000001  0.12884  1.0000
  H   H74       1.0  0.4878  0.66847  0.00472  1.0000
  H   H75       1.0  0.5744400000000001  0.76462  0.9973499999999998  1.0000
  H   H76       1.0  0.46669000000000005  0.75816  0.94007  1.0000
  H   H77       1.0  0.07475  0.95413  0.92555  1.0000
  H   H78       1.0  0.15981  0.04601000000000001  0.9006100000000001  1.0000
  H   H79       1.0  0.03863000000000001  0.03701  0.8582099999999999  1.0000
  H   H80       1.0  0.054100000000000016  0.09887000000000001  0.08396  1.0000
  H   H81       1.0  0.13267000000000004  0.01601  0.04178  1.0000
  H   H82       1.0  0.25928  0.13047  0.0217  1.0000
  H   H83       1.0  0.18752  0.20532  0.07725  1.0000
  H   H84       1.0  0.20244000000000006  0.20084  0.9162499999999999  1.0000
  H   H85       1.0  0.03089  0.29603  0.8572  1.0000
  H   H86       1.0  0.94553  0.19795  0.85262  1.0000
  H   H87       1.0  0.07579  0.18351  0.83111  1.0000
  H   H88       1.0  0.97916  0.33213  0.9797100000000001  1.0000
  H   H89       1.0  0.9918400000000003  0.24907  0.05041  1.0000
  H   H90       1.0  0.8962600000000002  0.23321  0.98443  1.0000
  H   H91       1.0  0.63449  0.03378  0.30968  1.0000
  H   H92       1.0  0.60523  0.97492  0.22669  1.0000
  H   H93       1.0  0.6555500000000002  0.08976  0.22463  1.0000
  H   H94       1.0  0.22326  0.22899  0.65513  1.0000
  H   H95       1.0  0.32355  0.19464  0.59766  1.0000
  H   H96       1.0  0.22487  0.11345  0.6177  1.0000
  H   H97       1.0  0.20750000000000005  0.19793  0.42605  1.0000
  H   H98       1.0  0.28939  0.13412  0.48218  1.0000
  H   H99       1.0  0.17444000000000004  0.00781  0.48625999999999997  1.0000
  H   H100      1.0  0.10145000000000003  0.06722  0.42134  1.0000
  H   H101      1.0  0.07411  0.0557  0.58201  1.0000
  H   H102      1.0  0.03459  0.30109  0.63463  1.0000
  H   H103      1.0  0.06591  0.18737  0.66744  1.0000
  H   H104      1.0  0.9453500000000002  0.20635  0.62836  1.0000
  H   H105      1.0  0.01195  0.33258  0.5045  1.0000
  H   H106      1.0  0.92567  0.23597000000000004  0.49744  1.0000
  H   H107      1.0  0.03232  0.24292  0.43944999999999995  1.0000
  H   H108      1.0  0.42532  0.04443  0.42508  1.0000
  H   H109      1.0  0.33959000000000006  0.95438  0.39952  1.0000
  H   H110      1.0  0.4586500000000001  0.96501  0.35509  1.0000
  H   H111      1.0  0.4503  0.90116  0.58126  1.0000
  H   H112      1.0  0.37079000000000006  0.98475  0.53957  1.0000
  H   H113      1.0  0.24308  0.8707  0.52138  1.0000
  H   H114      1.0  0.31522  0.7958900000000001  0.57749  1.0000
  H   H115      1.0  0.29694  0.79932  0.41587  1.0000
  H   H116      1.0  0.4690800000000001  0.7026  0.35581  1.0000
  H   H117      1.0  0.55442  0.80084  0.35176  1.0000
  H   H118      1.0  0.42433  0.81544  0.33039  1.0000
  H   H119      1.0  0.52091  0.6677300000000002  0.4798899999999999  1.0000
  H   H120      1.0  0.5072  0.75157  0.54991  1.0000
  H   H121      1.0  0.60399  0.76676  0.4846  1.0000
  H   H122      1.0  0.8608  0.96787  0.81  1.0000
  H   H123      1.0  0.8914000000000001  0.026780000000000005  0.72747  1.0000
  H   H124      1.0  0.8401600000000002  0.91151  0.72517  1.0000
  C   C1        1.0  0.7091100000000001  0.17458  0.47127  1.0000
  C   C2        1.0  0.44854  0.44004  0.48143  1.0000
  C   C3        1.0  0.74178  0.31321  0.39061  1.0000
  C   C4        1.0  0.68247  0.27946  0.45647999999999994  1.0000
  C   C5        1.0  0.7100900000000001  0.34125  0.52196  1.0000
  C   C6        1.0  0.63512  0.4247000000000001  0.52299  1.0000
  C   C7        1.0  0.55662  0.40585  0.46346  1.0000
  C   C8        1.0  0.56513  0.29785  0.4477300000000001  1.0000
  C   C9        1.0  0.5249600000000001  0.27336  0.3738  1.0000
  C   C10       1.0  0.5066100000000001  0.24391  0.50498  1.0000
  C   C11       1.0  0.07690000000000002  0.56073  0.52236  1.0000
  C   C12       1.0  0.8168800000000003  0.82758  0.5237  1.0000
  C   C13       1.0  0.92062  0.52846  0.59113  1.0000
  C   C14       1.0  0.96494  0.59211  0.53234  1.0000
  C   C15       1.0  0.9008800000000002  0.58464  0.46356  1.0000
  C   C16       1.0  0.81747  0.66026  0.46897999999999995  1.0000
  C   C17       1.0  0.84329  0.72313  0.53373  1.0000
  C   C18       1.0  0.9559  0.6997  0.55329  1.0000
  C   C19       1.0  0.97662  0.72033  0.63233  1.0000
  C   C20       1.0  0.02732  0.75693  0.50639  1.0000
  C   C21       1.0  0.2358  0.48388  0.25763  1.0000
  C   C22       1.0  0.34048  0.5223  0.24702000000000002  1.0000
  C   C23       1.0  0.79308  0.82669  0.9724699999999998  1.0000
  C   C24       1.0  0.05167000000000001  0.56025  0.9815300000000001  1.0000
  C   C25       1.0  0.7580200000000001  0.68826  0.89302  1.0000
  C   C26       1.0  0.8175600000000001  0.72109  0.9592300000000001  1.0000
  C   C27       1.0  0.7905  0.65773  0.0236  1.0000
  C   C28       1.0  0.86522  0.5740000000000001  0.02331  1.0000
  C   C29       1.0  0.94341  0.59379  0.96377  1.0000
  C   C30       1.0  0.93457  0.7018800000000001  0.94892  1.0000
  C   C31       1.0  0.97385  0.72657  0.8746400000000001  1.0000
  C   C32       1.0  0.99437  0.75566  0.0054  1.0000
  C   C33       1.0  0.4234  0.43921000000000004  0.02284  1.0000
  C   C34       1.0  0.68288  0.17237  0.02526  1.0000
  C   C35       1.0  0.57935  0.47171  0.09105  1.0000
  C   C36       1.0  0.53515  0.40725  0.03289  1.0000
  C   C37       1.0  0.59959  0.41399  0.96425  1.0000
  C   C38       1.0  0.6837800000000003  0.33898  0.97087  1.0000
  C   C39       1.0  0.65846  0.27716  0.03669  1.0000
  C   C40       1.0  0.54505  0.29987  0.05450000000000001  1.0000
  C   C41       1.0  0.5225  0.27976  0.1332  1.0000
  C   C42       1.0  0.4743600000000001  0.24285  0.00686  1.0000
  C   C43       1.0  0.26425  0.51567  0.75752  1.0000
  C   C44       1.0  0.15924  0.4775  0.74728  1.0000
  C   C45       1.0  0.29232  0.67343  0.02871  1.0000
  C   C46       1.0  0.55204  0.93902  0.01931  1.0000
  C   C47       1.0  0.25802  0.8116100000000002  0.10689  1.0000
  C   C48       1.0  0.31801  0.7791  0.04086  1.0000
  C   C49       1.0  0.29032  0.84214  0.9764200000000001  1.0000
  C   C50       1.0  0.36493000000000003  0.92595  0.97657  1.0000
  C   C51       1.0  0.44341  0.9063600000000002  0.03604  1.0000
  C   C52       1.0  0.43508000000000013  0.79835  0.05106  1.0000
  C   C53       1.0  0.47381  0.77323  0.12545  1.0000
  C   C54       1.0  0.49436000000000013  0.7442  0.99455  1.0000
  C   C55       1.0  0.92313  0.06124  0.97777  1.0000
  C   C56       1.0  0.18299  0.3276  0.97609  1.0000
  C   C57       1.0  0.07947000000000001  0.02824  0.9089900000000001  1.0000
  C   C58       1.0  0.03507  0.0925  0.96727  1.0000
  C   C59       1.0  0.09967  0.08623  0.03585  1.0000
  C   C60       1.0  0.1838  0.1613  0.02917  1.0000
  C   C61       1.0  0.15823000000000004  0.22293000000000002  0.96332  1.0000
  C   C62       1.0  0.0448  0.19988  0.9455899999999999  1.0000
  C   C63       1.0  0.022680000000000006  0.22018000000000001  0.8669  1.0000
  C   C64       1.0  0.97427  0.25716  0.9932299999999998  1.0000
  C   C65       1.0  0.76355  0.98495  0.24802  1.0000
  C   C66       1.0  0.6576400000000002  0.02316  0.25396  1.0000
  C   C67       1.0  0.20799  0.32624  0.52806  1.0000
  C   C68       1.0  0.94727  0.05921  0.51702  1.0000
  C   C69       1.0  0.24151  0.18791  0.60703  1.0000
  C   C70       1.0  0.1823  0.22035  0.54045  1.0000
  C   C71       1.0  0.21091  0.15781  0.47591000000000006  1.0000
  C   C72       1.0  0.1361  0.07435  0.47435  1.0000
  C   C73       1.0  0.05587  0.09363  0.53233  1.0000
  C   C74       1.0  0.06488  0.20147  0.54977  1.0000
  C   C75       1.0  0.025910000000000002  0.22529  0.62456  1.0000
  C   C76       1.0  0.00553  0.25688  0.4941  1.0000
  C   C77       1.0  0.5764500000000001  0.93999  0.4766599999999999  1.0000
  C   C78       1.0  0.31695000000000007  0.67263  0.47487  1.0000
  C   C79       1.0  0.4202300000000001  0.97104  0.40702  1.0000
  C   C80       1.0  0.46548000000000006  0.90633  0.46455  1.0000
  C   C81       1.0  0.4023800000000001  0.91371  0.53415  1.0000
  C   C82       1.0  0.31801  0.83872  0.52865  1.0000
  C   C83       1.0  0.34218  0.77715  0.4624599999999999  1.0000
  C   C84       1.0  0.45559  0.79919  0.4441899999999999  1.0000
  C   C85       1.0  0.4774200000000001  0.7782700000000001  0.36579  1.0000
  C   C86       1.0  0.52577  0.74285  0.49287000000000003  1.0000
  C   C87       1.0  0.73278  0.01799  0.74791  1.0000
  C   C88       1.0  0.8378  0.97879  0.75412  1.0000
  O   O1        1.0  0.7304100000000002  0.12307  0.4165  1.0000
  O   O2        1.0  0.71122  0.14531  0.53568  1.0000
  O   O3        1.0  0.42284  0.45612  0.54553  1.0000
  O   O4        1.0  0.38961  0.45302  0.42635  1.0000
  O   O5        1.0  0.10511000000000002  0.53309  0.45943  1.0000
  O   O6        1.0  0.1336  0.56021  0.57737  1.0000
  O   O7        1.0  0.7866700000000002  0.8725  0.57885  1.0000
  O   O8        1.0  0.82245  0.86305  0.46045  1.0000
  O   O9        1.0  0.20466  0.46721  0.32116  1.0000
  O   O10       1.0  0.18043  0.46614  0.20274  1.0000
  O   O11       1.0  0.7772500000000002  0.87745  0.9173599999999998  1.0000
  O   O12       1.0  0.7877700000000001  0.85694  0.03753  1.0000
  O   O13       1.0  0.07757  0.54561  0.04584  1.0000
  O   O14       1.0  0.11065  0.54706  0.92658  1.0000
  O   O15       1.0  0.39554  0.46698000000000006  0.95986  1.0000
  O   O16       1.0  0.36599  0.43894000000000005  0.07744  1.0000
  O   O17       1.0  0.71715  0.12562  0.07967  1.0000
  O   O18       1.0  0.6720600000000002  0.13858  0.9626700000000001  1.0000
  O   O19       1.0  0.29499  0.53042  0.82147  1.0000
  O   O20       1.0  0.31884  0.53471  0.70224  1.0000
  O   O21       1.0  0.27652  0.62255  0.08351  1.0000
  O   O22       1.0  0.28896  0.64227  0.9636399999999999  1.0000
  O   O23       1.0  0.57668  0.95411  0.95466  1.0000
  O   O24       1.0  0.61046  0.95308  0.07434  1.0000
  O   O25       1.0  0.8952300000000002  0.03264  0.04036  1.0000
  O   O26       1.0  0.8666100000000001  0.06162  0.9225400000000001  1.0000
  O   O27       1.0  0.21665000000000006  0.37496  0.92162  1.0000
  O   O28       1.0  0.17168  0.36204  0.03826  1.0000
  O   O29       1.0  0.79964  0.9669  0.18539  1.0000
  O   O30       1.0  0.81315  0.9671700000000001  0.3056  1.0000
  O   O31       1.0  0.22561000000000006  0.37685  0.58269  1.0000
  O   O32       1.0  0.21138  0.35738  0.4630099999999999  1.0000
  O   O33       1.0  0.91927  0.04204999999999999  0.45250000000000007  1.0000
  O   O34       1.0  0.8919  0.04665  0.57256  1.0000
  O   O35       1.0  0.60228  0.96728  0.53892  1.0000
  O   O36       1.0  0.63505  0.94252  0.42141  1.0000
  O   O37       1.0  0.28337000000000007  0.6256  0.42031  1.0000
  O   O38       1.0  0.32638000000000006  0.6377700000000001  0.53704  1.0000
  O   O39       1.0  0.6982500000000001  0.03705  0.6855  1.0000
  O   O40       1.0  0.6820800000000002  0.03334  0.80515  1.0000
