data_image0
_chemical_formula_structural       Zn8H96C132O48
_chemical_formula_sum              "Zn8 H96 C132 O48"
_cell_length_a       12.66364
_cell_length_b       17.350020000000004
_cell_length_c       28.467009999999995
_cell_angle_alpha    81.53899
_cell_angle_beta     77.21587
_cell_angle_gamma    68.64612

_space_group_name_H-M_alt    "P 1"
_space_group_IT_number       1

loop_
  _space_group_symop_operation_xyz
  'x, y, z'

loop_
  _atom_site_type_symbol
  _atom_site_label
  _atom_site_symmetry_multiplicity
  _atom_site_fract_x
  _atom_site_fract_y
  _atom_site_fract_z
  _atom_site_occupancy
  Zn  Zn1       1.0  0.72533  0.8633099999999999  0.8299700000000002  1.0000
  Zn  Zn2       1.0  0.7666600000000002  0.41795  0.26882000000000006  1.0000
  Zn  Zn3       1.0  0.5812900000000001  0.36304999999999993  0.3298500000000001  1.0000
  Zn  Zn4       1.0  0.5481999999999999  0.91734  0.7688200000000002  1.0000
  Zn  Zn5       1.0  0.41870999999999997  0.63695  0.6701500000000001  1.0000
  Zn  Zn6       1.0  0.4518100000000001  0.08266  0.23118  1.0000
  Zn  Zn7       1.0  0.2746700000000001  0.13669  0.17003000000000001  1.0000
  Zn  Zn8       1.0  0.23334999999999997  0.58206  0.7311800000000002  1.0000
  H   H1        1.0  0.887  0.04002  0.76222  1.0000
  H   H2        1.0  0.95176  0.15532  0.71974  1.0000
  H   H3        1.0  0.63765  0.26029  0.66205  1.0000
  H   H4        1.0  0.5744900000000001  0.14278  0.70435  1.0000
  H   H5        1.0  0.9575300000000003  0.29326  0.6886400000000003  1.0000
  H   H6        1.0  0.002619999999999987  0.22086000000000003  0.64294  1.0000
  H   H7        1.0  0.6281999999999999  0.71026  0.68436  1.0000
  H   H8        1.0  0.7126000000000001  0.57427  0.6498500000000001  1.0000
  H   H9        1.0  0.9812900000000001  0.50079  0.73456  1.0000
  H   H10       1.0  0.8934800000000002  0.63914  0.77035  1.0000
  H   H11       1.0  0.36702999999999997  0.21964999999999998  0.4261500000000001  1.0000
  H   H12       1.0  0.22995000000000004  0.19494999999999998  0.50023  1.0000
  H   H13       1.0  0.22099000000000002  0.41632  0.55553  1.0000
  H   H14       1.0  0.3506199999999998  0.4418  0.4811700000000001  1.0000
  H   H15       1.0  0.71393  0.33841  0.44074  1.0000
  H   H16       1.0  0.7740100000000002  0.32904999999999995  0.5190100000000001  1.0000
  H   H17       1.0  0.02223999999999998  0.44597999999999993  0.4506  1.0000
  H   H18       1.0  0.9619200000000001  0.4535799999999999  0.37098  1.0000
  H   H19       1.0  0.8110400000000001  0.35241  0.58047  1.0000
  H   H20       1.0  0.94575  0.27225  0.5627400000000001  1.0000
  H   H21       1.0  0.10689  0.34685  0.63422  1.0000
  H   H22       1.0  0.06640999999999997  0.41212  0.58218  1.0000
  H   H23       1.0  0.7773000000000002  0.4334499999999999  0.6472800000000002  1.0000
  H   H24       1.0  0.8612999999999998  0.48339  0.6037500000000002  1.0000
  H   H25       1.0  0.31066  0.54016  0.26218  1.0000
  H   H26       1.0  0.17358000000000012  0.65557  0.2197  1.0000
  H   H27       1.0  0.44089999999999996  0.76015  0.16213  1.0000
  H   H28       1.0  0.5787600000000003  0.64252  0.20447  1.0000
  H   H29       1.0  0.06120999999999996  0.79362  0.18859  1.0000
  H   H30       1.0  0.13418000000000005  0.72115  0.14296  1.0000
  H   H31       1.0  0.97622  0.2111  0.18463000000000004  1.0000
  H   H32       1.0  0.06330000000000004  0.07506  0.15011  1.0000
  H   H33       1.0  0.7844200000000002  0.00019000000000000096  0.23431  1.0000
  H   H34       1.0  0.69715  0.13848000000000002  0.27011  1.0000
  H   H35       1.0  0.9871400000000001  0.7197699999999999  0.9260900000000002  1.0000
  H   H36       1.0  0.07463000000000003  0.6948  0.00032  1.0000
  H   H37       1.0  0.8070600000000001  0.91595  0.05573  1.0000
  H   H38       1.0  0.7265400000000001  0.94152  0.9811400000000002  1.0000
  H   H39       1.0  0.50654  0.83813  0.9410600000000002  1.0000
  H   H40       1.0  0.37760000000000027  0.8290299999999998  0.0193  1.0000
  H   H41       1.0  0.08145999999999998  0.94605  0.9504800000000001  1.0000
  H   H42       1.0  0.21387999999999988  0.95346  0.87088  1.0000
  H   H43       1.0  0.25649999999999995  0.85253  0.08051000000000003  1.0000
  H   H44       1.0  0.21928000000000009  0.77252  0.06264  1.0000
  H   H45       1.0  0.9126900000000001  0.84705  0.13422  1.0000
  H   H46       1.0  0.9397300000000001  0.91231  0.08217000000000003  1.0000
  H   H47       1.0  0.1436600000000001  0.93372  0.14691  1.0000
  H   H48       1.0  0.052020000000000066  0.9837999999999999  0.1038  1.0000
  H   H49       1.0  0.6893400000000003  0.45984  0.73782  1.0000
  H   H50       1.0  0.82642  0.34442999999999996  0.7803000000000002  1.0000
  H   H51       1.0  0.55911  0.23986  0.8378600000000003  1.0000
  H   H52       1.0  0.4212400000000001  0.35748  0.79553  1.0000
  H   H53       1.0  0.9387900000000006  0.20638999999999993  0.8114100000000002  1.0000
  H   H54       1.0  0.86583  0.27886  0.85704  1.0000
  H   H55       1.0  0.02379  0.7889  0.81537  1.0000
  H   H56       1.0  0.9367099999999999  0.9249400000000001  0.84989  1.0000
  H   H57       1.0  0.21558000000000005  0.99982  0.76569  1.0000
  H   H58       1.0  0.3028599999999999  0.86152  0.7298900000000003  1.0000
  H   H59       1.0  0.012860000000000005  0.28023  0.07391  1.0000
  H   H60       1.0  0.9253700000000001  0.3052099999999999  0.9996800000000001  1.0000
  H   H61       1.0  0.19294000000000003  0.08404999999999999  0.94427  1.0000
  H   H62       1.0  0.27346  0.05848  0.018860000000000005  1.0000
  H   H63       1.0  0.49346  0.16188  0.05894000000000001  1.0000
  H   H64       1.0  0.6224000000000001  0.1709799999999999  0.9807000000000002  1.0000
  H   H65       1.0  0.9185400000000001  0.05395  0.049520000000000015  1.0000
  H   H66       1.0  0.78612  0.04655  0.12912  1.0000
  H   H67       1.0  0.7435100000000004  0.14746999999999996  0.91949  1.0000
  H   H68       1.0  0.7807200000000002  0.22747999999999993  0.9373600000000002  1.0000
  H   H69       1.0  0.08730999999999989  0.15294999999999997  0.8657700000000003  1.0000
  H   H70       1.0  0.06026999999999992  0.08768999999999999  0.9178300000000003  1.0000
  H   H71       1.0  0.8563399999999999  0.06629  0.85309  1.0000
  H   H72       1.0  0.9479800000000003  0.0162  0.8962  1.0000
  H   H73       1.0  0.11300999999999999  0.95998  0.23778  1.0000
  H   H74       1.0  0.04824999999999998  0.84468  0.28026  1.0000
  H   H75       1.0  0.36235  0.73971  0.3379500000000001  1.0000
  H   H76       1.0  0.4255100000000001  0.85722  0.29565  1.0000
  H   H77       1.0  0.04247000000000002  0.70674  0.31136  1.0000
  H   H78       1.0  0.9973799999999998  0.77914  0.3570600000000001  1.0000
  H   H79       1.0  0.37181000000000025  0.28974  0.31564000000000003  1.0000
  H   H80       1.0  0.2874  0.42573  0.3501500000000001  1.0000
  H   H81       1.0  0.018710000000000015  0.49920999999999993  0.26544  1.0000
  H   H82       1.0  0.10652000000000006  0.36085999999999996  0.22965000000000005  1.0000
  H   H83       1.0  0.63297  0.78035  0.57385  1.0000
  H   H84       1.0  0.7700500000000003  0.80505  0.4997700000000001  1.0000
  H   H85       1.0  0.7790099999999999  0.58368  0.44447  1.0000
  H   H86       1.0  0.64938  0.5582  0.51882  1.0000
  H   H87       1.0  0.2860700000000001  0.66159  0.5592600000000001  1.0000
  H   H88       1.0  0.22599000000000002  0.67095  0.48099000000000003  1.0000
  H   H89       1.0  0.97777  0.55403  0.5494000000000001  1.0000
  H   H90       1.0  0.03808000000000003  0.54643  0.62902  1.0000
  H   H91       1.0  0.18896000000000002  0.6475899999999998  0.41953  1.0000
  H   H92       1.0  0.054249999999999965  0.72775  0.43725  1.0000
  H   H93       1.0  0.89311  0.65315  0.3657800000000001  1.0000
  H   H94       1.0  0.9335900000000003  0.58788  0.41782000000000014  1.0000
  H   H95       1.0  0.22269999999999995  0.56655  0.35272000000000003  1.0000
  H   H96       1.0  0.13870000000000002  0.51661  0.39625000000000005  1.0000
  C   C1        1.0  0.69015  0.014039999999999987  0.7599500000000001  1.0000
  C   C2        1.0  0.72653  0.08443  0.73632  1.0000
  C   C3        1.0  0.8325  0.08873999999999999  0.74052  1.0000
  C   C4        1.0  0.8690100000000001  0.15325  0.71641  1.0000
  C   C5        1.0  0.7978200000000001  0.21452999999999997  0.6880100000000002  1.0000
  C   C6        1.0  0.6906  0.21158  0.68426  1.0000
  C   C7        1.0  0.6559900000000001  0.14677  0.7078700000000002  1.0000
  C   C8        1.0  0.9398399999999999  0.2808  0.6549  1.0000
  C   C9        1.0  0.9462400000000003  0.3508  0.6157900000000002  1.0000
  C   C10       1.0  0.7069099999999999  0.76552  0.7501700000000002  1.0000
  C   C11       1.0  0.7560799999999998  0.68374  0.7295  1.0000
  C   C12       1.0  0.70542  0.66486  0.69561  1.0000
  C   C13       1.0  0.7533199999999999  0.588  0.6758000000000002  1.0000
  C   C14       1.0  0.8531600000000003  0.52952  0.69001  1.0000
  C   C15       1.0  0.9033899999999999  0.54711  0.7245800000000002  1.0000
  C   C16       1.0  0.8553100000000001  0.62379  0.74395  1.0000
  C   C17       1.0  0.44649000000000005  0.3492  0.40501  1.0000
  C   C18       1.0  0.36708  0.33261  0.44882  1.0000
  C   C19       1.0  0.33357  0.26233  0.4546400000000001  1.0000
  C   C20       1.0  0.2580699999999999  0.24823  0.49578  1.0000
  C   C21       1.0  0.21563000000000002  0.30407  0.53225  1.0000
  C   C22       1.0  0.2502900000000001  0.37348  0.52732  1.0000
  C   C23       1.0  0.3241200000000001  0.38777  0.4855100000000001  1.0000
  C   C24       1.0  0.7975600000000002  0.40179  0.3547200000000001  1.0000
  C   C25       1.0  0.78114  0.36203  0.44302  1.0000
  C   C26       1.0  0.8147499999999998  0.35715  0.48706  1.0000
  C   C27       1.0  0.9002400000000003  0.38926  0.48957  1.0000
  C   C28       1.0  0.9541100000000002  0.42378  0.44761  1.0000
  C   C29       1.0  0.9205600000000004  0.42783  0.40386  1.0000
  C   C30       1.0  0.9048900000000004  0.33719  0.57189  1.0000
  C   C31       1.0  0.06999000000000008  0.3524  0.60188  1.0000
  C   C32       1.0  0.8648500000000002  0.43515  0.6337300000000002  1.0000
  C   C33       1.0  0.8329  0.39777  0.40114  1.0000
  C   C34       1.0  0.5361500000000002  0.51395  0.25998  1.0000
  C   C35       1.0  0.45296999999999993  0.58432  0.23631000000000005  1.0000
  C   C36       1.0  0.33845  0.58878  0.24049000000000004  1.0000
  C   C37       1.0  0.2616800000000001  0.6534799999999998  0.21641000000000005  1.0000
  C   C38       1.0  0.3000800000000001  0.71478  0.18806000000000006  1.0000
  C   C39       1.0  0.41405000000000003  0.71161  0.18435  1.0000
  C   C40       1.0  0.4897400000000002  0.64665  0.20792  1.0000
  C   C41       1.0  0.12508000000000002  0.78113  0.15490000000000007  1.0000
  C   C42       1.0  0.08777999999999996  0.85109  0.11578  1.0000
  C   C43       1.0  0.77664  0.26554999999999995  0.2503  1.0000
  C   C44       1.0  0.8302700000000001  0.18379  0.22954000000000005  1.0000
  C   C45       1.0  0.9336100000000004  0.16537  0.19574  1.0000
  C   C46       1.0  0.98296  0.08849999999999998  0.17596000000000006  1.0000
  C   C47       1.0  0.9281700000000003  0.029540000000000004  0.19006  1.0000
  C   C48       1.0  0.8256300000000001  0.04674999999999999  0.22444000000000006  1.0000
  C   C49       1.0  0.7770800000000002  0.12345  0.24380000000000004  1.0000
  C   C50       1.0  0.79982  0.84949  0.90492  1.0000
  C   C51       1.0  0.8518800000000002  0.8326999999999999  0.9487700000000002  1.0000
  C   C52       1.0  0.9495300000000001  0.7623399999999999  0.95464  1.0000
  C   C53       1.0  0.9978899999999999  0.74817  0.99585  1.0000
  C   C54       1.0  0.9480799999999999  0.80399  0.03234  1.0000
  C   C55       1.0  0.8489000000000002  0.87329  0.027440000000000006  1.0000
  C   C56       1.0  0.8027200000000002  0.88761  0.98556  1.0000
  C   C57       1.0  0.44752  0.90158  0.85543  1.0000
  C   C58       1.0  0.41357  0.8618299999999999  0.9433400000000002  1.0000
  C   C59       1.0  0.34091000000000005  0.85706  0.98727  1.0000
  C   C60       1.0  0.2210199999999998  0.8893899999999997  0.9895900000000002  1.0000
  C   C61       1.0  0.17472999999999994  0.92381  0.94753  1.0000
  C   C62       1.0  0.2480599999999999  0.92775  0.9038200000000002  1.0000
  C   C63       1.0  0.18634999999999996  0.83739  0.07189  1.0000
  C   C64       1.0  0.97622  0.85263  0.1019  1.0000
  C   C65       1.0  0.06743999999999999  0.93544  0.13369  1.0000
  C   C66       1.0  0.3683399999999999  0.8975599999999999  0.9013700000000001  1.0000
  C   C67       1.0  0.46385000000000004  0.48606000000000005  0.74002  1.0000
  C   C68       1.0  0.5470300000000003  0.41569  0.7636900000000001  1.0000
  C   C69       1.0  0.6615499999999999  0.41122  0.7595100000000001  1.0000
  C   C70       1.0  0.7383199999999999  0.34653  0.78359  1.0000
  C   C71       1.0  0.6999199999999999  0.28523  0.81194  1.0000
  C   C72       1.0  0.5859499999999999  0.28839  0.8156500000000002  1.0000
  C   C73       1.0  0.5102600000000002  0.35335  0.79208  1.0000
  C   C74       1.0  0.87492  0.21886999999999998  0.8450900000000002  1.0000
  C   C75       1.0  0.9122200000000004  0.14891  0.88422  1.0000
  C   C76       1.0  0.22336  0.73446  0.7497  1.0000
  C   C77       1.0  0.1697300000000001  0.81622  0.77046  1.0000
  C   C78       1.0  0.06639999999999986  0.83464  0.8042600000000002  1.0000
  C   C79       1.0  0.017049999999999836  0.9115000000000001  0.8240400000000002  1.0000
  C   C80       1.0  0.07183000000000002  0.9704599999999999  0.8099400000000001  1.0000
  C   C81       1.0  0.17437000000000005  0.9532499999999999  0.77556  1.0000
  C   C82       1.0  0.22291999999999992  0.87656  0.7561900000000003  1.0000
  C   C83       1.0  0.20018000000000008  0.15051999999999996  0.09508000000000003  1.0000
  C   C84       1.0  0.14812  0.1673  0.051230000000000005  1.0000
  C   C85       1.0  0.050469999999999994  0.23766  0.04536  1.0000
  C   C86       1.0  0.0021099999999999973  0.25184  0.004150000000000001  1.0000
  C   C87       1.0  0.051929999999999955  0.19602  0.96766  1.0000
  C   C88       1.0  0.15109999999999996  0.12670999999999996  0.9725600000000001  1.0000
  C   C89       1.0  0.19728  0.11239  0.014440000000000003  1.0000
  C   C90       1.0  0.55248  0.09841999999999998  0.14457000000000003  1.0000
  C   C91       1.0  0.5864400000000002  0.13817  0.056660000000000016  1.0000
  C   C92       1.0  0.6591000000000002  0.14294  0.01273  1.0000
  C   C93       1.0  0.77899  0.11061  0.010410000000000003  1.0000
  C   C94       1.0  0.82528  0.07619  0.05247  1.0000
  C   C95       1.0  0.7519500000000001  0.07225  0.09618000000000002  1.0000
  C   C96       1.0  0.81365  0.16261  0.9281100000000001  1.0000
  C   C97       1.0  0.023780000000000016  0.14736999999999997  0.8981  1.0000
  C   C98       1.0  0.93256  0.06456999999999997  0.8663100000000002  1.0000
  C   C99       1.0  0.63166  0.10244  0.09863  1.0000
  C   C100      1.0  0.30985999999999997  0.98597  0.24005  1.0000
  C   C101      1.0  0.27346999999999994  0.91557  0.26368  1.0000
  C   C102      1.0  0.16749999999999993  0.91127  0.25948000000000004  1.0000
  C   C103      1.0  0.13098999999999994  0.84675  0.28359  1.0000
  C   C104      1.0  0.20217999999999994  0.78547  0.31198  1.0000
  C   C105      1.0  0.3094  0.78842  0.31574  1.0000
  C   C106      1.0  0.3440200000000001  0.85323  0.29213000000000006  1.0000
  C   C107      1.0  0.06015999999999996  0.7192  0.3451000000000001  1.0000
  C   C108      1.0  0.053759999999999995  0.6492  0.3842100000000001  1.0000
  C   C109      1.0  0.2931000000000001  0.23448  0.24982000000000001  1.0000
  C   C110      1.0  0.24392000000000003  0.31626  0.2705  1.0000
  C   C111      1.0  0.29458  0.33515  0.30438  1.0000
  C   C112      1.0  0.24669  0.412  0.3242  1.0000
  C   C113      1.0  0.14685000000000004  0.47048  0.30999  1.0000
  C   C114      1.0  0.09661  0.45289  0.27542  1.0000
  C   C115      1.0  0.14469000000000007  0.37622  0.25605  1.0000
  C   C116      1.0  0.55352  0.6508  0.5949900000000002  1.0000
  C   C117      1.0  0.63292  0.66739  0.5511800000000001  1.0000
  C   C118      1.0  0.6664400000000004  0.73767  0.54535  1.0000
  C   C119      1.0  0.7419400000000004  0.75177  0.5042200000000001  1.0000
  C   C120      1.0  0.7843700000000001  0.69593  0.4677500000000001  1.0000
  C   C121      1.0  0.7497100000000004  0.62652  0.4726800000000001  1.0000
  C   C122      1.0  0.6758900000000002  0.6122399999999999  0.51448  1.0000
  C   C123      1.0  0.20244000000000004  0.59821  0.64528  1.0000
  C   C124      1.0  0.2188599999999999  0.63797  0.5569800000000001  1.0000
  C   C125      1.0  0.18526000000000006  0.64285  0.51294  1.0000
  C   C126      1.0  0.09976000000000006  0.61074  0.51042  1.0000
  C   C127      1.0  0.04589000000000004  0.5762299999999999  0.55239  1.0000
  C   C128      1.0  0.07944999999999998  0.57217  0.59613  1.0000
  C   C129      1.0  0.09511000000000003  0.66281  0.42811  1.0000
  C   C130      1.0  0.9300200000000004  0.6476099999999999  0.39812  1.0000
  C   C131      1.0  0.13514999999999985  0.56485  0.3662700000000001  1.0000
  C   C132      1.0  0.16709999999999997  0.60224  0.59886  1.0000
  O   O1        1.0  0.7568600000000005  0.7805399999999998  0.7800900000000002  1.0000
  O   O2        1.0  0.7511399999999999  0.9611600000000001  0.78806  1.0000
  O   O3        1.0  0.90931  0.45304999999999995  0.6716800000000003  1.0000
  O   O4        1.0  0.72557  0.36709  0.3520000000000001  1.0000
  O   O5        1.0  0.8413499999999999  0.43908  0.3169400000000001  1.0000
  O   O6        1.0  0.14140999999999998  0.2855599999999999  0.5717300000000001  1.0000
  O   O7        1.0  0.46536  0.4176  0.39756000000000014  1.0000
  O   O8        1.0  0.9360700000000003  0.39015  0.53135  1.0000
  O   O9        1.0  0.59662  0.011519999999999989  0.7498900000000001  1.0000
  O   O10       1.0  0.4965900000000001  0.2931999999999999  0.3737900000000001  1.0000
  O   O11       1.0  0.6141499999999999  0.81769  0.73596  1.0000
  O   O12       1.0  0.8241800000000001  0.27993  0.6619800000000002  1.0000
  O   O13       1.0  0.6822500000000001  0.27982  0.28036  1.0000
  O   O14       1.0  0.5001000000000001  0.46096999999999994  0.28803000000000006  1.0000
  O   O15       1.0  0.9680500000000001  0.95287  0.17192  1.0000
  O   O16       1.0  0.5563400000000003  0.86696  0.8539  1.0000
  O   O17       1.0  0.40595000000000014  0.9385499999999999  0.81721  1.0000
  O   O18       1.0  0.0014299999999999586  0.7857  0.07184000000000001  1.0000
  O   O19       1.0  0.7199599999999998  0.9178200000000001  0.8975900000000002  1.0000
  O   O20       1.0  0.14279999999999998  0.89046  0.03137000000000001  1.0000
  O   O21       1.0  0.6421  0.51164  0.25003  1.0000
  O   O22       1.0  0.83718  0.79371  0.8735700000000002  1.0000
  O   O23       1.0  0.83065  0.3182199999999999  0.23597000000000007  1.0000
  O   O24       1.0  0.23440999999999992  0.78038  0.16211  1.0000
  O   O25       1.0  0.3177499999999998  0.72018  0.7196400000000002  1.0000
  O   O26       1.0  0.4999  0.53904  0.7119700000000002  1.0000
  O   O27       1.0  0.03194999999999995  0.04712999999999999  0.82808  1.0000
  O   O28       1.0  0.44366  0.13304  0.1461  1.0000
  O   O29       1.0  0.59405  0.061459999999999994  0.18279000000000004  1.0000
  O   O30       1.0  0.9985700000000001  0.21429999999999996  0.9281600000000002  1.0000
  O   O31       1.0  0.28004  0.08218  0.10241  1.0000
  O   O32       1.0  0.8571999999999997  0.10954999999999998  0.9686300000000001  1.0000
  O   O33       1.0  0.35789999999999994  0.48836000000000007  0.74997  1.0000
  O   O34       1.0  0.16282000000000002  0.20629  0.12643  1.0000
  O   O35       1.0  0.16934999999999995  0.68178  0.7640300000000002  1.0000
  O   O36       1.0  0.76559  0.21962  0.83789  1.0000
  O   O37       1.0  0.24313999999999997  0.21946  0.21991  1.0000
  O   O38       1.0  0.24886999999999998  0.038839999999999986  0.21193000000000004  1.0000
  O   O39       1.0  0.09069  0.54695  0.32832  1.0000
  O   O40       1.0  0.27443999999999985  0.63291  0.6479900000000002  1.0000
  O   O41       1.0  0.15865000000000004  0.56093  0.68306  1.0000
  O   O42       1.0  0.8586000000000004  0.71444  0.42826000000000003  1.0000
  O   O43       1.0  0.53464  0.5824000000000001  0.60244  1.0000
  O   O44       1.0  0.06392999999999993  0.60985  0.4686500000000001  1.0000
  O   O45       1.0  0.40337999999999996  0.9884900000000001  0.25011  1.0000
  O   O46       1.0  0.5034100000000002  0.7067999999999998  0.62621  1.0000
  O   O47       1.0  0.38585  0.18232  0.26404  1.0000
  O   O48       1.0  0.1758199999999999  0.72007  0.33802  1.0000
