data_image0
_chemical_formula_structural       Ni8H64C116O40
_chemical_formula_sum              "Ni8 H64 C116 O40"
_cell_length_a       14.56154
_cell_length_b       17.16126
_cell_length_c       24.14293
_cell_angle_alpha    89.99775
_cell_angle_beta     90.01356
_cell_angle_gamma    89.96517

_symmetry_space_group_name_H-M    'P 1'
_symmetry_Int_Tables_number       1

loop_
  _symmetry_equiv_pos_as_xyz
  'x,y,z'

loop_
  _atom_site_type_symbol
  _atom_site_label
  _atom_site_symmetry_multiplicity
  _atom_site_fract_x
  _atom_site_fract_y
  _atom_site_fract_z
  _atom_site_occupancy
  Ni  Ni1       1.0  0.32781  0.20352000000000006  2.9999999999999997e-05  1.0000
  Ni  Ni2       1.0  0.41336  0.030100000000000002  0.9995299999999999  1.0000
  Ni  Ni3       1.0  0.6719  0.7966100000000002  0.99973  1.0000
  Ni  Ni4       1.0  0.58669  0.96975  0.9995099999999999  1.0000
  Ni  Ni5       1.0  0.17211  0.70366  0.4999399999999999  1.0000
  Ni  Ni6       1.0  0.08675  0.53009  0.50023  1.0000
  Ni  Ni7       1.0  0.82786  0.29645  0.49986999999999987  1.0000
  Ni  Ni8       1.0  0.91326  0.46998  0.50022  1.0000
  H   H1        1.0  0.16382999999999995  0.92129  0.21669999999999995  1.0000
  H   H2        1.0  0.11875  0.16315  0.10693999999999997  1.0000
  H   H3        1.0  0.27404  0.95589  0.14194  1.0000
  H   H4        1.0  0.006369999999999998  0.12699  0.17947  1.0000
  H   H5        1.0  0.84938  0.0144  0.31184  1.0000
  H   H6        1.0  0.81788  0.11377  0.38405  1.0000
  H   H7        1.0  0.10052  0.13291  0.27001  1.0000
  H   H8        1.0  0.06777  0.23215000000000005  0.34210999999999997  1.0000
  H   H9        1.0  0.83607  0.07848  0.21669999999999995  1.0000
  H   H10       1.0  0.8812199999999998  0.83663  0.10696  1.0000
  H   H11       1.0  0.72581  0.04385  0.14193  1.0000
  H   H12       1.0  0.99364  0.87286  0.17947  1.0000
  H   H13       1.0  0.15044  0.9856900000000001  0.31184  1.0000
  H   H14       1.0  0.18216  0.88602  0.38394  1.0000
  H   H15       1.0  0.89929  0.86722  0.27002  1.0000
  H   H16       1.0  0.93229  0.76775  0.34194999999999987  1.0000
  H   H17       1.0  0.3361  0.42203  0.28275999999999996  1.0000
  H   H18       1.0  0.38076  0.66382  0.39256  1.0000
  H   H19       1.0  0.22627  0.45618  0.35783  1.0000
  H   H20       1.0  0.49281  0.62807  0.31978  1.0000
  H   H21       1.0  0.65061  0.51447  0.18785999999999994  1.0000
  H   H22       1.0  0.68328  0.6141  0.11609999999999997  1.0000
  H   H23       1.0  0.3999  0.63389  0.22945  1.0000
  H   H24       1.0  0.4339799999999999  0.73372  0.15793  1.0000
  H   H25       1.0  0.66344  0.57917  0.28324  1.0000
  H   H26       1.0  0.61821  0.3373  0.39291  1.0000
  H   H27       1.0  0.77348  0.54455  0.3581  1.0000
  H   H28       1.0  0.50602  0.37356  0.32029  1.0000
  H   H29       1.0  0.34938  0.48633000000000004  0.18764  1.0000
  H   H30       1.0  0.31673  0.38611  0.11630999999999997  1.0000
  H   H31       1.0  0.60016  0.36742  0.22971  1.0000
  H   H32       1.0  0.56628  0.26702  0.15862999999999997  1.0000
  H   H33       1.0  0.8362899999999998  0.07869  0.7829999999999998  1.0000
  H   H34       1.0  0.88221  0.83708  0.89296  1.0000
  H   H35       1.0  0.72649  0.0442  0.8580099999999999  1.0000
  H   H36       1.0  0.99416  0.87323  0.8202099999999999  1.0000
  H   H37       1.0  0.15072  0.98563  0.6876899999999999  1.0000
  H   H38       1.0  0.18215  0.88572  0.6157199999999999  1.0000
  H   H39       1.0  0.89942  0.86754  0.7296999999999999  1.0000
  H   H40       1.0  0.93215  0.76784  0.6579  1.0000
  H   H41       1.0  0.16397999999999993  0.92171  0.7829  1.0000
  H   H42       1.0  0.11845  0.16331  0.8928499999999998  1.0000
  H   H43       1.0  0.2739  0.95609  0.8578899999999998  1.0000
  H   H44       1.0  0.006419999999999999  0.12734  0.82006  1.0000
  H   H45       1.0  0.84974  0.01415  0.68768  1.0000
  H   H46       1.0  0.81778  0.11371  0.6156099999999999  1.0000
  H   H47       1.0  0.10073999999999995  0.13289  0.7294799999999998  1.0000
  H   H48       1.0  0.06751  0.23231  0.6575199999999999  1.0000
  H   H49       1.0  0.66349  0.57828  0.7168299999999997  1.0000
  H   H50       1.0  0.6185999999999998  0.33673  0.60679  1.0000
  H   H51       1.0  0.7736799999999998  0.5439  0.6419899999999998  1.0000
  H   H52       1.0  0.50629  0.37268  0.6794899999999999  1.0000
  H   H53       1.0  0.34963  0.48579  0.81206  1.0000
  H   H54       1.0  0.31803  0.38645  0.8842899999999998  1.0000
  H   H55       1.0  0.60068  0.36694  0.7702399999999999  1.0000
  H   H56       1.0  0.56786  0.26775  0.8424099999999999  1.0000
  H   H57       1.0  0.33608  0.42147000000000007  0.7168399999999999  1.0000
  H   H58       1.0  0.38116999999999995  0.66351  0.60733  1.0000
  H   H59       1.0  0.22587  0.4563  0.64203  1.0000
  H   H60       1.0  0.49359  0.62704  0.6797899999999998  1.0000
  H   H61       1.0  0.6508899999999999  0.51381  0.8115799999999999  1.0000
  H   H62       1.0  0.6831499999999998  0.6136  0.88345  1.0000
  H   H63       1.0  0.39945999999999987  0.63246  0.7701199999999999  1.0000
  H   H64       1.0  0.43296  0.73208  0.8418199999999999  1.0000
  C   C1        1.0  0.07763999999999997  0.022160000000000003  0.20402  1.0000
  C   C2        1.0  0.9761699999999998  0.06731  0.28449  1.0000
  C   C3        1.0  0.20346  0.06167  0.11984  1.0000
  C   C4        1.0  0.15347  0.9743200000000001  0.19287  1.0000
  C   C5        1.0  0.12816  0.11039  0.13115  1.0000
  C   C6        1.0  0.21569  0.99344  0.15089  1.0000
  C   C7        1.0  0.06589  0.09012  0.17213999999999996  1.0000
  C   C8        1.0  0.89675  0.06277  0.31747  1.0000
  C   C9        1.0  0.87897  0.11810000000000001  0.3583699999999999  1.0000
  C   C10       1.0  0.26778  0.08284  0.07438  1.0000
  C   C11       1.0  0.9407899999999999  0.17953  0.3672199999999999  1.0000
  C   C12       1.0  0.03776  0.12868  0.29412999999999995  1.0000
  C   C13       1.0  0.02015  0.18449  0.33470999999999995  1.0000
  C   C14       1.0  0.92536  0.24054  0.41066999999999987  1.0000
  C   C15       1.0  0.9223299999999998  0.9777100000000001  0.20399  1.0000
  C   C16       1.0  0.02372  0.93274  0.28449  1.0000
  C   C17       1.0  0.7964899999999999  0.9381400000000001  0.11984  1.0000
  C   C18       1.0  0.8464499999999998  0.02548  0.19285  1.0000
  C   C19       1.0  0.8717899999999998  0.88941  0.13115  1.0000
  C   C20       1.0  0.7842  0.00634  0.15088  1.0000
  C   C21       1.0  0.9341  0.90972  0.17213999999999996  1.0000
  C   C22       1.0  0.10318  0.9372400000000001  0.31746  1.0000
  C   C23       1.0  0.12103  0.88181  0.35828  1.0000
  C   C24       1.0  0.73216  0.91703  0.07435  1.0000
  C   C25       1.0  0.05924  0.8203500000000002  0.36706999999999995  1.0000
  C   C26       1.0  0.96213  0.87138  0.2940999999999999  1.0000
  C   C27       1.0  0.97983  0.8154700000000003  0.33458  1.0000
  C   C28       1.0  0.0747  0.75927  0.41045999999999994  1.0000
  C   C29       1.0  0.42207  0.52294  0.29541999999999996  1.0000
  C   C30       1.0  0.52399  0.56784  0.21509  1.0000
  C   C31       1.0  0.2965099999999999  0.56205  0.3798799999999999  1.0000
  C   C32       1.0  0.34644  0.47499  0.30666  1.0000
  C   C33       1.0  0.37145  0.6110200000000001  0.36839  1.0000
  C   C34       1.0  0.28437  0.49389  0.34879  1.0000
  C   C35       1.0  0.4336  0.59095  0.32725999999999994  1.0000
  C   C36       1.0  0.60358  0.56312  0.18226  1.0000
  C   C37       1.0  0.62199  0.61864  0.1416  1.0000
  C   C38       1.0  0.23228  0.58294  0.4255  1.0000
  C   C39       1.0  0.56062  0.68055  0.13296  1.0000
  C   C40       1.0  0.46280999999999994  0.62955  0.20549999999999993  1.0000
  C   C41       1.0  0.4811  0.68563  0.16526  1.0000
  C   C42       1.0  0.57668  0.74232  0.09018999999999999  1.0000
  C   C43       1.0  0.57733  0.47834000000000004  0.29574999999999996  1.0000
  C   C44       1.0  0.476  0.43322  0.21512  1.0000
  C   C45       1.0  0.70302  0.43867000000000006  0.3801299999999999  1.0000
  C   C46       1.0  0.65308  0.52614  0.30707  1.0000
  C   C47       1.0  0.62771  0.39008  0.36873  1.0000
  C   C48       1.0  0.71523  0.50696  0.34913  1.0000
  C   C49       1.0  0.5654899999999999  0.41042  0.32766  1.0000
  C   C50       1.0  0.39646  0.43767000000000006  0.18219999999999997  1.0000
  C   C51       1.0  0.3781  0.38179  0.14176999999999998  1.0000
  C   C52       1.0  0.76749  0.41729  0.42556  1.0000
  C   C53       1.0  0.4393599999999999  0.31971  0.13333  1.0000
  C   C54       1.0  0.53724  0.3715  0.2057  1.0000
  C   C55       1.0  0.51899  0.31506  0.16565  1.0000
  C   C56       1.0  0.42311  0.25784  0.09054  1.0000
  C   C57       1.0  0.92262  0.97794  0.79566  1.0000
  C   C58       1.0  0.02393  0.93283  0.71517  1.0000
  C   C59       1.0  0.7971699999999999  0.9384300000000001  0.8800599999999998  1.0000
  C   C60       1.0  0.84678  0.02572  0.8068799999999999  1.0000
  C   C61       1.0  0.87253  0.88978  0.8687099999999998  1.0000
  C   C62       1.0  0.78477  0.00662  0.84899  1.0000
  C   C63       1.0  0.93459  0.91005  0.8275899999999999  1.0000
  C   C64       1.0  0.10336  0.93722  0.6821799999999998  1.0000
  C   C65       1.0  0.12109  0.8816600000000002  0.64144  1.0000
  C   C66       1.0  0.73273  0.9171800000000001  0.9254499999999999  1.0000
  C   C67       1.0  0.05922999999999998  0.82022  0.63271  1.0000
  C   C68       1.0  0.9622499999999998  0.8715100000000002  0.70561  1.0000
  C   C69       1.0  0.97983  0.81548  0.6652  1.0000
  C   C70       1.0  0.07463999999999998  0.75925  0.58925  1.0000
  C   C71       1.0  0.07777  0.02248  0.79559  1.0000
  C   C72       1.0  0.97635  0.06734  0.71508  1.0000
  C   C73       1.0  0.20321999999999996  0.06186  0.8799699999999999  1.0000
  C   C74       1.0  0.15357  0.9746600000000001  0.8067999999999997  1.0000
  C   C75       1.0  0.12798  0.11062  0.8685899999999998  1.0000
  C   C76       1.0  0.21562  0.9936900000000001  0.84889  1.0000
  C   C77       1.0  0.06589  0.09043  0.8274699999999999  1.0000
  C   C78       1.0  0.89689  0.06269  0.68212  1.0000
  C   C79       1.0  0.87891  0.11803000000000001  0.6412699999999999  1.0000
  C   C80       1.0  0.26749  0.08296  0.92546  1.0000
  C   C81       1.0  0.94064  0.17955  0.6324799999999999  1.0000
  C   C82       1.0  0.03786  0.12874  0.70545  1.0000
  C   C83       1.0  0.02005  0.18456  0.66494  1.0000
  C   C84       1.0  0.92526  0.24064000000000002  0.58911  1.0000
  C   C85       1.0  0.5775199999999999  0.47744000000000003  0.7040699999999999  1.0000
  C   C86       1.0  0.4762  0.43253  0.78462  1.0000
  C   C87       1.0  0.70319  0.43814  0.6198399999999998  1.0000
  C   C88       1.0  0.65322  0.52532  0.69292  1.0000
  C   C89       1.0  0.62797  0.38941  0.6310799999999999  1.0000
  C   C90       1.0  0.7154099999999998  0.50632  0.65091  1.0000
  C   C91       1.0  0.56575  0.40956  0.67215  1.0000
  C   C92       1.0  0.39686  0.43727  0.8176599999999999  1.0000
  C   C93       1.0  0.37907  0.382  0.8585799999999999  1.0000
  C   C94       1.0  0.76757  0.41701  0.5744299999999999  1.0000
  C   C95       1.0  0.44085  0.32046  0.8674099999999998  1.0000
  C   C96       1.0  0.53786  0.37117  0.7943199999999998  1.0000
  C   C97       1.0  0.52024  0.31544  0.8349399999999999  1.0000
  C   C98       1.0  0.42538  0.25944  0.91085  1.0000
  C   C99       1.0  0.42235  0.52215  0.70415  1.0000
  C   C100      1.0  0.52397  0.56688  0.78448  1.0000
  C   C101      1.0  0.29659  0.56195  0.62004  1.0000
  C   C102      1.0  0.34646  0.47447  0.6929999999999997  1.0000
  C   C103      1.0  0.37182  0.61064  0.63142  1.0000
  C   C104      1.0  0.28426  0.49372  0.65102  1.0000
  C   C105      1.0  0.43411  0.5902  0.67238  1.0000
  C   C106      1.0  0.60364  0.56229  0.81726  1.0000
  C   C107      1.0  0.6217899999999998  0.61779  0.8579599999999998  1.0000
  C   C108      1.0  0.23234999999999997  0.58303  0.57451  1.0000
  C   C109      1.0  0.56001  0.67934  0.8667299999999999  1.0000
  C   C110      1.0  0.4624  0.62828  0.7940899999999999  1.0000
  C   C111      1.0  0.48038  0.68424  0.8344399999999998  1.0000
  C   C112      1.0  0.5755699999999998  0.74093  0.9097299999999998  1.0000
  C   C113      1.0  0.99996  3.158865878186324e-21  0.24456999999999995  1.0000
  C   C114      1.0  0.49987  0.50061  0.25495  1.0000
  C   C115      1.0  0.0001799999999999999  0.00016000000000000004  0.7550299999999998  1.0000
  C   C116      1.0  0.49998  0.49970000000000003  0.7446599999999999  1.0000
  O   O1        1.0  0.8611  0.22263  0.4467199999999999  1.0000
  O   O2        1.0  0.32414  0.03072  0.058009999999999985  1.0000
  O   O3        1.0  0.25926  0.15237  0.05561  1.0000
  O   O4        1.0  0.97204  0.30114  0.41066999999999987  1.0000
  O   O5        1.0  0.13867999999999997  0.77733  0.44670999999999994  1.0000
  O   O6        1.0  0.67587  0.9692200000000001  0.05798999999999999  1.0000
  O   O7        1.0  0.7406  0.84755  0.05556  1.0000
  O   O8        1.0  0.02824  0.69854  0.4102099999999999  1.0000
  O   O9        1.0  0.6384  0.72292  0.05287  1.0000
  O   O10       1.0  0.17601999999999998  0.53078  0.44183999999999996  1.0000
  O   O11       1.0  0.24070999999999995  0.6524  0.4443799999999999  1.0000
  O   O12       1.0  0.53292  0.80448  0.09189999999999997  1.0000
  O   O13       1.0  0.36138  0.27719  0.05318  1.0000
  O   O14       1.0  0.82398  0.4693  0.44189  1.0000
  O   O15       1.0  0.75923  0.34772  0.44429  1.0000
  O   O16       1.0  0.46690999999999994  0.19566  0.09205  1.0000
  O   O17       1.0  0.13879  0.77734  0.55315  1.0000
  O   O18       1.0  0.6761799999999998  0.9692500000000001  0.9416799999999997  1.0000
  O   O19       1.0  0.7409  0.84769  0.9442899999999999  1.0000
  O   O20       1.0  0.02804  0.6986  0.58926  1.0000
  O   O21       1.0  0.86109  0.22268  0.55302  1.0000
  O   O22       1.0  0.32387999999999995  0.03076  0.9417099999999998  1.0000
  O   O23       1.0  0.25923  0.15242  0.9443199999999999  1.0000
  O   O24       1.0  0.97199  0.30122  0.5892299999999999  1.0000
  O   O25       1.0  0.36107  0.27736  0.9468699999999999  1.0000
  O   O26       1.0  0.82397  0.46917000000000003  0.55822  1.0000
  O   O27       1.0  0.75929  0.34756  0.55557  1.0000
  O   O28       1.0  0.47211  0.19883  0.9107999999999999  1.0000
  O   O29       1.0  0.6387  0.72275  0.94652  1.0000
  O   O30       1.0  0.17605  0.53084  0.55826  1.0000
  O   O31       1.0  0.24073999999999998  0.65245  0.5556  1.0000
  O   O32       1.0  0.5298  0.8020500000000002  0.90854  1.0000
  O   O33       1.0  0.4358  0.1449  8e-05  1.0000
  O   O34       1.0  0.56391  0.85518  0.99985  1.0000
  O   O35       1.0  0.06424  0.64497  0.49996999999999997  1.0000
  O   O36       1.0  0.9358  0.35506000000000004  0.4999899999999999  1.0000
  O   O37       1.0  0.50004  0.99998  0.04744999999999999  1.0000
  O   O38       1.0  1.0000000000000008e-05  0.5  0.45233  1.0000
  O   O39       1.0  0.49997  1.2635463512745296e-20  0.9512799999999998  1.0000
  O   O40       1.0  2.0000000000000015e-05  0.49996  0.54825  1.0000
