data_image0
_chemical_formula_structural       Ag16H72C96N72
_chemical_formula_sum              "Ag16 H72 C96 N72"
_cell_length_a       5.83799
_cell_length_b       14.33202
_cell_length_c       36.87775
_cell_angle_alpha    89.99955
_cell_angle_beta     90.0
_cell_angle_gamma    90.0

_space_group_name_H-M_alt    "P 1"
_space_group_IT_number       1

loop_
  _space_group_symop_operation_xyz
  'x, y, z'

loop_
  _atom_site_type_symbol
  _atom_site_label
  _atom_site_symmetry_multiplicity
  _atom_site_fract_x
  _atom_site_fract_y
  _atom_site_fract_z
  _atom_site_occupancy
  Ag  Ag1       1.0  0.44021  0.347  0.5637500000000001  1.0000
  Ag  Ag2       1.0  0.06353  0.15483  0.6420300000000001  1.0000
  Ag  Ag3       1.0  0.47550999999999993  0.6732  0.31883  1.0000
  Ag  Ag4       1.0  0.09926  0.74584  0.86563  1.0000
  Ag  Ag5       1.0  0.55979  0.847  0.5637500000000001  1.0000
  Ag  Ag6       1.0  0.93648  0.65483  0.6420300000000001  1.0000
  Ag  Ag7       1.0  0.52449  0.17319999999999994  0.31883  1.0000
  Ag  Ag8       1.0  0.90074  0.24584  0.86563  1.0000
  Ag  Ag9       1.0  0.90076  0.25414  0.36562  1.0000
  Ag  Ag10      1.0  0.55977  0.65301  0.06375000000000001  1.0000
  Ag  Ag11      1.0  0.93642  0.84517  0.14202000000000004  1.0000
  Ag  Ag12      1.0  0.52447  0.32678  0.8188100000000001  1.0000
  Ag  Ag13      1.0  0.09924  0.75415  0.36562  1.0000
  Ag  Ag14      1.0  0.44023  0.15301  0.06375000000000001  1.0000
  Ag  Ag15      1.0  0.06358  0.34517  0.14202000000000004  1.0000
  Ag  Ag16      1.0  0.47553  0.8267799999999997  0.8188100000000001  1.0000
  H   H1        1.0  0.9508899999999999  0.9029599999999998  0.81256  1.0000
  H   H2        1.0  0.023109999999999995  0.9010099999999998  0.92496  1.0000
  H   H3        1.0  0.01325  0.0771  0.92526  1.0000
  H   H4        1.0  0.94486  0.07056  0.74151  1.0000
  H   H5        1.0  0.63899  0.27299  0.6771300000000002  1.0000
  H   H6        1.0  0.69292  0.39039999999999997  0.7271100000000003  1.0000
  H   H7        1.0  0.65516  0.47178  0.61699  1.0000
  H   H8        1.0  0.22945  0.51523  0.6821600000000001  1.0000
  H   H9        1.0  0.33078  0.34517  0.67643  1.0000
  H   H10       1.0  0.8481999999999998  0.03147  0.58913  1.0000
  H   H11       1.0  0.26894  0.98894  0.52485  1.0000
  H   H12       1.0  0.15075  0.15470999999999993  0.53508  1.0000
  H   H13       1.0  0.36869  0.39505  0.47478  1.0000
  H   H14       1.0  0.9475399999999999  0.27672  0.5216400000000001  1.0000
  H   H15       1.0  0.06604  0.21294  0.46057000000000003  1.0000
  H   H16       1.0  0.47773999999999994  0.50216  0.37416  1.0000
  H   H17       1.0  0.40011  0.51422  0.26169  1.0000
  H   H18       1.0  0.39727  0.34143999999999997  0.25853  1.0000
  H   H19       1.0  0.04911  0.40296  0.81256  1.0000
  H   H20       1.0  0.97688  0.40101  0.92496  1.0000
  H   H21       1.0  0.98675  0.5771  0.92526  1.0000
  H   H22       1.0  0.05514  0.57057  0.74151  1.0000
  H   H23       1.0  0.36101  0.7729899999999998  0.6771300000000002  1.0000
  H   H24       1.0  0.30708  0.8904  0.7271100000000003  1.0000
  H   H25       1.0  0.34484  0.97178  0.61699  1.0000
  H   H26       1.0  0.77055  0.01523  0.6821600000000001  1.0000
  H   H27       1.0  0.66922  0.84517  0.67643  1.0000
  H   H28       1.0  0.1518  0.53147  0.58913  1.0000
  H   H29       1.0  0.7310599999999999  0.48894  0.52485  1.0000
  H   H30       1.0  0.84925  0.65471  0.53508  1.0000
  H   H31       1.0  0.63131  0.89505  0.47478  1.0000
  H   H32       1.0  0.05246  0.77672  0.5216400000000001  1.0000
  H   H33       1.0  0.93396  0.71294  0.46057000000000003  1.0000
  H   H34       1.0  0.52226  0.00215  0.37416  1.0000
  H   H35       1.0  0.5999  0.01422  0.26169  1.0000
  H   H36       1.0  0.60273  0.84144  0.25853  1.0000
  H   H37       1.0  0.04909  0.09702  0.31257  1.0000
  H   H38       1.0  0.97698  0.09896999999999997  0.42497  1.0000
  H   H39       1.0  0.98676  0.9228799999999998  0.42528  1.0000
  H   H40       1.0  0.05508  0.9293999999999998  0.24151  1.0000
  H   H41       1.0  0.36095  0.72696  0.17714  1.0000
  H   H42       1.0  0.30705  0.60957  0.22713  1.0000
  H   H43       1.0  0.34482  0.52821  0.117  1.0000
  H   H44       1.0  0.77053  0.48478  0.18217  1.0000
  H   H45       1.0  0.66919  0.65484  0.17643  1.0000
  H   H46       1.0  0.15176  0.96852  0.08913  1.0000
  H   H47       1.0  0.7310399999999999  0.01107  0.02486  1.0000
  H   H48       1.0  0.8492  0.84529  0.03508  1.0000
  H   H49       1.0  0.63137  0.60493  0.9747600000000001  1.0000
  H   H50       1.0  0.05254  0.72329  0.02163  1.0000
  H   H51       1.0  0.934  0.7870499999999999  0.9605600000000001  1.0000
  H   H52       1.0  0.52228  0.49782  0.8741400000000001  1.0000
  H   H53       1.0  0.59995  0.48577999999999993  0.7616600000000001  1.0000
  H   H54       1.0  0.60276  0.65856  0.7585200000000001  1.0000
  H   H55       1.0  0.95091  0.59702  0.31257  1.0000
  H   H56       1.0  0.02302  0.59897  0.42497  1.0000
  H   H57       1.0  0.013239999999999998  0.42288  0.42528  1.0000
  H   H58       1.0  0.94492  0.42939999999999995  0.24151  1.0000
  H   H59       1.0  0.63905  0.22696  0.17714  1.0000
  H   H60       1.0  0.69295  0.10956  0.22713  1.0000
  H   H61       1.0  0.65518  0.02821  0.117  1.0000
  H   H62       1.0  0.22946999999999998  0.98478  0.18217  1.0000
  H   H63       1.0  0.33081  0.15483999999999995  0.17643  1.0000
  H   H64       1.0  0.84824  0.46852  0.08913  1.0000
  H   H65       1.0  0.26896  0.51107  0.02486  1.0000
  H   H66       1.0  0.1508  0.3452899999999999  0.03508  1.0000
  H   H67       1.0  0.36863  0.10493  0.9747600000000001  1.0000
  H   H68       1.0  0.94746  0.22329  0.02163  1.0000
  H   H69       1.0  0.066  0.28705  0.9605600000000001  1.0000
  H   H70       1.0  0.4777199999999999  0.99782  0.8741400000000001  1.0000
  H   H71       1.0  0.40005  0.9857799999999998  0.7616600000000001  1.0000
  H   H72       1.0  0.39724  0.15856  0.7585200000000001  1.0000
  C   C1        1.0  0.95232  0.03975  0.83796  1.0000
  C   C2        1.0  0.95709  0.9407099999999998  0.8381500000000001  1.0000
  C   C3        1.0  0.99924  0.9406999999999999  0.9002200000000001  1.0000
  C   C4        1.0  0.9944  0.0378  0.90021  1.0000
  C   C5        1.0  0.87584  0.20252  0.76888  1.0000
  C   C6        1.0  0.8781499999999999  0.14093  0.73844  1.0000
  C   C7        1.0  0.7141499999999998  0.25355  0.70304  1.0000
  C   C8        1.0  0.7386  0.3174899999999999  0.73138  1.0000
  C   C9        1.0  0.86552  0.34846999999999995  0.62552  1.0000
  C   C10       1.0  0.80715  0.4448399999999999  0.63043  1.0000
  C   C11       1.0  0.12625  0.46674  0.6665900000000001  1.0000
  C   C12       1.0  0.18173  0.37346999999999997  0.66255  1.0000
  C   C13       1.0  0.6363  0.15463999999999997  0.58116  1.0000
  C   C14       1.0  0.6952499999999999  0.05845  0.57596  1.0000
  C   C15       1.0  0.37178999999999995  0.03634  0.5409100000000001  1.0000
  C   C16       1.0  0.31  0.12834  0.54658  1.0000
  C   C17       1.0  0.59398  0.32317  0.4366900000000001  1.0000
  C   C18       1.0  0.52373  0.35341999999999996  0.47190000000000004  1.0000
  C   C19       1.0  0.84284  0.2866  0.49753000000000003  1.0000
  C   C20       1.0  0.90822  0.25317  0.46357  1.0000
  C   C21       1.0  0.45479  0.36859  0.3469  1.0000
  C   C22       1.0  0.45388  0.46817  0.34801  1.0000
  C   C23       1.0  0.41657999999999995  0.47307999999999995  0.28614000000000006  1.0000
  C   C24       1.0  0.41584  0.37645  0.28464  1.0000
  C   C25       1.0  0.04768  0.53975  0.83796  1.0000
  C   C26       1.0  0.04290999999999999  0.44071  0.8381500000000001  1.0000
  C   C27       1.0  0.00076  0.4407  0.9002200000000001  1.0000
  C   C28       1.0  0.0056  0.5378  0.90021  1.0000
  C   C29       1.0  0.12416  0.70252  0.76888  1.0000
  C   C30       1.0  0.12185  0.64093  0.73844  1.0000
  C   C31       1.0  0.28585  0.75355  0.70304  1.0000
  C   C32       1.0  0.2614  0.81749  0.73138  1.0000
  C   C33       1.0  0.13448  0.84847  0.62552  1.0000
  C   C34       1.0  0.19285  0.94484  0.63043  1.0000
  C   C35       1.0  0.87375  0.9667399999999998  0.6665900000000001  1.0000
  C   C36       1.0  0.8182699999999999  0.87348  0.66256  1.0000
  C   C37       1.0  0.3637  0.6546399999999998  0.58116  1.0000
  C   C38       1.0  0.30476  0.55846  0.57596  1.0000
  C   C39       1.0  0.62821  0.53634  0.5409100000000001  1.0000
  C   C40       1.0  0.69  0.6283499999999997  0.54658  1.0000
  C   C41       1.0  0.40601  0.82317  0.4366900000000001  1.0000
  C   C42       1.0  0.4762699999999999  0.85342  0.47190000000000004  1.0000
  C   C43       1.0  0.15716  0.7866  0.49753000000000003  1.0000
  C   C44       1.0  0.09177999999999999  0.75317  0.46357  1.0000
  C   C45       1.0  0.54521  0.8685899999999998  0.3469  1.0000
  C   C46       1.0  0.54612  0.9681699999999999  0.34801  1.0000
  C   C47       1.0  0.58342  0.97308  0.28614000000000006  1.0000
  C   C48       1.0  0.58416  0.87645  0.28464  1.0000
  C   C49       1.0  0.04765  0.9602399999999998  0.3379700000000001  1.0000
  C   C50       1.0  0.0429  0.05927  0.33816  1.0000
  C   C51       1.0  0.00081  0.05928  0.40023  1.0000
  C   C52       1.0  0.0056099999999999995  0.9621799999999999  0.40022  1.0000
  C   C53       1.0  0.12412  0.79746  0.26889  1.0000
  C   C54       1.0  0.1218  0.85904  0.23845  1.0000
  C   C55       1.0  0.2858  0.74642  0.20305000000000004  1.0000
  C   C56       1.0  0.26137  0.68248  0.23140000000000002  1.0000
  C   C57       1.0  0.13446  0.65153  0.12553  1.0000
  C   C58       1.0  0.19283  0.55515  0.13043  1.0000
  C   C59       1.0  0.8737199999999999  0.53326  0.16659000000000002  1.0000
  C   C60       1.0  0.8182499999999999  0.62653  0.16255  1.0000
  C   C61       1.0  0.36371  0.84536  0.08117000000000003  1.0000
  C   C62       1.0  0.30473  0.94155  0.07596000000000003  1.0000
  C   C63       1.0  0.6282  0.96367  0.04092000000000001  1.0000
  C   C64       1.0  0.68998  0.87165  0.04658  1.0000
  C   C65       1.0  0.40603  0.6768  0.93667  1.0000
  C   C66       1.0  0.47631  0.6465699999999998  0.97188  1.0000
  C   C67       1.0  0.15723  0.7134  0.99751  1.0000
  C   C68       1.0  0.09182999999999998  0.74681  0.9635600000000001  1.0000
  C   C69       1.0  0.54522  0.6314  0.84689  1.0000
  C   C70       1.0  0.54615  0.53181  0.84799  1.0000
  C   C71       1.0  0.58347  0.52692  0.7861200000000002  1.0000
  C   C72       1.0  0.58419  0.62355  0.78462  1.0000
  C   C73       1.0  0.95235  0.46023  0.3379700000000001  1.0000
  C   C74       1.0  0.9571  0.55927  0.33816  1.0000
  C   C75       1.0  0.99919  0.55928  0.40023  1.0000
  C   C76       1.0  0.99439  0.46218  0.40022  1.0000
  C   C77       1.0  0.87588  0.29746  0.26889  1.0000
  C   C78       1.0  0.8782  0.35904  0.23845  1.0000
  C   C79       1.0  0.7141899999999999  0.24642  0.20305000000000004  1.0000
  C   C80       1.0  0.73863  0.18248  0.23140000000000002  1.0000
  C   C81       1.0  0.86554  0.15151999999999993  0.12553  1.0000
  C   C82       1.0  0.80717  0.05515  0.13043  1.0000
  C   C83       1.0  0.12628  0.03326  0.16659000000000002  1.0000
  C   C84       1.0  0.18174999999999997  0.12652  0.16255  1.0000
  C   C85       1.0  0.63629  0.3453599999999999  0.08117000000000003  1.0000
  C   C86       1.0  0.6952700000000002  0.44155  0.07596000000000003  1.0000
  C   C87       1.0  0.37179999999999996  0.46367  0.04092000000000001  1.0000
  C   C88       1.0  0.31002  0.3716499999999999  0.04658  1.0000
  C   C89       1.0  0.59397  0.1768  0.93667  1.0000
  C   C90       1.0  0.52369  0.14656999999999995  0.97188  1.0000
  C   C91       1.0  0.8427699999999999  0.21339  0.99751  1.0000
  C   C92       1.0  0.90817  0.24681  0.9635600000000001  1.0000
  C   C93       1.0  0.45478  0.1314  0.84689  1.0000
  C   C94       1.0  0.45385  0.03181  0.84799  1.0000
  C   C95       1.0  0.41653  0.02692  0.7861200000000002  1.0000
  C   C96       1.0  0.41580999999999996  0.12355  0.78462  1.0000
  N   N1        1.0  0.93224  0.07989  0.8046000000000001  1.0000
  N   N2        1.0  0.9112999999999999  0.17192  0.80386  1.0000
  N   N3        1.0  0.72459  0.2975699999999999  0.6047100000000001  1.0000
  N   N4        1.0  0.78125  0.20607  0.6011700000000001  1.0000
  N   N5        1.0  0.46979999999999994  0.3561599999999999  0.40818  1.0000
  N   N6        1.0  0.50592  0.31552  0.37613  1.0000
  N   N7        1.0  0.9821999999999999  0.89223  0.8687700000000002  1.0000
  N   N8        1.0  0.97155  0.08744  0.86969  1.0000
  N   N9        1.0  0.7938  0.16573  0.7061900000000001  1.0000
  N   N10       1.0  0.81669  0.29367  0.7642700000000001  1.0000
  N   N11       1.0  0.93324  0.50287  0.65021  1.0000
  N   N12       1.0  0.05772  0.31263  0.64261  1.0000
  N   N13       1.0  0.56837  0.00059  0.55625  1.0000
  N   N14       1.0  0.43600999999999995  0.1891  0.5662300000000001  1.0000
  N   N15       1.0  0.646  0.33614  0.50156  1.0000
  N   N16       1.0  0.78795  0.27014  0.4331700000000001  1.0000
  N   N17       1.0  0.44253  0.52046  0.31839  1.0000
  N   N18       1.0  0.43887  0.32247  0.3141200000000001  1.0000
  N   N19       1.0  0.06776  0.5798899999999999  0.8046000000000001  1.0000
  N   N20       1.0  0.08869999999999999  0.67192  0.80386  1.0000
  N   N21       1.0  0.27541  0.79757  0.6047100000000001  1.0000
  N   N22       1.0  0.21875  0.7060699999999999  0.6011700000000001  1.0000
  N   N23       1.0  0.5302  0.85617  0.40818  1.0000
  N   N24       1.0  0.49408  0.81552  0.37613  1.0000
  N   N25       1.0  0.0178  0.3922299999999999  0.8687700000000002  1.0000
  N   N26       1.0  0.02845  0.5874399999999999  0.86969  1.0000
  N   N27       1.0  0.20619999999999997  0.66573  0.7061900000000001  1.0000
  N   N28       1.0  0.18331  0.79367  0.7642700000000001  1.0000
  N   N29       1.0  0.06676  0.0028699999999999993  0.65021  1.0000
  N   N30       1.0  0.94228  0.81263  0.64261  1.0000
  N   N31       1.0  0.43162999999999996  0.50059  0.55625  1.0000
  N   N32       1.0  0.564  0.6891  0.5662300000000001  1.0000
  N   N33       1.0  0.354  0.8361399999999999  0.50156  1.0000
  N   N34       1.0  0.21204999999999996  0.7701399999999998  0.4331700000000001  1.0000
  N   N35       1.0  0.55747  0.02046  0.31839  1.0000
  N   N36       1.0  0.56113  0.8224699999999999  0.3141200000000001  1.0000
  N   N37       1.0  0.06773  0.9201  0.30461  1.0000
  N   N38       1.0  0.08867  0.8280699999999999  0.30387  1.0000
  N   N39       1.0  0.27542  0.7024299999999998  0.10472  1.0000
  N   N40       1.0  0.21876999999999996  0.79393  0.10118  1.0000
  N   N41       1.0  0.53021  0.6438  0.90816  1.0000
  N   N42       1.0  0.4940899999999999  0.6844499999999999  0.87611  1.0000
  N   N43       1.0  0.01782  0.10775  0.36879  1.0000
  N   N44       1.0  0.028429999999999993  0.91254  0.3697  1.0000
  N   N45       1.0  0.20615  0.83424  0.2062  1.0000
  N   N46       1.0  0.18327999999999997  0.70632  0.26429  1.0000
  N   N47       1.0  0.06673  0.49714  0.15021000000000004  1.0000
  N   N48       1.0  0.9422499999999999  0.68736  0.1426  1.0000
  N   N49       1.0  0.4316  0.99941  0.05626  1.0000
  N   N50       1.0  0.56398  0.8108999999999997  0.06623  1.0000
  N   N51       1.0  0.35408  0.66385  0.00154  1.0000
  N   N52       1.0  0.21206  0.72984  0.93316  1.0000
  N   N53       1.0  0.55749  0.47952999999999996  0.81837  1.0000
  N   N54       1.0  0.56114  0.67753  0.8141  1.0000
  N   N55       1.0  0.93227  0.42009999999999986  0.30461  1.0000
  N   N56       1.0  0.91133  0.32807  0.30387  1.0000
  N   N57       1.0  0.72458  0.20242  0.10472  1.0000
  N   N58       1.0  0.78123  0.29393  0.10118  1.0000
  N   N59       1.0  0.46978999999999993  0.14379999999999998  0.90816  1.0000
  N   N60       1.0  0.50591  0.18445  0.87611  1.0000
  N   N61       1.0  0.98218  0.6077499999999999  0.36879  1.0000
  N   N62       1.0  0.97157  0.4125399999999999  0.3697  1.0000
  N   N63       1.0  0.7938499999999998  0.33423  0.2062  1.0000
  N   N64       1.0  0.81673  0.20632  0.26429  1.0000
  N   N65       1.0  0.93327  0.99714  0.15021000000000004  1.0000
  N   N66       1.0  0.057749999999999996  0.18735999999999994  0.1426  1.0000
  N   N67       1.0  0.5684  0.49941  0.05626  1.0000
  N   N68       1.0  0.43601999999999996  0.3109  0.06623  1.0000
  N   N69       1.0  0.64592  0.16385  0.00154  1.0000
  N   N70       1.0  0.78794  0.22983999999999993  0.93316  1.0000
  N   N71       1.0  0.4425  0.9795299999999998  0.81837  1.0000
  N   N72       1.0  0.4388599999999999  0.17752999999999994  0.8141  1.0000
