data_image0
_chemical_formula_structural       Zn6H72C132N4O24
_chemical_formula_sum              "Zn6 H72 C132 N4 O24"
_cell_length_a       16.05566
_cell_length_b       16.97257
_cell_length_c       21.56517
_cell_angle_alpha    110.00907
_cell_angle_beta     89.85378
_cell_angle_gamma    118.40948000000002

_space_group_name_H-M_alt    "P 1"
_space_group_IT_number       1

loop_
  _space_group_symop_operation_xyz
  'x, y, z'

loop_
  _atom_site_type_symbol
  _atom_site_label
  _atom_site_symmetry_multiplicity
  _atom_site_fract_x
  _atom_site_fract_y
  _atom_site_fract_z
  _atom_site_occupancy
  Zn  Zn1       1.0  0.72507  0.5836000000000002  0.51962  1.0000
  Zn  Zn2       1.0  0.14211999999999997  0.41720999999999997  0.98008  1.0000
  Zn  Zn3       1.0  0.27494  0.41639999999999994  0.48038000000000003  1.0000
  Zn  Zn4       1.0  0.85789  0.5828  0.01992  1.0000
  Zn  Zn5       1.0  0.5  0.5  0.5  1.0000
  Zn  Zn6       1.0  0.0  0.5  0.0  1.0000
  H   H1        1.0  0.94964  0.12145  0.99582  1.0000
  H   H2        1.0  0.78851  0.99105  0.99974  1.0000
  H   H3        1.0  0.6797  0.18758  0.03707  1.0000
  H   H4        1.0  0.84157  0.31835  0.035410000000000004  1.0000
  H   H5        1.0  0.6716  0.9122100000000001  0.89428  1.0000
  H   H6        1.0  0.43688  0.63079  0.87463  1.0000
  H   H7        1.0  0.38977  0.70618  0.9774700000000001  1.0000
  H   H8        1.0  0.3786299999999999  0.83378  0.09569  1.0000
  H   H9        1.0  0.40786  0.97546  0.1955  1.0000
  H   H10       1.0  0.65877  0.16478000000000004  0.13633  1.0000
  H   H11       1.0  0.73533  0.82881  0.84366  1.0000
  H   H12       1.0  0.77728  0.7552  0.73673  1.0000
  H   H13       1.0  0.48311  0.52234  0.6648  1.0000
  H   H14       1.0  0.43871  0.59761  0.76982  1.0000
  H   H15       1.0  0.40342  0.11545  0.23687  1.0000
  H   H16       1.0  0.43542000000000003  0.2510700000000001  0.34426  1.0000
  H   H17       1.0  0.7404  0.36533  0.3566  1.0000
  H   H18       1.0  0.7090700000000001  0.22774000000000005  0.25013  1.0000
  H   H19       1.0  0.82847  0.87979  0.50408  1.0000
  H   H20       1.0  0.79782  0.00979999999999999  0.50026  1.0000
  H   H21       1.0  0.4916700000000001  0.8121500000000003  0.46286000000000005  1.0000
  H   H22       1.0  0.52294  0.68184  0.46431  1.0000
  H   H23       1.0  0.7592499999999999  0.08781  0.60577  1.0000
  H   H24       1.0  0.8066100000000002  0.36912  0.62594  1.0000
  H   H25       1.0  0.68454  0.2938  0.52303  1.0000
  H   H26       1.0  0.54567  0.16619000000000003  0.40494  1.0000
  H   H27       1.0  0.43304  0.024500000000000004  0.30513  1.0000
  H   H28       1.0  0.49386  0.83536  0.36399000000000004  1.0000
  H   H29       1.0  0.90641  0.17150000000000007  0.65673  1.0000
  H   H30       1.0  0.022679999999999978  0.24617999999999995  0.76337  1.0000
  H   H31       1.0  0.96139  0.4785  0.83499  1.0000
  H   H32       1.0  0.84136  0.40229  0.73021  1.0000
  H   H33       1.0  0.28862  0.88496  0.26391  1.0000
  H   H34       1.0  0.18503  0.74966  0.15622  1.0000
  H   H35       1.0  0.37539  0.63564  0.14338  1.0000
  H   H36       1.0  0.48147  0.7725600000000001  0.25012  1.0000
  H   H37       1.0  0.050360000000000106  0.8785600000000002  0.00418  1.0000
  H   H38       1.0  0.2115  0.008950000000000003  0.00026  1.0000
  H   H39       1.0  0.32031  0.81242  0.96293  1.0000
  H   H40       1.0  0.15843000000000004  0.68165  0.96459  1.0000
  H   H41       1.0  0.3284  0.0878  0.10572  1.0000
  H   H42       1.0  0.56312  0.36922  0.12536  1.0000
  H   H43       1.0  0.61023  0.29382  0.02253  1.0000
  H   H44       1.0  0.62138  0.16622000000000006  0.90431  1.0000
  H   H45       1.0  0.59214  0.02454999999999999  0.8045  1.0000
  H   H46       1.0  0.34123  0.83522  0.86367  1.0000
  H   H47       1.0  0.26467  0.17119000000000004  0.15634000000000003  1.0000
  H   H48       1.0  0.22272  0.24481000000000003  0.26327  1.0000
  H   H49       1.0  0.5168899999999997  0.47766000000000003  0.3352  1.0000
  H   H50       1.0  0.5612900000000001  0.4023900000000002  0.23018000000000002  1.0000
  H   H51       1.0  0.59658  0.8845600000000002  0.76313  1.0000
  H   H52       1.0  0.5645800000000002  0.7489300000000003  0.6557400000000001  1.0000
  H   H53       1.0  0.25959999999999994  0.63468  0.6434  1.0000
  H   H54       1.0  0.29093000000000013  0.7722600000000002  0.74987  1.0000
  H   H55       1.0  0.17153  0.12021  0.49592  1.0000
  H   H56       1.0  0.2021800000000001  0.9902000000000002  0.49972999999999995  1.0000
  H   H57       1.0  0.50834  0.18786000000000003  0.53713  1.0000
  H   H58       1.0  0.47706  0.31817  0.53569  1.0000
  H   H59       1.0  0.24074999999999994  0.91219  0.39423  1.0000
  H   H60       1.0  0.19339999999999996  0.63089  0.37406  1.0000
  H   H61       1.0  0.31547  0.7062  0.47697000000000006  1.0000
  H   H62       1.0  0.4543300000000001  0.8338100000000003  0.59506  1.0000
  H   H63       1.0  0.56696  0.9755000000000001  0.69486  1.0000
  H   H64       1.0  0.50615  0.16464  0.63601  1.0000
  H   H65       1.0  0.09358999999999996  0.8285  0.34327  1.0000
  H   H66       1.0  0.97733  0.75383  0.23663  1.0000
  H   H67       1.0  0.03861000000000005  0.5215100000000001  0.16501000000000002  1.0000
  H   H68       1.0  0.15864000000000006  0.59771  0.26978  1.0000
  H   H69       1.0  0.71138  0.11505  0.73609  1.0000
  H   H70       1.0  0.8149699999999999  0.25034  0.84377  1.0000
  H   H71       1.0  0.62461  0.3643700000000001  0.8566100000000001  1.0000
  H   H72       1.0  0.51853  0.22745000000000007  0.7498800000000001  1.0000
  C   C1        1.0  0.9981  0.30236000000000013  0.00912  1.0000
  C   C2        1.0  0.90478  0.22709  0.01473  1.0000
  C   C3        1.0  0.88988  0.13473  0.00462  1.0000
  C   C4        1.0  0.8001999999999999  0.06218000000000001  0.006230000000000001  1.0000
  C   C5        1.0  0.72385  0.08092  0.01731  1.0000
  C   C6        1.0  0.7391500000000001  0.17381000000000005  0.028850000000000004  1.0000
  C   C7        1.0  0.8291800000000001  0.24647000000000005  0.027620000000000002  1.0000
  C   C8        1.0  0.5880600000000001  0.9083400000000001  0.9728500000000001  1.0000
  C   C9        1.0  0.61235  0.8669200000000001  0.91321  1.0000
  C   C10       1.0  0.5573900000000002  0.7657300000000002  0.87718  1.0000
  C   C11       1.0  0.47743  0.70922  0.90146  1.0000
  C   C12       1.0  0.45122000000000007  0.7513000000000001  0.95974  1.0000
  C   C13       1.0  0.5065400000000002  0.8519900000000002  0.99635  1.0000
  C   C14       1.0  0.50088  0.9179800000000002  0.05729  1.0000
  C   C15       1.0  0.4382800000000001  0.9054400000000002  0.10299000000000001  1.0000
  C   C16       1.0  0.45516  0.98584  0.15939  1.0000
  C   C17       1.0  0.53517  0.07937000000000001  0.17273  1.0000
  C   C18       1.0  0.5980399999999999  0.09296  0.12694  1.0000
  C   C19       1.0  0.57957  0.01264  0.0695  1.0000
  C   C20       1.0  0.58353  0.7191399999999999  0.8150699999999999  1.0000
  C   C21       1.0  0.6792900000000001  0.7622400000000001  0.80449  1.0000
  C   C22       1.0  0.70366  0.72086  0.74499  1.0000
  C   C23       1.0  0.63281  0.63378  0.69428  1.0000
  C   C24       1.0  0.53774  0.5888  0.70484  1.0000
  C   C25       1.0  0.51363  0.63109  0.76407  1.0000
  C   C26       1.0  0.65492  0.59293  0.62829  1.0000
  C   C27       1.0  0.55391  0.16135  0.23563000000000003  1.0000
  C   C28       1.0  0.47727  0.1686  0.26368  1.0000
  C   C29       1.0  0.49472000000000005  0.24458000000000005  0.3236  1.0000
  C   C30       1.0  0.58988  0.31625  0.35729  1.0000
  C   C31       1.0  0.6669799999999999  0.30983  0.33006  1.0000
  C   C32       1.0  0.64899  0.23334  0.27013  1.0000
  C   C33       1.0  0.6070200000000001  0.39987000000000017  0.41922000000000004  1.0000
  C   C34       1.0  0.69558  0.69834  0.49078  1.0000
  C   C35       1.0  0.67768  0.77356  0.4851  1.0000
  C   C36       1.0  0.7552700000000001  0.8661400000000001  0.4952500000000001  1.0000
  C   C37       1.0  0.73818  0.9385199999999999  0.49373  1.0000
  C   C38       1.0  0.64289  0.91938  0.48271000000000003  1.0000
  C   C39       1.0  0.5651100000000001  0.8263100000000002  0.47108000000000005  1.0000
  C   C40       1.0  0.58253  0.75387  0.47219  1.0000
  C   C41       1.0  0.67993  0.09175  0.52739  1.0000
  C   C42       1.0  0.7455300000000001  0.13313  0.58699  1.0000
  C   C43       1.0  0.79191  0.23428  0.62311  1.0000
  C   C44       1.0  0.76865  0.2907200000000001  0.59897  1.0000
  C   C45       1.0  0.70054  0.24868  0.5407  1.0000
  C   C46       1.0  0.65504  0.14805  0.504  1.0000
  C   C47       1.0  0.5834  0.08207000000000009  0.44310000000000005  1.0000
  C   C48       1.0  0.53352  0.09459999999999998  0.39754  1.0000
  C   C49       1.0  0.46991  0.014220000000000005  0.34116  1.0000
  C   C50       1.0  0.45615  0.92078  0.32778  1.0000
  C   C51       1.0  0.5052  0.90715  0.37341  1.0000
  C   C52       1.0  0.56717  0.98748  0.43079  1.0000
  C   C53       1.0  0.86463  0.28105  0.68516  1.0000
  C   C54       1.0  0.9172599999999999  0.23827  0.69577  1.0000
  C   C55       1.0  0.98331  0.2802  0.75514  1.0000
  C   C56       1.0  0.9996799999999999  0.36735  0.8057699999999999  1.0000
  C   C57       1.0  0.94953  0.41194  0.79514  1.0000
  C   C58       1.0  0.88294  0.36921  0.73602  1.0000
  C   C59       1.0  0.06266000000000012  0.40854000000000024  0.87172  1.0000
  C   C60       1.0  0.3928800000000002  0.8389100000000003  0.26491  1.0000
  C   C61       1.0  0.3091499999999999  0.83181  0.23698  1.0000
  C   C62       1.0  0.2506700000000001  0.7560800000000001  0.17693  1.0000
  C   C63       1.0  0.27410000000000007  0.68458  0.14301  1.0000
  C   C64       1.0  0.35744  0.69088  0.17018  1.0000
  C   C65       1.0  0.41588  0.76707  0.23026  1.0000
  C   C66       1.0  0.20781999999999998  0.60132  0.08073  1.0000
  C   C67       1.0  0.0018999999999999998  0.69765  0.99087  1.0000
  C   C68       1.0  0.09521999999999992  0.7729099999999999  0.9852600000000001  1.0000
  C   C69       1.0  0.11013000000000009  0.8652700000000001  0.9953800000000002  1.0000
  C   C70       1.0  0.19981  0.93782  0.99376  1.0000
  C   C71       1.0  0.27615  0.91908  0.98269  1.0000
  C   C72       1.0  0.26085000000000014  0.8262000000000003  0.97114  1.0000
  C   C73       1.0  0.17082000000000006  0.7535300000000003  0.9723800000000001  1.0000
  C   C74       1.0  0.41193999999999986  0.09167  0.027150000000000004  1.0000
  C   C75       1.0  0.3876499999999999  0.13309  0.08679  1.0000
  C   C76       1.0  0.44261  0.23427  0.12281999999999998  1.0000
  C   C77       1.0  0.52258  0.2907800000000001  0.09853  1.0000
  C   C78       1.0  0.54878  0.24871  0.04025000000000001  1.0000
  C   C79       1.0  0.49345999999999995  0.14801  0.0036500000000000005  1.0000
  C   C80       1.0  0.49911999999999995  0.08202000000000001  0.94271  1.0000
  C   C81       1.0  0.56172  0.09456  0.89701  1.0000
  C   C82       1.0  0.54484  0.01416  0.84061  1.0000
  C   C83       1.0  0.46484  0.92064  0.82727  1.0000
  C   C84       1.0  0.40196  0.90704  0.87306  1.0000
  C   C85       1.0  0.4204300000000001  0.9873600000000001  0.9305000000000001  1.0000
  C   C86       1.0  0.41647000000000006  0.28086  0.18493  1.0000
  C   C87       1.0  0.32071  0.23776  0.19551  1.0000
  C   C88       1.0  0.29635  0.27914000000000005  0.25501000000000007  1.0000
  C   C89       1.0  0.3671899999999999  0.36622  0.30572  1.0000
  C   C90       1.0  0.46226000000000006  0.41121000000000013  0.29516  1.0000
  C   C91       1.0  0.48636999999999986  0.36892  0.23592  1.0000
  C   C92       1.0  0.34508  0.40708  0.3717  1.0000
  C   C93       1.0  0.44609  0.83866  0.76437  1.0000
  C   C94       1.0  0.52273  0.8314  0.73632  1.0000
  C   C95       1.0  0.50528  0.7554200000000001  0.6764000000000001  1.0000
  C   C96       1.0  0.41012  0.68376  0.64271  1.0000
  C   C97       1.0  0.33303  0.69017  0.66994  1.0000
  C   C98       1.0  0.35101  0.76666  0.72987  1.0000
  C   C99       1.0  0.39299  0.60013  0.58078  1.0000
  C   C100      1.0  0.30442  0.30166  0.50921  1.0000
  C   C101      1.0  0.32231999999999994  0.22643999999999995  0.51489  1.0000
  C   C102      1.0  0.24473  0.13386  0.50475  1.0000
  C   C103      1.0  0.26182  0.061480000000000055  0.50627  1.0000
  C   C104      1.0  0.35712  0.08061999999999998  0.51729  1.0000
  C   C105      1.0  0.43488999999999994  0.1736900000000001  0.52892  1.0000
  C   C106      1.0  0.41747  0.24614000000000003  0.52781  1.0000
  C   C107      1.0  0.3200700000000001  0.9082500000000001  0.47261  1.0000
  C   C108      1.0  0.25447000000000003  0.8668700000000001  0.41301  1.0000
  C   C109      1.0  0.20810000000000012  0.7657300000000002  0.37689  1.0000
  C   C110      1.0  0.2313500000000001  0.7092800000000002  0.40103  1.0000
  C   C111      1.0  0.2994600000000001  0.7513200000000002  0.45930000000000004  1.0000
  C   C112      1.0  0.34496  0.85196  0.496  1.0000
  C   C113      1.0  0.4166  0.91793  0.55689  1.0000
  C   C114      1.0  0.46649  0.90541  0.60246  1.0000
  C   C115      1.0  0.53009  0.98579  0.6588400000000001  1.0000
  C   C116      1.0  0.5438500000000001  0.07922  0.67222  1.0000
  C   C117      1.0  0.4948  0.09285000000000004  0.62658  1.0000
  C   C118      1.0  0.43284  0.01253  0.56921  1.0000
  C   C119      1.0  0.13537000000000005  0.71895  0.31484  1.0000
  C   C120      1.0  0.08274000000000001  0.7617400000000001  0.30423000000000006  1.0000
  C   C121      1.0  0.016699999999999982  0.7198  0.24486000000000002  1.0000
  C   C122      1.0  0.00032000000000000057  0.63266  0.19423  1.0000
  C   C123      1.0  0.05047000000000004  0.58807  0.20486  1.0000
  C   C124      1.0  0.11706000000000005  0.6308  0.26398000000000005  1.0000
  C   C125      1.0  0.93735  0.5914600000000002  0.12828000000000003  1.0000
  C   C126      1.0  0.60712  0.16109  0.73509  1.0000
  C   C127      1.0  0.69085  0.16819000000000006  0.7630200000000001  1.0000
  C   C128      1.0  0.74933  0.24392000000000008  0.8230600000000001  1.0000
  C   C129      1.0  0.7258999999999998  0.31543  0.85699  1.0000
  C   C130      1.0  0.64257  0.30911999999999995  0.82982  1.0000
  C   C131      1.0  0.58412  0.2329300000000001  0.76974  1.0000
  C   C132      1.0  0.79218  0.39869  0.91927  1.0000
  N   N1        1.0  0.6323  0.006099999999999999  0.01755  1.0000
  N   N2        1.0  0.62627  0.9940499999999999  0.48262  1.0000
  N   N3        1.0  0.3677  0.9939  0.9824400000000001  1.0000
  N   N4        1.0  0.37373  0.00594999999999999  0.51738  1.0000
  O   O1        1.0  0.0681  0.28701  0.99649  1.0000
  O   O2        1.0  0.00893000000000001  0.38552  0.015540000000000002  1.0000
  O   O3        1.0  0.74214  0.63794  0.6185000000000002  1.0000
  O   O4        1.0  0.58843  0.51642  0.58155  1.0000
  O   O5        1.0  0.69631  0.4627  0.44933  1.0000
  O   O6        1.0  0.53351  0.40376  0.4374  1.0000
  O   O7        1.0  0.78098  0.71386  0.50332  1.0000
  O   O8        1.0  0.62299  0.6151500000000001  0.4844  1.0000
  O   O9        1.0  0.10569000000000006  0.36445000000000016  0.8813700000000001  1.0000
  O   O10       1.0  0.07174000000000005  0.4844500000000001  0.91852  1.0000
  O   O11       1.0  0.23406  0.53853  0.050370000000000005  1.0000
  O   O12       1.0  0.13070000000000007  0.5977000000000002  0.06247  1.0000
  O   O13       1.0  0.93191  0.7129900000000001  0.0035100000000000005  1.0000
  O   O14       1.0  0.99108  0.6144900000000001  0.9844599999999999  1.0000
  O   O15       1.0  0.25787  0.36206  0.3815  1.0000
  O   O16       1.0  0.41157  0.48359  0.41844  1.0000
  O   O17       1.0  0.30369  0.5373  0.55066  1.0000
  O   O18       1.0  0.46650000000000014  0.5962500000000001  0.5626  1.0000
  O   O19       1.0  0.21902  0.28615  0.49668000000000007  1.0000
  O   O20       1.0  0.37701000000000007  0.3848500000000001  0.51559  1.0000
  O   O21       1.0  0.8943100000000003  0.6355500000000002  0.11863  1.0000
  O   O22       1.0  0.92826  0.51556  0.08148  1.0000
  O   O23       1.0  0.76594  0.46148000000000017  0.94962  1.0000
  O   O24       1.0  0.8693  0.4023000000000001  0.93753  1.0000
