data_image0
_chemical_formula_structural       Zn12H88C136N8O48
_chemical_formula_sum              "Zn12 H88 C136 N8 O48"
_cell_length_a       11.82107
_cell_length_b       17.27881
_cell_length_c       21.63313
_cell_angle_alpha    90.00202
_cell_angle_beta     89.91298999999998
_cell_angle_gamma    106.01265000000001

_symmetry_space_group_name_H-M    'P 1'
_symmetry_Int_Tables_number       1

loop_
  _symmetry_equiv_pos_as_xyz
  'x,y,z'

loop_
  _atom_site_type_symbol
  _atom_site_label
  _atom_site_symmetry_multiplicity
  _atom_site_fract_x
  _atom_site_fract_y
  _atom_site_fract_z
  _atom_site_occupancy
  Zn  Zn1       1.0  0.8254300000000001  0.72826  0.57027  1.0000
  Zn  Zn2       1.0  0.6435  0.82711  0.62024  1.0000
  Zn  Zn3       1.0  0.0647  0.36552  0.53269  1.0000
  Zn  Zn4       1.0  0.67613  0.27193  0.07003  1.0000
  Zn  Zn5       1.0  0.85389  0.17044  0.12017  1.0000
  Zn  Zn6       1.0  0.43604  0.6344  0.03304  1.0000
  Zn  Zn7       1.0  0.17456999999999998  0.27174  0.42973000000000006  1.0000
  Zn  Zn8       1.0  0.3565  0.17289  0.37976  1.0000
  Zn  Zn9       1.0  0.93529  0.63448  0.46731  1.0000
  Zn  Zn10      1.0  0.32387  0.72806  0.92997  1.0000
  Zn  Zn11      1.0  0.14611000000000005  0.82956  0.8798299999999999  1.0000
  Zn  Zn12      1.0  0.56396  0.3656  0.96696  1.0000
  H   H1        1.0  0.40657999999999994  0.78877  0.67412  1.0000
  H   H2        1.0  0.2709  0.86252  0.7199  1.0000
  H   H3        1.0  0.32433  0.01323  0.70948  1.0000
  H   H4        1.0  0.51344  0.08389  0.65518  1.0000
  H   H5        1.0  0.64201  0.00086  0.61532  1.0000
  H   H6        1.0  0.10719000000000001  0.36145  0.66874  1.0000
  H   H7        1.0  0.042709999999999984  0.41845  0.7647099999999999  1.0000
  H   H8        1.0  0.89598  0.49908  0.75459  1.0000
  H   H9        1.0  0.82056  0.51932  0.64881  1.0000
  H   H10       1.0  0.8938  0.45732  0.55782  1.0000
  H   H11       1.0  0.11138000000000006  0.91814  0.58189  1.0000
  H   H12       1.0  0.28291  0.0382  0.56214  1.0000
  H   H13       1.0  0.24852000000000002  0.17266  0.54636  1.0000
  H   H14       1.0  0.8790000000000001  0.07056  0.58093  1.0000
  H   H15       1.0  0.57393  0.52562  0.62497  1.0000
  H   H16       1.0  0.39104  0.41212  0.64189  1.0000
  H   H17       1.0  0.32838999999999996  0.30521  0.5622  1.0000
  H   H18       1.0  0.63797  0.41475  0.45581999999999995  1.0000
  H   H19       1.0  0.19229  0.56581  0.57951  1.0000
  H   H20       1.0  0.33565  0.55112  0.65943  1.0000
  H   H21       1.0  0.34544  0.62477  0.7608799999999999  1.0000
  H   H22       1.0  0.07578000000000001  0.72873  0.69726  1.0000
  H   H23       1.0  0.09187999999999999  0.21115  0.17395  1.0000
  H   H24       1.0  0.22832  0.13796  0.21961999999999998  1.0000
  H   H25       1.0  0.1757799999999999  0.98727  0.20938999999999997  1.0000
  H   H26       1.0  0.9870300000000001  0.91595  0.15533  1.0000
  H   H27       1.0  0.8577900000000002  0.9984  0.11557  1.0000
  H   H28       1.0  0.39327  0.63859  0.16893  1.0000
  H   H29       1.0  0.45729  0.58149  0.26492  1.0000
  H   H30       1.0  0.60387  0.50075  0.25481  1.0000
  H   H31       1.0  0.6797000000000001  0.48052  0.14893  1.0000
  H   H32       1.0  0.60689  0.54263  0.05802  1.0000
  H   H33       1.0  0.38643000000000005  0.0816  0.08169  1.0000
  H   H34       1.0  0.21507  0.9614  0.06199999999999999  1.0000
  H   H35       1.0  0.24952  0.82695  0.04638  1.0000
  H   H36       1.0  0.61873  0.9291  0.0808  1.0000
  H   H37       1.0  0.9241300000000001  0.4739  0.12405999999999999  1.0000
  H   H38       1.0  0.10688999999999997  0.58708  0.14153  1.0000
  H   H39       1.0  0.17107  0.69442  0.06228  1.0000
  H   H40       1.0  0.86326  0.5857  0.95486  1.0000
  H   H41       1.0  0.30785  0.43442  0.07937  1.0000
  H   H42       1.0  0.16456  0.44835  0.15973  1.0000
  H   H43       1.0  0.1562  0.37454  0.26115  1.0000
  H   H44       1.0  0.42623  0.27154  0.19614  1.0000
  H   H45       1.0  0.59342  0.21123  0.32588  1.0000
  H   H46       1.0  0.7291  0.13747  0.2801  1.0000
  H   H47       1.0  0.67567  0.9867700000000001  0.29052  1.0000
  H   H48       1.0  0.48656  0.91611  0.34482  1.0000
  H   H49       1.0  0.35799000000000003  0.9991300000000001  0.38467999999999997  1.0000
  H   H50       1.0  0.89281  0.63854  0.33126  1.0000
  H   H51       1.0  0.95729  0.58154  0.23529  1.0000
  H   H52       1.0  0.10401999999999997  0.50091  0.24541  1.0000
  H   H53       1.0  0.17944000000000002  0.48068  0.35119  1.0000
  H   H54       1.0  0.1062  0.54267  0.44218  1.0000
  H   H55       1.0  0.88862  0.08186  0.41811  1.0000
  H   H56       1.0  0.7170900000000001  0.96179  0.43786  1.0000
  H   H57       1.0  0.75148  0.82734  0.45364  1.0000
  H   H58       1.0  0.12098999999999993  0.92943  0.41907  1.0000
  H   H59       1.0  0.42607  0.47438  0.37503  1.0000
  H   H60       1.0  0.60896  0.58787  0.35811  1.0000
  H   H61       1.0  0.67161  0.69479  0.4378  1.0000
  H   H62       1.0  0.3620300000000001  0.58525  0.54418  1.0000
  H   H63       1.0  0.80771  0.43418  0.4204899999999999  1.0000
  H   H64       1.0  0.6643500000000001  0.44887  0.34057  1.0000
  H   H65       1.0  0.65456  0.37522  0.23912  1.0000
  H   H66       1.0  0.92422  0.27127  0.30274  1.0000
  H   H67       1.0  0.9081200000000001  0.78884  0.8260499999999998  1.0000
  H   H68       1.0  0.7716800000000001  0.86204  0.78038  1.0000
  H   H69       1.0  0.82422  0.01273  0.79061  1.0000
  H   H70       1.0  0.012969999999999994  0.08405  0.8446800000000001  1.0000
  H   H71       1.0  0.14221  0.0016000000000000003  0.88443  1.0000
  H   H72       1.0  0.60673  0.3614  0.8310699999999999  1.0000
  H   H73       1.0  0.5427100000000002  0.41851  0.73508  1.0000
  H   H74       1.0  0.39613  0.49924999999999997  0.74519  1.0000
  H   H75       1.0  0.3203  0.51947  0.85107  1.0000
  H   H76       1.0  0.39311  0.45736  0.94198  1.0000
  H   H77       1.0  0.6135700000000001  0.9184  0.9183199999999999  1.0000
  H   H78       1.0  0.78493  0.0386  0.938  1.0000
  H   H79       1.0  0.75048  0.17305  0.9536199999999999  1.0000
  H   H80       1.0  0.38126  0.07089  0.9192  1.0000
  H   H81       1.0  0.07586999999999998  0.5261  0.87594  1.0000
  H   H82       1.0  0.89311  0.41291  0.85847  1.0000
  H   H83       1.0  0.8289300000000001  0.30558  0.9377199999999999  1.0000
  H   H84       1.0  0.13674  0.41429  0.04514  1.0000
  H   H85       1.0  0.6921500000000002  0.56558  0.9206400000000001  1.0000
  H   H86       1.0  0.83544  0.55164  0.84028  1.0000
  H   H87       1.0  0.8438  0.62545  0.73886  1.0000
  H   H88       1.0  0.57376  0.72845  0.80386  1.0000
  C   C1        1.0  0.4264  0.85406  0.67166  1.0000
  C   C2        1.0  0.35119000000000006  0.89559  0.69635  1.0000
  C   C3        1.0  0.3816400000000001  0.9793200000000001  0.69071  1.0000
  C   C4        1.0  0.48647  0.01877  0.66066  1.0000
  C   C5        1.0  0.55813  0.97341  0.63789  1.0000
  C   C6        1.0  0.04383000000000001  0.39667  0.66679  1.0000
  C   C7        1.0  0.007349999999999999  0.42838  0.71989  1.0000
  C   C8        1.0  0.92567  0.47293  0.71402  1.0000
  C   C9        1.0  0.8829299999999999  0.48395  0.65553  1.0000
  C   C10       1.0  0.9235699999999999  0.45018  0.60451  1.0000
  C   C11       1.0  0.8847  0.91295  0.59081  1.0000
  C   C12       1.0  0.98529  0.9868699999999999  0.5828  1.0000
  C   C13       1.0  0.09966000000000004  0.9781800000000002  0.57765  1.0000
  C   C14       1.0  0.19453000000000004  0.04523  0.56623  1.0000
  C   C15       1.0  0.17578  0.12097  0.55843  1.0000
  C   C16       1.0  0.06189  0.13025  0.56394  1.0000
  C   C17       1.0  0.96706  0.06307  0.57707  1.0000
  C   C18       1.0  0.03866  0.21013  0.55561  1.0000
  C   C19       1.0  0.72201  0.54764  0.52762  1.0000
  C   C20       1.0  0.6174900000000002  0.47725  0.5395  1.0000
  C   C21       1.0  0.5477  0.47595  0.59236  1.0000
  C   C22       1.0  0.44574  0.41306  0.60123  1.0000
  C   C23       1.0  0.41098  0.35199  0.55713  1.0000
  C   C24       1.0  0.48103  0.3525  0.50469  1.0000
  C   C25       1.0  0.58476  0.41467  0.49668999999999996  1.0000
  C   C26       1.0  0.44742  0.28963  0.45581999999999995  1.0000
  C   C27       1.0  0.04413  0.66141  0.5845  1.0000
  C   C28       1.0  0.12714000000000006  0.64924  0.6332  1.0000
  C   C29       1.0  0.19885  0.5981  0.62308  1.0000
  C   C30       1.0  0.27773  0.58908  0.66871  1.0000
  C   C31       1.0  0.28372  0.62968  0.72482  1.0000
  C   C32       1.0  0.21003999999999998  0.67976  0.73563  1.0000
  C   C33       1.0  0.13248  0.68969  0.6896  1.0000
  C   C34       1.0  0.21597000000000002  0.72297  0.79601  1.0000
  C   C35       1.0  0.07253  0.14587  0.17161  1.0000
  C   C36       1.0  0.14811  0.10466  0.19622  1.0000
  C   C37       1.0  0.1182  0.02093  0.19066  1.0000
  C   C38       1.0  0.01357999999999998  0.98108  0.16076  1.0000
  C   C39       1.0  0.94154  0.02609  0.13806  1.0000
  C   C40       1.0  0.45663  0.60337  0.16703  1.0000
  C   C41       1.0  0.49278  0.57155  0.22008999999999998  1.0000
  C   C42       1.0  0.5744  0.52693  0.21423  1.0000
  C   C43       1.0  0.61742  0.51594  0.15574  1.0000
  C   C44       1.0  0.5771299999999999  0.54984  0.10475  1.0000
  C   C45       1.0  0.6143500000000002  0.08593  0.09078  1.0000
  C   C46       1.0  0.51267  0.01273  0.0826  1.0000
  C   C47       1.0  0.39838999999999997  0.0216  0.07745  1.0000
  C   C48       1.0  0.30350999999999995  0.95448  0.06608  1.0000
  C   C49       1.0  0.32214000000000004  0.87868  0.05837  1.0000
  C   C50       1.0  0.43592  0.86929  0.06384  1.0000
  C   C51       1.0  0.53064  0.93644  0.07686  1.0000
  C   C52       1.0  0.45914  0.7894  0.05564  1.0000
  C   C53       1.0  0.77784  0.45257  0.02567  1.0000
  C   C54       1.0  0.88211  0.52277  0.03843  1.0000
  C   C55       1.0  0.95084  0.52374  0.09157  1.0000
  C   C56       1.0  0.05270000000000002  0.58655  0.10081  1.0000
  C   C57       1.0  0.08838  0.64787  0.05691  1.0000
  C   C58       1.0  0.019350000000000023  0.6477  0.00425  1.0000
  C   C59       1.0  0.91575  0.58561  0.99588  1.0000
  C   C60       1.0  0.05340000000000001  0.71076  0.95549  1.0000
  C   C61       1.0  0.45692000000000005  0.33994  0.08363  1.0000
  C   C62       1.0  0.37381  0.35119  0.13264  1.0000
  C   C63       1.0  0.30157  0.40202  0.12286999999999998  1.0000
  C   C64       1.0  0.22278  0.41058  0.16878  1.0000
  C   C65       1.0  0.21767  0.36991  0.2248  1.0000
  C   C66       1.0  0.29187  0.32011  0.23521  1.0000
  C   C67       1.0  0.36911000000000005  0.31039  0.18884000000000004  1.0000
  C   C68       1.0  0.28673  0.27716  0.29561  1.0000
  C   C69       1.0  0.5736  0.14594  0.32834  1.0000
  C   C70       1.0  0.64881  0.1044  0.30365  1.0000
  C   C71       1.0  0.61836  0.02068  0.30929  1.0000
  C   C72       1.0  0.51352  0.9812300000000002  0.33934  1.0000
  C   C73       1.0  0.44187  0.02658  0.36211  1.0000
  C   C74       1.0  0.95616  0.60333  0.33321  1.0000
  C   C75       1.0  0.99265  0.57162  0.28011  1.0000
  C   C76       1.0  0.07433  0.52706  0.28598  1.0000
  C   C77       1.0  0.11707000000000004  0.51604  0.34447  1.0000
  C   C78       1.0  0.07643000000000003  0.54982  0.39549  1.0000
  C   C79       1.0  0.11530000000000001  0.08705  0.40919  1.0000
  C   C80       1.0  0.014710000000000004  0.01313  0.41719999999999996  1.0000
  C   C81       1.0  0.90034  0.02182  0.42235  1.0000
  C   C82       1.0  0.80547  0.95477  0.43377  1.0000
  C   C83       1.0  0.82422  0.87903  0.44157  1.0000
  C   C84       1.0  0.9381100000000001  0.86975  0.43606  1.0000
  C   C85       1.0  0.03294000000000002  0.93692  0.42293  1.0000
  C   C86       1.0  0.96134  0.78986  0.44439  1.0000
  C   C87       1.0  0.27799  0.45236  0.47237999999999997  1.0000
  C   C88       1.0  0.38251  0.52275  0.4605  1.0000
  C   C89       1.0  0.4523  0.52405  0.40763999999999995  1.0000
  C   C90       1.0  0.55426  0.58694  0.39877  1.0000
  C   C91       1.0  0.58902  0.64801  0.44287  1.0000
  C   C92       1.0  0.51897  0.6475  0.49531  1.0000
  C   C93       1.0  0.41523999999999994  0.58533  0.50331  1.0000
  C   C94       1.0  0.55258  0.71037  0.54418  1.0000
  C   C95       1.0  0.95587  0.33858  0.4154999999999999  1.0000
  C   C96       1.0  0.87286  0.35076  0.3668  1.0000
  C   C97       1.0  0.8011400000000001  0.4019  0.3769199999999999  1.0000
  C   C98       1.0  0.72227  0.41092  0.33129  1.0000
  C   C99       1.0  0.71628  0.37031  0.27518  1.0000
  C   C100      1.0  0.78996  0.32024  0.26437  1.0000
  C   C101      1.0  0.86752  0.31031  0.3104  1.0000
  C   C102      1.0  0.78403  0.27702  0.20399  1.0000
  C   C103      1.0  0.92747  0.85413  0.82839  1.0000
  C   C104      1.0  0.85189  0.89533  0.80378  1.0000
  C   C105      1.0  0.8818  0.97907  0.80934  1.0000
  C   C106      1.0  0.9864200000000001  0.01892  0.83924  1.0000
  C   C107      1.0  0.05846000000000001  0.97391  0.8619399999999999  1.0000
  C   C108      1.0  0.54337  0.39663  0.83297  1.0000
  C   C109      1.0  0.50722  0.42845  0.77991  1.0000
  C   C110      1.0  0.4256  0.47307  0.78577  1.0000
  C   C111      1.0  0.3825800000000001  0.48406000000000005  0.84426  1.0000
  C   C112      1.0  0.42287  0.45016  0.8952499999999999  1.0000
  C   C113      1.0  0.38565  0.91407  0.90923  1.0000
  C   C114      1.0  0.48733  0.98727  0.9174  1.0000
  C   C115      1.0  0.6016100000000001  0.9783999999999999  0.92255  1.0000
  C   C116      1.0  0.6964900000000002  0.04551  0.93392  1.0000
  C   C117      1.0  0.67786  0.12131999999999998  0.94163  1.0000
  C   C118      1.0  0.56408  0.1307  0.93616  1.0000
  C   C119      1.0  0.46935000000000004  0.06356  0.92314  1.0000
  C   C120      1.0  0.54086  0.2106  0.9443599999999999  1.0000
  C   C121      1.0  0.22216  0.54743  0.9743299999999999  1.0000
  C   C122      1.0  0.11789000000000004  0.47723  0.9615699999999999  1.0000
  C   C123      1.0  0.049159999999999995  0.47626  0.90843  1.0000
  C   C124      1.0  0.9473000000000001  0.41345  0.8991899999999999  1.0000
  C   C125      1.0  0.9116200000000001  0.35213  0.9431  1.0000
  C   C126      1.0  0.98065  0.35229  0.9957499999999999  1.0000
  C   C127      1.0  0.08425000000000003  0.41438  0.00412  1.0000
  C   C128      1.0  0.9466  0.28924  0.04452  1.0000
  C   C129      1.0  0.54308  0.66006  0.9163699999999999  1.0000
  C   C130      1.0  0.6261899999999998  0.6488  0.86736  1.0000
  C   C131      1.0  0.69843  0.59798  0.87713  1.0000
  C   C132      1.0  0.7772200000000001  0.58942  0.8312199999999998  1.0000
  C   C133      1.0  0.7823299999999999  0.63009  0.7752  1.0000
  C   C134      1.0  0.70813  0.67988  0.7647899999999999  1.0000
  C   C135      1.0  0.63088  0.6896  0.81116  1.0000
  C   C136      1.0  0.71327  0.72283  0.70439  1.0000
  N   N1        1.0  0.5284100000000003  0.89232  0.64321  1.0000
  N   N2        1.0  0.003050000000000006  0.40746  0.61011  1.0000
  N   N3        1.0  0.97069  0.10717  0.14333  1.0000
  N   N4        1.0  0.49777  0.59263  0.11036  1.0000
  N   N5        1.0  0.47158  0.10768  0.35679  1.0000
  N   N6        1.0  0.99695  0.59254  0.38989000000000007  1.0000
  N   N7        1.0  0.02931000000000005  0.89283  0.85667  1.0000
  N   N8        1.0  0.50223  0.40736  0.88964  1.0000
  O   O1        1.0  0.78393  0.92191  0.60608  1.0000
  O   O2        1.0  0.90818  0.8467  0.58125  1.0000
  O   O3        1.0  0.94442  0.22281  0.57172  1.0000
  O   O4        1.0  0.12575  0.26866  0.53126  1.0000
  O   O5        1.0  0.7371800000000001  0.60657  0.56456  1.0000
  O   O6        1.0  0.78823  0.5431  0.48141  1.0000
  O   O7        1.0  0.33924  0.24161000000000002  0.456  1.0000
  O   O8        1.0  0.51995  0.28127  0.41594999999999993  1.0000
  O   O9        1.0  0.040039999999999985  0.62069  0.53423  1.0000
  O   O10       1.0  0.9848  0.71024  0.59619  1.0000
  O   O11       1.0  0.15474999999999997  0.77398  0.8003800000000001  1.0000
  O   O12       1.0  0.28051  0.70653  0.83746  1.0000
  O   O13       1.0  0.71409  0.07528  0.10623  1.0000
  O   O14       1.0  0.59376  0.15304  0.08128  1.0000
  O   O15       1.0  0.55351  0.77697  0.07174  1.0000
  O   O16       1.0  0.37244000000000005  0.73079  0.0314  1.0000
  O   O17       1.0  0.76019  0.39384  0.06298  1.0000
  O   O18       1.0  0.71416  0.45675  0.9784499999999999  1.0000
  O   O19       1.0  0.16130000000000003  0.75928  0.95592  1.0000
  O   O20       1.0  0.9814300000000001  0.71889  0.91551  1.0000
  O   O21       1.0  0.46311  0.38313  0.0344  1.0000
  O   O22       1.0  0.51392  0.28933  0.09364  1.0000
  O   O23       1.0  0.34835  0.22639  0.2999  1.0000
  O   O24       1.0  0.22239  0.29343  0.3373  1.0000
  O   O25       1.0  0.21607  0.07809  0.39392  1.0000
  O   O26       1.0  0.09182  0.15329  0.41875  1.0000
  O   O27       1.0  0.05558  0.77719  0.42828  1.0000
  O   O28       1.0  0.87424  0.73134  0.46874  1.0000
  O   O29       1.0  0.26282  0.39342  0.43544  1.0000
  O   O30       1.0  0.21177  0.45689  0.51859  1.0000
  O   O31       1.0  0.66076  0.75839  0.544  1.0000
  O   O32       1.0  0.48005  0.71873  0.58405  1.0000
  O   O33       1.0  0.95996  0.37931  0.46577999999999997  1.0000
  O   O34       1.0  0.015199999999999993  0.28976  0.40380999999999995  1.0000
  O   O35       1.0  0.84525  0.22602  0.19962  1.0000
  O   O36       1.0  0.7194899999999999  0.29347  0.16254  1.0000
  O   O37       1.0  0.28591  0.92472  0.89377  1.0000
  O   O38       1.0  0.40623  0.84696  0.91872  1.0000
  O   O39       1.0  0.44648999999999994  0.22302  0.9282600000000001  1.0000
  O   O40       1.0  0.62756  0.26921  0.9686  1.0000
  O   O41       1.0  0.23981000000000002  0.60616  0.93702  1.0000
  O   O42       1.0  0.28584  0.54324  0.02155  1.0000
  O   O43       1.0  0.8387  0.24072  0.04408  1.0000
  O   O44       1.0  0.018570000000000007  0.28111  0.08449  1.0000
  O   O45       1.0  0.53689  0.61686  0.9656  1.0000
  O   O46       1.0  0.48608000000000007  0.71066  0.90636  1.0000
  O   O47       1.0  0.65165  0.77361  0.7001  1.0000
  O   O48       1.0  0.7776100000000001  0.70656  0.6627  1.0000
