data_image0
_chemical_formula_structural       Mn6In6H114C216O54
_chemical_formula_sum              "Mn6 In6 H114 C216 O54"
_cell_length_a       22.42583
_cell_length_b       22.43207
_cell_length_c       22.43706
_cell_angle_alpha    107.86641
_cell_angle_beta     107.78963
_cell_angle_gamma    107.61733

_space_group_name_H-M_alt    "P 1"
_space_group_IT_number       1

loop_
  _space_group_symop_operation_xyz
  'x, y, z'

loop_
  _atom_site_type_symbol
  _atom_site_label
  _atom_site_symmetry_multiplicity
  _atom_site_fract_x
  _atom_site_fract_y
  _atom_site_fract_z
  _atom_site_occupancy
  Mn  Mn1       1.0  0.51516  0.038940000000000016  0.46193000000000006  1.0000
  Mn  Mn2       1.0  0.03842000000000005  0.46123  0.5145300000000002  1.0000
  Mn  Mn3       1.0  0.46176  0.51522  0.03888  1.0000
  Mn  Mn4       1.0  0.48482  0.9610399999999999  0.5380600000000001  1.0000
  Mn  Mn5       1.0  0.9615699999999999  0.53877  0.4854700000000001  1.0000
  Mn  Mn6       1.0  0.53822  0.48476000000000014  0.9611000000000001  1.0000
  In  In1       1.0  0.55325  0.13422  0.64002  1.0000
  In  In2       1.0  0.1342399999999999  0.6395899999999999  0.55339  1.0000
  In  In3       1.0  0.6397999999999999  0.55298  0.13405  1.0000
  In  In4       1.0  0.44675999999999977  0.8657799999999998  0.3599700000000001  1.0000
  In  In5       1.0  0.86574  0.3604  0.44661  1.0000
  In  In6       1.0  0.36017999999999994  0.4470199999999999  0.86595  1.0000
  H   H1        1.0  0.47954999999999987  0.2777  0.36688  1.0000
  H   H2        1.0  0.9089299999999999  0.2932699999999999  0.86717  1.0000
  H   H3        1.0  0.8983699999999999  0.42222  0.06123  1.0000
  H   H4        1.0  0.29926  0.48606999999999995  0.10352000000000001  1.0000
  H   H5        1.0  0.9971899999999999  0.38920999999999994  0.9257700000000002  1.0000
  H   H6        1.0  0.11377  0.58888  0.22624000000000002  1.0000
  H   H7        1.0  0.48194000000000004  0.37694999999999995  0.5654800000000001  1.0000
  H   H8        1.0  0.08094000000000007  0.44497  0.9175  1.0000
  H   H9        1.0  0.12174999999999998  0.51142  0.14654  1.0000
  H   H10       1.0  0.19607999999999998  0.47618  0.12641  1.0000
  H   H11       1.0  0.18347000000000002  0.45247999999999994  0.8950300000000001  1.0000
  H   H12       1.0  0.51599  0.19483000000000006  0.4051700000000001  1.0000
  H   H13       1.0  0.52257  0.29721  0.60472  1.0000
  H   H14       1.0  0.70058  0.32981  0.8635700000000001  1.0000
  H   H15       1.0  0.12909999999999996  0.6262399999999999  0.34837000000000007  1.0000
  H   H16       1.0  0.9204999999999998  0.4132399999999999  0.15862  1.0000
  H   H17       1.0  0.8149899999999998  0.4079600000000001  0.9660200000000001  1.0000
  H   H18       1.0  0.79432  0.21640000000000004  0.7649100000000001  1.0000
  H   H19       1.0  0.93247  0.4559599999999999  0.27974  1.0000
  H   H20       1.0  0.28216999999999987  0.3691199999999999  0.48066  1.0000
  H   H21       1.0  0.29338  0.86749  0.9089400000000001  1.0000
  H   H22       1.0  0.42186  0.06107000000000008  0.89836  1.0000
  H   H23       1.0  0.4864799999999999  0.10427999999999998  0.29946  1.0000
  H   H24       1.0  0.38941999999999993  0.9260399999999999  0.9973600000000002  1.0000
  H   H25       1.0  0.58888  0.22596999999999998  0.11392  1.0000
  H   H26       1.0  0.37704999999999994  0.56869  0.484  1.0000
  H   H27       1.0  0.44569  0.91796  0.08129  1.0000
  H   H28       1.0  0.51146  0.14664  0.12192  1.0000
  H   H29       1.0  0.4765699999999999  0.12687999999999997  0.19621000000000002  1.0000
  H   H30       1.0  0.45257999999999987  0.8953999999999999  0.18362  1.0000
  H   H31       1.0  0.19810999999999998  0.4046400000000001  0.5169800000000001  1.0000
  H   H32       1.0  0.29616  0.6056  0.52513  1.0000
  H   H33       1.0  0.32971  0.8633  0.70055  1.0000
  H   H34       1.0  0.6263999999999998  0.34789999999999993  0.129  1.0000
  H   H35       1.0  0.413  0.1585499999999999  0.92051  1.0000
  H   H36       1.0  0.40762  0.9658899999999999  0.8150000000000002  1.0000
  H   H37       1.0  0.21655999999999992  0.7651799999999999  0.79423  1.0000
  H   H38       1.0  0.45589999999999997  0.27938999999999997  0.93214  1.0000
  H   H39       1.0  0.36776999999999993  0.47915  0.27856000000000003  1.0000
  H   H40       1.0  0.8669  0.9086899999999998  0.29318  1.0000
  H   H41       1.0  0.06110000000000004  0.89802  0.42197000000000007  1.0000
  H   H42       1.0  0.10324  0.2989299999999999  0.48609  1.0000
  H   H43       1.0  0.9256799999999998  0.99716  0.38923000000000013  1.0000
  H   H44       1.0  0.22574  0.11374999999999999  0.58899  1.0000
  H   H45       1.0  0.5675  0.48376  0.37725  1.0000
  H   H46       1.0  0.91766  0.08121000000000003  0.44565000000000005  1.0000
  H   H47       1.0  0.14621000000000003  0.12146000000000007  0.5113700000000001  1.0000
  H   H48       1.0  0.12617  0.19564999999999994  0.47633000000000003  1.0000
  H   H49       1.0  0.89486  0.18354  0.45260000000000006  1.0000
  H   H50       1.0  0.40531  0.51653  0.19609  1.0000
  H   H51       1.0  0.6057799999999999  0.5247599999999999  0.29738  1.0000
  H   H52       1.0  0.86292  0.70047  0.32959  1.0000
  H   H53       1.0  0.34786  0.12908000000000003  0.6264600000000001  1.0000
  H   H54       1.0  0.15872999999999995  0.9202999999999998  0.41299000000000013  1.0000
  H   H55       1.0  0.96567  0.81464  0.4074600000000001  1.0000
  H   H56       1.0  0.76441  0.7943499999999999  0.21671000000000004  1.0000
  H   H57       1.0  0.27985999999999994  0.9323199999999998  0.45587  1.0000
  H   H58       1.0  0.5204199999999999  0.7222899999999999  0.63312  1.0000
  H   H59       1.0  0.09105999999999996  0.7067299999999999  0.13283000000000006  1.0000
  H   H60       1.0  0.10162999999999997  0.57779  0.93877  1.0000
  H   H61       1.0  0.7007199999999998  0.5139399999999998  0.8964400000000001  1.0000
  H   H62       1.0  0.0027999999999999653  0.6107799999999999  0.07423  1.0000
  H   H63       1.0  0.8862099999999999  0.4111099999999999  0.77376  1.0000
  H   H64       1.0  0.5180899999999999  0.62307  0.43452  1.0000
  H   H65       1.0  0.9190599999999999  0.55507  0.08251  1.0000
  H   H66       1.0  0.8782399999999999  0.48857000000000006  0.85347  1.0000
  H   H67       1.0  0.80392  0.5238299999999999  0.87358  1.0000
  H   H68       1.0  0.81651  0.5475399999999999  0.10497  1.0000
  H   H69       1.0  0.48397999999999997  0.8051700000000002  0.5948300000000002  1.0000
  H   H70       1.0  0.4774299999999999  0.70279  0.39526  1.0000
  H   H71       1.0  0.29942  0.67019  0.13644  1.0000
  H   H72       1.0  0.8708899999999998  0.37375999999999987  0.65163  1.0000
  H   H73       1.0  0.07948000000000006  0.5867500000000001  0.8413800000000001  1.0000
  H   H74       1.0  0.18501  0.59205  0.03398  1.0000
  H   H75       1.0  0.20566999999999994  0.7835899999999999  0.23509000000000002  1.0000
  H   H76       1.0  0.06752000000000001  0.54404  0.72026  1.0000
  H   H77       1.0  0.71781  0.6308799999999998  0.51932  1.0000
  H   H78       1.0  0.7066299999999999  0.13250999999999996  0.09107000000000003  1.0000
  H   H79       1.0  0.5781499999999999  0.93893  0.10165  1.0000
  H   H80       1.0  0.51352  0.89571  0.70055  1.0000
  H   H81       1.0  0.61057  0.07397  0.002640000000000001  1.0000
  H   H82       1.0  0.41110999999999986  0.77404  0.8860900000000002  1.0000
  H   H83       1.0  0.6229599999999998  0.4313099999999999  0.51605  1.0000
  H   H84       1.0  0.5543099999999999  0.08204999999999994  0.9187  1.0000
  H   H85       1.0  0.48853999999999986  0.85337  0.87809  1.0000
  H   H86       1.0  0.52343  0.87312  0.8038  1.0000
  H   H87       1.0  0.54742  0.10459000000000002  0.81636  1.0000
  H   H88       1.0  0.8018699999999997  0.5953500000000002  0.48299  1.0000
  H   H89       1.0  0.7038399999999999  0.39438  0.47489  1.0000
  H   H90       1.0  0.67028  0.13671  0.29945  1.0000
  H   H91       1.0  0.37358  0.6521  0.87101  1.0000
  H   H92       1.0  0.5869899999999999  0.8414499999999998  0.0795  1.0000
  H   H93       1.0  0.5923799999999999  0.03411999999999999  0.185  1.0000
  H   H94       1.0  0.78345  0.23481999999999995  0.20578  1.0000
  H   H95       1.0  0.54409  0.7206099999999999  0.06787  1.0000
  H   H96       1.0  0.6321899999999999  0.5207999999999999  0.7214300000000002  1.0000
  H   H97       1.0  0.13307999999999995  0.09132  0.70681  1.0000
  H   H98       1.0  0.93889  0.10197999999999999  0.57803  1.0000
  H   H99       1.0  0.89673  0.70107  0.5139100000000001  1.0000
  H   H100      1.0  0.07433  0.0028500000000000014  0.61077  1.0000
  H   H101      1.0  0.77426  0.8862499999999999  0.4110100000000001  1.0000
  H   H102      1.0  0.43249999999999994  0.51631  0.6227700000000002  1.0000
  H   H103      1.0  0.08233999999999994  0.9187799999999999  0.55435  1.0000
  H   H104      1.0  0.8537999999999999  0.87854  0.48863  1.0000
  H   H105      1.0  0.8738299999999998  0.8043599999999999  0.5236700000000002  1.0000
  H   H106      1.0  0.10513  0.8164399999999999  0.5473900000000002  1.0000
  H   H107      1.0  0.5946300000000001  0.4834000000000001  0.8039000000000001  1.0000
  H   H108      1.0  0.39416000000000007  0.47528000000000004  0.7026100000000001  1.0000
  H   H109      1.0  0.13702999999999999  0.29954  0.6704  1.0000
  H   H110      1.0  0.6521399999999999  0.87092  0.37353000000000003  1.0000
  H   H111      1.0  0.8412800000000001  0.0797  0.5870000000000001  1.0000
  H   H112      1.0  0.034309999999999945  0.1853499999999999  0.59252  1.0000
  H   H113      1.0  0.23556  0.20568  0.78331  1.0000
  H   H114      1.0  0.7201499999999997  0.06769000000000007  0.5441300000000001  1.0000
  C   C1        1.0  0.48873999999999995  0.28128  0.41864  1.0000
  C   C2        1.0  0.8639299999999999  0.30254000000000003  0.8665100000000001  1.0000
  C   C3        1.0  0.87095  0.35669  0.92464  1.0000
  C   C4        1.0  0.9453399999999998  0.43088999999999994  0.05361000000000001  1.0000
  C   C5        1.0  0.25108  0.47686  0.06313000000000002  1.0000
  C   C6        1.0  0.0009600000000000085  0.4122099999999999  0.9777600000000001  1.0000
  C   C7        1.0  0.9395999999999999  0.40114999999999995  0.9859900000000001  1.0000
  C   C8        1.0  0.07476999999999999  0.55847  0.23782000000000003  1.0000
  C   C9        1.0  0.016460000000000002  0.49761999999999995  0.18341000000000005  1.0000
  C   C10       1.0  0.010690000000000019  0.47046  0.11186000000000001  1.0000
  C   C11       1.0  0.48965999999999993  0.3370699999999999  0.53076  1.0000
  C   C12       1.0  0.12797000000000003  0.45266  0.95828  1.0000
  C   C13       1.0  0.67208  0.22075000000000003  0.7469800000000001  1.0000
  C   C14       1.0  0.07109999999999993  0.4808999999999999  0.10161000000000002  1.0000
  C   C15       1.0  0.13003999999999996  0.45902999999999994  0.023440000000000006  1.0000
  C   C16       1.0  0.06707  0.45141999999999993  0.03479  1.0000
  C   C17       1.0  0.19293999999999994  0.4716399999999999  0.07572  1.0000
  C   C18       1.0  0.5403999999999999  0.19143999999999997  0.52995  1.0000
  C   C19       1.0  0.18559999999999996  0.45759  0.9454800000000001  1.0000
  C   C20       1.0  0.24791  0.46951999999999994  0.99767  1.0000
  C   C21       1.0  0.3077499999999999  0.4733199999999999  0.98064  1.0000
  C   C22       1.0  0.50939  0.23567999999999997  0.4398600000000001  1.0000
  C   C23       1.0  0.4521999999999999  0.37745000000000006  0.44119000000000014  1.0000
  C   C24       1.0  0.5123499999999998  0.29298  0.55268  1.0000
  C   C25       1.0  0.40994  0.40397  0.46023  1.0000
  C   C26       1.0  0.4773799999999999  0.3312999999999999  0.46353  1.0000
  C   C27       1.0  0.52128  0.2413  0.50693  1.0000
  C   C28       1.0  0.03189000000000007  0.54312  0.3215300000000001  1.0000
  C   C29       1.0  0.7404100000000002  0.26844000000000007  0.8078100000000003  1.0000
  C   C30       1.0  0.7466600000000001  0.3224800000000001  0.8649700000000002  1.0000
  C   C31       1.0  0.08314999999999995  0.5802299999999999  0.30623  1.0000
  C   C32       1.0  0.9651399999999998  0.46125999999999995  0.19946  1.0000
  C   C33       1.0  0.8110400000000003  0.3658199999999999  0.9226400000000001  1.0000
  C   C34       1.0  0.79976  0.25894  0.80904  1.0000
  C   C35       1.0  0.97196  0.48434  0.26736000000000004  1.0000
  C   C36       1.0  0.04159999999999999  0.56439  0.3949  1.0000
  C   C37       1.0  0.28496999999999995  0.42074  0.49046000000000006  1.0000
  C   C38       1.0  0.3025799999999999  0.86671  0.86392  1.0000
  C   C39       1.0  0.3565999999999999  0.9247099999999999  0.87096  1.0000
  C   C40       1.0  0.43067000000000016  0.05356000000000008  0.94539  1.0000
  C   C41       1.0  0.4772799999999999  0.06375000000000006  0.25133000000000005  1.0000
  C   C42       1.0  0.41235999999999995  0.9779399999999998  0.00111  1.0000
  C   C43       1.0  0.40108  0.98605  0.9396700000000001  1.0000
  C   C44       1.0  0.5584599999999998  0.23754999999999996  0.07482  1.0000
  C   C45       1.0  0.49751999999999996  0.18323999999999996  0.01652  1.0000
  C   C46       1.0  0.47035999999999994  0.11181  0.01079  1.0000
  C   C47       1.0  0.3382  0.5336  0.49222000000000005  1.0000
  C   C48       1.0  0.4531199999999999  0.95869  0.12828000000000003  1.0000
  C   C49       1.0  0.22103999999999988  0.7467799999999998  0.67211  1.0000
  C   C50       1.0  0.48094  0.10168  0.07125  1.0000
  C   C51       1.0  0.45935999999999994  0.023780000000000013  0.13028000000000003  1.0000
  C   C52       1.0  0.45158999999999994  0.03497000000000001  0.06725000000000003  1.0000
  C   C53       1.0  0.472  0.07620999999999999  0.19316000000000003  1.0000
  C   C54       1.0  0.19061999999999998  0.52794  0.54057  1.0000
  C   C55       1.0  0.45791  0.94595  0.1859  1.0000
  C   C56       1.0  0.4698199999999999  0.99828  0.2482  1.0000
  C   C57       1.0  0.47318999999999994  0.98132  0.30801  1.0000
  C   C58       1.0  0.23839000000000005  0.4403500000000001  0.5108500000000002  1.0000
  C   C59       1.0  0.37928  0.44643  0.45096  1.0000
  C   C60       1.0  0.29327999999999993  0.55395  0.51477  1.0000
  C   C61       1.0  0.4012  0.46934  0.40648000000000006  1.0000
  C   C62       1.0  0.33394999999999997  0.46676  0.4792700000000001  1.0000
  C   C63       1.0  0.2421599999999999  0.5068799999999999  0.5228800000000001  1.0000
  C   C64       1.0  0.54319  0.32114  0.03165  1.0000
  C   C65       1.0  0.26857  0.8077700000000001  0.7404000000000002  1.0000
  C   C66       1.0  0.32243  0.8648099999999999  0.7466400000000002  1.0000
  C   C67       1.0  0.5802999999999998  0.30585  0.08306000000000001  1.0000
  C   C68       1.0  0.46112  0.1992799999999999  0.96509  1.0000
  C   C69       1.0  0.36562999999999996  0.92256  0.8110300000000001  1.0000
  C   C70       1.0  0.2590299999999999  0.8091999999999999  0.7997300000000003  1.0000
  C   C71       1.0  0.48429  0.26706  0.9717600000000001  1.0000
  C   C72       1.0  0.56454  0.39445  0.0413  1.0000
  C   C73       1.0  0.4197399999999999  0.4891599999999999  0.28234000000000004  1.0000
  C   C74       1.0  0.8662  0.8637799999999998  0.30253  1.0000
  C   C75       1.0  0.9244  0.8707599999999999  0.35652  1.0000
  C   C76       1.0  0.053440000000000036  0.9450300000000001  0.43065  1.0000
  C   C77       1.0  0.06289  0.25084  0.4769000000000001  1.0000
  C   C78       1.0  0.97762  0.0008099999999999991  0.41217  1.0000
  C   C79       1.0  0.98583  0.9393499999999998  0.40096  1.0000
  C   C80       1.0  0.2374300000000001  0.0746800000000001  0.5585500000000002  1.0000
  C   C81       1.0  0.18319  0.01626  0.49759  1.0000
  C   C82       1.0  0.11162000000000001  0.010390000000000014  0.4703300000000001  1.0000
  C   C83       1.0  0.5325099999999998  0.4915199999999999  0.33771  1.0000
  C   C84       1.0  0.9582299999999998  0.12807000000000002  0.45303  1.0000
  C   C85       1.0  0.7465899999999998  0.67197  0.22081000000000003  1.0000
  C   C86       1.0  0.10133000000000003  0.07083000000000003  0.48084000000000005  1.0000
  C   C87       1.0  0.023279999999999985  0.12994999999999998  0.45921  1.0000
  C   C88       1.0  0.034569999999999976  0.06688000000000001  0.45143000000000005  1.0000
  C   C89       1.0  0.07551999999999999  0.19269  0.47177  1.0000
  C   C90       1.0  0.5295299999999998  0.5412099999999999  0.19137  1.0000
  C   C91       1.0  0.9453299999999998  0.18564999999999995  0.45776  1.0000
  C   C92       1.0  0.9974099999999999  0.24775  0.46945  1.0000
  C   C93       1.0  0.9801499999999997  0.3074099999999999  0.47275  1.0000
  C   C94       1.0  0.44045  0.51016  0.2367  1.0000
  C   C95       1.0  0.44368  0.4509899999999999  0.37808  1.0000
  C   C96       1.0  0.5537999999999997  0.5142299999999999  0.29342000000000007  1.0000
  C   C97       1.0  0.46674999999999983  0.40537999999999996  0.39681  1.0000
  C   C98       1.0  0.46518  0.4781599999999999  0.33223  1.0000
  C   C99       1.0  0.50745  0.52266  0.24183000000000004  1.0000
  C   C100      1.0  0.32131  0.03175999999999999  0.54321  1.0000
  C   C101      1.0  0.8073  0.7403800000000001  0.2685100000000001  1.0000
  C   C102      1.0  0.8644699999999998  0.74658  0.32236000000000004  1.0000
  C   C103      1.0  0.30584999999999996  0.08307999999999999  0.58037  1.0000
  C   C104      1.0  0.19940999999999998  0.96493  0.46114  1.0000
  C   C105      1.0  0.9222599999999997  0.81084  0.3655500000000001  1.0000
  C   C106      1.0  0.8085800000000002  0.7997099999999999  0.2590700000000001  1.0000
  C   C107      1.0  0.26732  0.9718000000000001  0.48429000000000005  1.0000
  C   C108      1.0  0.39463  0.04134999999999999  0.5645100000000001  1.0000
  C   C109      1.0  0.51125  0.7187099999999998  0.58136  1.0000
  C   C110      1.0  0.13605999999999988  0.6974499999999999  0.13349  1.0000
  C   C111      1.0  0.12904999999999991  0.6432999999999999  0.07536  1.0000
  C   C112      1.0  0.05465999999999996  0.5691199999999998  0.94639  1.0000
  C   C113      1.0  0.7488899999999998  0.5231400000000002  0.9368500000000001  1.0000
  C   C114      1.0  0.99903  0.58779  0.022240000000000006  1.0000
  C   C115      1.0  0.060390000000000006  0.59885  0.014010000000000002  1.0000
  C   C116      1.0  0.9252099999999998  0.44151999999999997  0.7621800000000001  1.0000
  C   C117      1.0  0.9835199999999998  0.50238  0.8165900000000003  1.0000
  C   C118      1.0  0.9892999999999998  0.52953  0.88815  1.0000
  C   C119      1.0  0.5103599999999999  0.66293  0.46924  1.0000
  C   C120      1.0  0.87202  0.54736  0.04172  1.0000
  C   C121      1.0  0.32792  0.77924  0.25302  1.0000
  C   C122      1.0  0.9289  0.5191  0.8984000000000001  1.0000
  C   C123      1.0  0.8699399999999999  0.54097  0.9765600000000001  1.0000
  C   C124      1.0  0.93292  0.54858  0.9652200000000002  1.0000
  C   C125      1.0  0.8070400000000001  0.5283600000000002  0.9242600000000001  1.0000
  C   C126      1.0  0.4595999999999999  0.8085399999999998  0.4700400000000001  1.0000
  C   C127      1.0  0.8143799999999998  0.54242  0.054520000000000006  1.0000
  C   C128      1.0  0.7520699999999999  0.53048  0.00232  1.0000
  C   C129      1.0  0.69224  0.52668  0.019360000000000006  1.0000
  C   C130      1.0  0.4906  0.76432  0.56014  1.0000
  C   C131      1.0  0.5478199999999998  0.6225599999999998  0.55882  1.0000
  C   C132      1.0  0.4876599999999998  0.7070099999999998  0.44731000000000004  1.0000
  C   C133      1.0  0.59007  0.5960299999999998  0.53979  1.0000
  C   C134      1.0  0.52263  0.66871  0.53647  1.0000
  C   C135      1.0  0.47872  0.75869  0.49306  1.0000
  C   C136      1.0  0.9680999999999998  0.4568800000000001  0.6784700000000001  1.0000
  C   C137      1.0  0.25958  0.73155  0.19220000000000007  1.0000
  C   C138      1.0  0.25333999999999995  0.6775299999999999  0.13504  1.0000
  C   C139      1.0  0.91683  0.41977000000000003  0.6937700000000002  1.0000
  C   C140      1.0  0.03484999999999999  0.53874  0.80055  1.0000
  C   C141      1.0  0.18896  0.63418  0.07737  1.0000
  C   C142      1.0  0.20022999999999996  0.74106  0.19096000000000002  1.0000
  C   C143      1.0  0.028029999999999968  0.5156599999999999  0.73264  1.0000
  C   C144      1.0  0.9583799999999998  0.43562  0.6051100000000001  1.0000
  C   C145      1.0  0.71501  0.57925  0.50954  1.0000
  C   C146      1.0  0.6974200000000002  0.13329  0.13608000000000003  1.0000
  C   C147      1.0  0.6434  0.07528999999999998  0.12904  1.0000
  C   C148      1.0  0.5693299999999999  0.9464399999999998  0.05462000000000001  1.0000
  C   C149      1.0  0.52272  0.9362399999999999  0.7486700000000002  1.0000
  C   C150      1.0  0.5876399999999999  0.02207000000000005  0.9989000000000001  1.0000
  C   C151      1.0  0.5989199999999999  0.01395  0.06033  1.0000
  C   C152      1.0  0.4415299999999999  0.7624499999999997  0.92518  1.0000
  C   C153      1.0  0.5024799999999999  0.8167599999999999  0.9834800000000001  1.0000
  C   C154      1.0  0.5296399999999999  0.8881899999999999  0.98921  1.0000
  C   C155      1.0  0.6617999999999998  0.46638999999999997  0.50781  1.0000
  C   C156      1.0  0.54688  0.04130999999999999  0.87172  1.0000
  C   C157      1.0  0.7789599999999999  0.25322  0.32789  1.0000
  C   C158      1.0  0.5190500000000001  0.8983300000000001  0.9287500000000002  1.0000
  C   C159      1.0  0.54064  0.97622  0.86972  1.0000
  C   C160      1.0  0.54841  0.9650299999999998  0.93275  1.0000
  C   C161      1.0  0.5279999999999999  0.9237899999999998  0.80685  1.0000
  C   C162      1.0  0.8093700000000001  0.47205  0.45943000000000006  1.0000
  C   C163      1.0  0.54208  0.054049999999999966  0.8141  1.0000
  C   C164      1.0  0.53017  0.0017100000000000257  0.7518  1.0000
  C   C165      1.0  0.5268100000000001  0.01867000000000006  0.6919900000000001  1.0000
  C   C166      1.0  0.7615899999999998  0.5596399999999999  0.4891400000000001  1.0000
  C   C167      1.0  0.6207399999999998  0.55358  0.54907  1.0000
  C   C168      1.0  0.70671  0.44604  0.48525  1.0000
  C   C169      1.0  0.5988  0.53065  0.59354  1.0000
  C   C170      1.0  0.66605  0.53324  0.52074  1.0000
  C   C171      1.0  0.75783  0.49312  0.47713000000000005  1.0000
  C   C172      1.0  0.4567999999999999  0.6788599999999999  0.9683500000000002  1.0000
  C   C173      1.0  0.73143  0.19222999999999996  0.25961  1.0000
  C   C174      1.0  0.67757  0.1352  0.25337  1.0000
  C   C175      1.0  0.4196799999999999  0.69415  0.91694  1.0000
  C   C176      1.0  0.5388799999999999  0.8007199999999998  0.03491  1.0000
  C   C177      1.0  0.63437  0.07744000000000001  0.18897000000000005  1.0000
  C   C178      1.0  0.7409700000000001  0.1908  0.20028000000000007  1.0000
  C   C179      1.0  0.5157099999999999  0.73295  0.028250000000000004  1.0000
  C   C180      1.0  0.43546999999999997  0.60556  0.95871  1.0000
  C   C181      1.0  0.58023  0.51081  0.7176500000000001  1.0000
  C   C182      1.0  0.13378999999999996  0.13624  0.69747  1.0000
  C   C183      1.0  0.07559  0.12925  0.64347  1.0000
  C   C184      1.0  0.94655  0.05496999999999997  0.5693500000000001  1.0000
  C   C185      1.0  0.93709  0.74915  0.5231  1.0000
  C   C186      1.0  0.022390000000000028  0.9992  0.58783  1.0000
  C   C187      1.0  0.014160000000000028  0.06065000000000004  0.5990400000000001  1.0000
  C   C188      1.0  0.76256  0.92532  0.44144  1.0000
  C   C189      1.0  0.8168099999999999  0.9837400000000001  0.5024000000000001  1.0000
  C   C190      1.0  0.88838  0.9896  0.52967  1.0000
  C   C191      1.0  0.46748999999999996  0.50852  0.66229  1.0000
  C   C192      1.0  0.041769999999999946  0.8719199999999999  0.54697  1.0000
  C   C193      1.0  0.25337  0.32803999999999994  0.77919  1.0000
  C   C194      1.0  0.8986699999999999  0.9291699999999999  0.51916  1.0000
  C   C195      1.0  0.9767199999999999  0.87006  0.5407900000000001  1.0000
  C   C196      1.0  0.9654299999999999  0.93313  0.54857  1.0000
  C   C197      1.0  0.9244800000000001  0.8073100000000001  0.5282400000000002  1.0000
  C   C198      1.0  0.4704299999999999  0.45877999999999997  0.8086  1.0000
  C   C199      1.0  0.05465999999999997  0.8143399999999997  0.54224  1.0000
  C   C200      1.0  0.002580000000000008  0.75224  0.53055  1.0000
  C   C201      1.0  0.01984000000000006  0.6925900000000001  0.5272600000000001  1.0000
  C   C202      1.0  0.5595199999999999  0.4898099999999999  0.76328  1.0000
  C   C203      1.0  0.5563399999999997  0.54904  0.62195  1.0000
  C   C204      1.0  0.44615999999999995  0.4858  0.7065700000000001  1.0000
  C   C205      1.0  0.53326  0.5946499999999999  0.60321  1.0000
  C   C206      1.0  0.53481  0.52186  0.66777  1.0000
  C   C207      1.0  0.49250999999999984  0.4773300000000001  0.7581300000000001  1.0000
  C   C208      1.0  0.6786899999999999  0.9682500000000002  0.45679  1.0000
  C   C209      1.0  0.19266  0.25964  0.7315  1.0000
  C   C210      1.0  0.13548999999999997  0.25343999999999994  0.67764  1.0000
  C   C211      1.0  0.6941499999999998  0.9169099999999999  0.41963  1.0000
  C   C212      1.0  0.80059  0.03506999999999999  0.53885  1.0000
  C   C213      1.0  0.07772  0.18916999999999998  0.6344400000000001  1.0000
  C   C214      1.0  0.19138000000000005  0.20031000000000004  0.7409400000000003  1.0000
  C   C215      1.0  0.73268  0.028200000000000003  0.51571  1.0000
  C   C216      1.0  0.60537  0.9586499999999999  0.43549000000000004  1.0000
  O   O1        1.0  0.53299  0.13605999999999996  0.48280000000000006  1.0000
  O   O2        1.0  0.36370999999999976  0.47982999999999987  0.026340000000000002  1.0000
  O   O3        1.0  0.6678000000000001  0.16963  0.6971000000000002  1.0000
  O   O4        1.0  0.6174500000000002  0.2297800000000001  0.7439200000000001  1.0000
  O   O5        1.0  0.2982199999999999  0.4692299999999999  0.92026  1.0000
  O   O6        1.0  0.5621900000000001  0.20768000000000003  0.5948300000000002  1.0000
  O   O7        1.0  0.54495  0.050820000000000004  0.55439  1.0000
  O   O8        1.0  0.9875099999999999  0.5496399999999999  0.4054  1.0000
  O   O9        1.0  0.10540999999999999  0.5957899999999999  0.44194000000000006  1.0000
  O   O10       1.0  0.13456999999999997  0.47948999999999997  0.53002  1.0000
  O   O11       1.0  0.48035  0.027360000000000016  0.36418000000000006  1.0000
  O   O12       1.0  0.16926000000000005  0.69779  0.66772  1.0000
  O   O13       1.0  0.2308399999999999  0.7427199999999999  0.61773  1.0000
  O   O14       1.0  0.4679799999999999  0.92056  0.2982  1.0000
  O   O15       1.0  0.20609  0.5926799999999999  0.56395  1.0000
  O   O16       1.0  0.05118999999999993  0.5540199999999998  0.54503  1.0000
  O   O17       1.0  0.5498599999999999  0.40491999999999995  0.98716  1.0000
  O   O18       1.0  0.59591  0.4415  0.10512000000000002  1.0000
  O   O19       1.0  0.48188999999999993  0.53317  0.13599000000000003  1.0000
  O   O20       1.0  0.02575999999999999  0.36321  0.47917  1.0000
  O   O21       1.0  0.6966299999999997  0.66759  0.16977000000000003  1.0000
  O   O22       1.0  0.74386  0.6174199999999999  0.22970000000000002  1.0000
  O   O23       1.0  0.9197099999999999  0.29797  0.46832  1.0000
  O   O24       1.0  0.5942499999999998  0.5629400000000001  0.20691000000000004  1.0000
  O   O25       1.0  0.55424  0.5449599999999999  0.050870000000000005  1.0000
  O   O26       1.0  0.4051  0.98714  0.54953  1.0000
  O   O27       1.0  0.44167  0.10507000000000007  0.5960800000000003  1.0000
  O   O28       1.0  0.467  0.86393  0.51718  1.0000
  O   O29       1.0  0.6362800000000001  0.5201499999999999  0.9736500000000002  1.0000
  O   O30       1.0  0.3322  0.8303699999999999  0.30290000000000006  1.0000
  O   O31       1.0  0.38255  0.7702199999999999  0.25607  1.0000
  O   O32       1.0  0.7017699999999997  0.5307899999999999  0.07975  1.0000
  O   O33       1.0  0.43781  0.79232  0.40516  1.0000
  O   O34       1.0  0.4550499999999999  0.9491699999999998  0.4456  1.0000
  O   O35       1.0  0.01247  0.45037  0.59461  1.0000
  O   O36       1.0  0.8945699999999999  0.40421999999999997  0.55806  1.0000
  O   O37       1.0  0.8654199999999999  0.52049  0.46997000000000005  1.0000
  O   O38       1.0  0.5196  0.9725999999999999  0.63581  1.0000
  O   O39       1.0  0.8307300000000002  0.30222  0.33228  1.0000
  O   O40       1.0  0.7691700000000002  0.25728  0.38228000000000006  1.0000
  O   O41       1.0  0.53208  0.07944999999999999  0.70181  1.0000
  O   O42       1.0  0.79389  0.40730999999999995  0.4360200000000001  1.0000
  O   O43       1.0  0.9487899999999999  0.44597  0.45497000000000004  1.0000
  O   O44       1.0  0.45017999999999997  0.59509  0.012840000000000002  1.0000
  O   O45       1.0  0.40408  0.5585  0.8948900000000001  1.0000
  O   O46       1.0  0.5180499999999998  0.46682  0.86401  1.0000
  O   O47       1.0  0.97421  0.63679  0.52082  1.0000
  O   O48       1.0  0.30332  0.3324  0.83022  1.0000
  O   O49       1.0  0.25613  0.3826  0.77031  1.0000
  O   O50       1.0  0.08029  0.70203  0.53172  1.0000
  O   O51       1.0  0.4057199999999999  0.43704  0.79307  1.0000
  O   O52       1.0  0.44573999999999997  0.45502000000000004  0.9491200000000001  1.0000
  O   O53       1.0  0.5948999999999998  0.01285  0.45047  1.0000
  O   O54       1.0  0.5583299999999999  0.89493  0.40393  1.0000
