data_image0
_chemical_formula_structural       Zn14H72C144O52
_chemical_formula_sum              "Zn14 H72 C144 O52"
_cell_length_a       13.07157
_cell_length_b       13.05578
_cell_length_c       24.43125
_cell_angle_alpha    89.80494999999999
_cell_angle_beta     90.31721
_cell_angle_gamma    97.14384

_space_group_name_H-M_alt    "P 1"
_space_group_IT_number       1

loop_
  _space_group_symop_operation_xyz
  'x, y, z'

loop_
  _atom_site_type_symbol
  _atom_site_label
  _atom_site_symmetry_multiplicity
  _atom_site_fract_x
  _atom_site_fract_y
  _atom_site_fract_z
  _atom_site_occupancy
  Zn  Zn1       1.0  0.99919  0.1547  0.6063499999999998  1.0000
  Zn  Zn2       1.0  0.5021  0.3423  0.10631999999999997  1.0000
  Zn  Zn3       1.0  0.65831  0.49888999999999994  0.89338  1.0000
  Zn  Zn4       1.0  0.84079  0.0022899999999999995  0.39356  1.0000
  Zn  Zn5       1.0  0.0025299999999999863  0.8402099999999999  0.396  1.0000
  Zn  Zn6       1.0  0.4946  0.6600399999999998  0.89359  1.0000
  Zn  Zn7       1.0  0.34075  0.50419  0.10400999999999998  1.0000
  Zn  Zn8       1.0  0.16029  0.9933  0.60409  1.0000
  Zn  Zn9       1.0  0.18393  0.17930999999999997  0.52264  1.0000
  Zn  Zn10      1.0  0.31597  0.31987999999999994  0.02288  1.0000
  Zn  Zn11      1.0  0.67943  0.6834199999999998  0.9768599999999998  1.0000
  Zn  Zn12      1.0  0.81703  0.8161  0.4767599999999999  1.0000
  Zn  Zn13      1.0  0.99797  0.00198  0.49910999999999994  1.0000
  Zn  Zn14      1.0  0.50138  0.49785  0.99868  1.0000
  H   H1        1.0  0.64901  0.9063299999999999  0.56544  1.0000
  H   H2        1.0  0.4596799999999999  0.9168299999999999  0.57151  1.0000
  H   H3        1.0  0.4302199999999999  0.282  0.56223  1.0000
  H   H4        1.0  0.55601  0.43978  0.56247  1.0000
  H   H5        1.0  0.74356  0.42836999999999986  0.56468  1.0000
  H   H6        1.0  0.80664  0.25757  0.56631  1.0000
  H   H7        1.0  0.8515  0.59356  0.06621  1.0000
  H   H8        1.0  0.04095  0.58287  0.07196999999999999  1.0000
  H   H9        1.0  0.07021000000000001  0.21816999999999998  0.06258  1.0000
  H   H10       1.0  0.94465  0.060229999999999985  0.06220999999999999  1.0000
  H   H11       1.0  0.7570699999999999  0.07157  0.06423  1.0000
  H   H12       1.0  0.69382  0.24212999999999998  0.06641999999999999  1.0000
  H   H13       1.0  0.40682  0.14927  0.93419  1.0000
  H   H14       1.0  0.41707999999999995  0.95945  0.9286799999999997  1.0000
  H   H15       1.0  0.7817599999999998  0.92982  0.93785  1.0000
  H   H16       1.0  0.93936  0.05565999999999999  0.93768  1.0000
  H   H17       1.0  0.9279699999999997  0.24354999999999996  0.9355  1.0000
  H   H18       1.0  0.75743  0.30669  0.9336199999999998  1.0000
  H   H19       1.0  0.09145  0.35062999999999994  0.43372  1.0000
  H   H20       1.0  0.08153  0.54098  0.42857  1.0000
  H   H21       1.0  0.71741  0.5715  0.43784  1.0000
  H   H22       1.0  0.55943  0.44627999999999995  0.43808999999999987  1.0000
  H   H23       1.0  0.57008  0.25838  0.4361  1.0000
  H   H24       1.0  0.74025  0.19441999999999995  0.43387  1.0000
  H   H25       1.0  0.35400999999999994  0.09156  0.4346099999999999  1.0000
  H   H26       1.0  0.54281  0.07908  0.4289199999999999  1.0000
  H   H27       1.0  0.56871  0.7135099999999999  0.43776999999999994  1.0000
  H   H28       1.0  0.4417  0.55665  0.4385  1.0000
  H   H29       1.0  0.25442  0.56995  0.43648999999999993  1.0000
  H   H30       1.0  0.19297999999999998  0.74097  0.43421999999999994  1.0000
  H   H31       1.0  0.14511  0.40947  0.9355  1.0000
  H   H32       1.0  0.9560599999999999  0.42097  0.92944  1.0000
  H   H33       1.0  0.92798  0.78532  0.93879  1.0000
  H   H34       1.0  0.05377  0.94313  0.9397399999999999  1.0000
  H   H35       1.0  0.24127999999999997  0.9315  0.93664  1.0000
  H   H36       1.0  0.30426  0.76102  0.9334499999999998  1.0000
  H   H37       1.0  0.59208  0.85548  0.06535  1.0000
  H   H38       1.0  0.57931  0.04466  0.0716  1.0000
  H   H39       1.0  0.21452  0.0701  0.06258  1.0000
  H   H40       1.0  0.05781  0.94289  0.06138  1.0000
  H   H41       1.0  0.07122  0.75531  0.06332999999999998  1.0000
  H   H42       1.0  0.24201999999999999  0.6939  0.06581  1.0000
  H   H43       1.0  0.90926  0.64368  0.56456  1.0000
  H   H44       1.0  0.9211199999999999  0.45436999999999994  0.57119  1.0000
  H   H45       1.0  0.28518  0.42728999999999995  0.56156  1.0000
  H   H46       1.0  0.4423699999999999  0.55343  0.56027  1.0000
  H   H47       1.0  0.43036  0.74135  0.56332  1.0000
  H   H48       1.0  0.25998  0.8038399999999999  0.56644  1.0000
  H   H49       1.0  0.04709  0.03697  0.79207  1.0000
  H   H50       1.0  0.089  0.08610000000000001  0.8891299999999998  1.0000
  H   H51       1.0  0.36565  0.36735  0.8775199999999997  1.0000
  H   H52       1.0  0.45934  0.45894  0.80113  1.0000
  H   H53       1.0  0.41398999999999997  0.41012  0.70404  1.0000
  H   H54       1.0  0.2762  0.26761  0.6850899999999999  1.0000
  H   H55       1.0  0.45632  0.45971999999999996  0.2918299999999999  1.0000
  H   H56       1.0  0.41203  0.41385  0.3888  1.0000
  H   H57       1.0  0.13314  0.13444  0.37732  1.0000
  H   H58       1.0  0.03996  0.04175999999999999  0.30091  1.0000
  H   H59       1.0  0.08602999999999998  0.08928  0.20384  1.0000
  H   H60       1.0  0.22518  0.23026999999999995  0.18484  1.0000
  H   H61       1.0  0.53866  0.54562  0.7062499999999999  1.0000
  H   H62       1.0  0.5864799999999998  0.5904  0.6092999999999998  1.0000
  H   H63       1.0  0.86824  0.86621  0.62204  1.0000
  H   H64       1.0  0.95925  0.9599  0.6987299999999997  1.0000
  H   H65       1.0  0.9097999999999999  0.9144499999999999  0.79559  1.0000
  H   H66       1.0  0.7686199999999999  0.77532  0.81409  1.0000
  H   H67       1.0  0.96002  0.95595  0.20802999999999996  1.0000
  H   H68       1.0  0.9135699999999999  0.9116099999999999  0.11093  1.0000
  H   H69       1.0  0.6338499999999998  0.63348  0.12223999999999997  1.0000
  H   H70       1.0  0.54182  0.53986  0.19839999999999997  1.0000
  H   H71       1.0  0.58949  0.5859199999999999  0.29557  1.0000
  H   H72       1.0  0.73032  0.7252399999999999  0.31482  1.0000
  C   C1        1.0  0.6895399999999999  0.07058  0.56703  1.0000
  C   C2        1.0  0.6198899999999999  0.98082  0.5666799999999999  1.0000
  C   C3        1.0  0.5139600000000001  0.98684  0.56955  1.0000
  C   C4        1.0  0.47457  0.08124999999999999  0.56911  1.0000
  C   C5        1.0  0.54434  0.17577  0.5665  1.0000
  C   C6        1.0  0.51201  0.27589  0.56481  1.0000
  C   C7        1.0  0.58302  0.36435  0.56471  1.0000
  C   C8        1.0  0.68933  0.35805  0.56586  1.0000
  C   C9        1.0  0.72419  0.26218  0.56613  1.0000
  C   C10       1.0  0.65383  0.16944999999999993  0.56692  1.0000
  C   C11       1.0  0.80293  0.06143999999999999  0.56776  1.0000
  C   C12       1.0  0.35917999999999994  0.07653  0.57107  1.0000
  C   C13       1.0  0.81074  0.42928  0.06771  1.0000
  C   C14       1.0  0.88046  0.51901  0.06745  1.0000
  C   C15       1.0  0.98646  0.51298  0.07004  1.0000
  C   C16       1.0  0.02578999999999999  0.41859  0.06937  1.0000
  C   C17       1.0  0.95598  0.32413999999999993  0.0668  1.0000
  C   C18       1.0  0.98842  0.22410999999999995  0.06492  1.0000
  C   C19       1.0  0.91757  0.13558  0.06462  1.0000
  C   C20       1.0  0.81127  0.14186  0.06567  1.0000
  C   C21       1.0  0.77628  0.23764999999999994  0.06628  1.0000
  C   C22       1.0  0.8464999999999999  0.33041999999999994  0.06735999999999999  1.0000
  C   C23       1.0  0.6973099999999999  0.4385399999999999  0.06852  1.0000
  C   C24       1.0  0.1412  0.4233  0.0711  1.0000
  C   C25       1.0  0.57073  0.18964999999999999  0.93192  1.0000
  C   C26       1.0  0.4810899999999999  0.11993999999999998  0.93285  1.0000
  C   C27       1.0  0.48701  0.01381  0.9304699999999999  1.0000
  C   C28       1.0  0.5813  0.97437  0.93099  1.0000
  C   C29       1.0  0.67572  0.04418  0.9334599999999997  1.0000
  C   C30       1.0  0.77568  0.011719999999999998  0.93531  1.0000
  C   C31       1.0  0.86405  0.08278  0.93542  1.0000
  C   C32       1.0  0.85777  0.18921999999999997  0.93421  1.0000
  C   C33       1.0  0.7620399999999999  0.22417  0.9336599999999998  1.0000
  C   C34       1.0  0.66943  0.1538  0.9326099999999998  1.0000
  C   C35       1.0  0.56148  0.30316  0.9302999999999999  1.0000
  C   C36       1.0  0.57662  0.85887  0.9289199999999997  1.0000
  C   C37       1.0  0.92735  0.31108999999999987  0.4323  1.0000
  C   C38       1.0  0.017320000000000012  0.38036  0.43273  1.0000
  C   C39       1.0  0.011699999999999999  0.48651  0.43038  1.0000
  C   C40       1.0  0.91755  0.52614  0.43099  1.0000
  C   C41       1.0  0.8229199999999998  0.45679  0.4335099999999999  1.0000
  C   C42       1.0  0.72314  0.48959999999999987  0.4353699999999999  1.0000
  C   C43       1.0  0.63455  0.4188599999999999  0.43566  1.0000
  C   C44       1.0  0.6404699999999999  0.31237  0.4346099999999999  1.0000
  C   C45       1.0  0.73601  0.27703  0.4339899999999999  1.0000
  C   C46       1.0  0.8288  0.34717  0.4328799999999999  1.0000
  C   C47       1.0  0.93641  0.19771  0.4306399999999999  1.0000
  C   C48       1.0  0.9225  0.6414799999999998  0.42906  1.0000
  C   C49       1.0  0.31128  0.92738  0.4323  1.0000
  C   C50       1.0  0.3819  0.01651  0.43315  1.0000
  C   C51       1.0  0.48775999999999997  0.009540000000000002  0.4305799999999999  1.0000
  C   C52       1.0  0.52612  0.91464  0.4305799999999999  1.0000
  C   C53       1.0  0.4555599999999999  0.8207599999999999  0.43333  1.0000
  C   C54       1.0  0.4870499999999999  0.72029  0.4352899999999999  1.0000
  C   C55       1.0  0.4154099999999999  0.6323599999999998  0.4357699999999999  1.0000
  C   C56       1.0  0.3093099999999999  0.6396999999999999  0.43479999999999996  1.0000
  C   C57       1.0  0.27528999999999987  0.73591  0.4341299999999999  1.0000
  C   C58       1.0  0.34626  0.82812  0.43284  1.0000
  C   C59       1.0  0.19778999999999994  0.9369399999999999  0.4306999999999999  1.0000
  C   C60       1.0  0.6412899999999999  0.91785  0.42778999999999995  1.0000
  C   C61       1.0  0.18699999999999997  0.57369  0.93273  1.0000
  C   C62       1.0  0.11671999999999998  0.4843  0.9338599999999999  1.0000
  C   C63       1.0  0.010719999999999997  0.49078  0.9312399999999997  1.0000
  C   C64       1.0  0.97189  0.58547  0.9312599999999998  1.0000
  C   C65       1.0  0.042099999999999964  0.6794899999999998  0.9339099999999999  1.0000
  C   C66       1.0  0.009769999999999971  0.7794899999999998  0.9361099999999999  1.0000
  C   C67       1.0  0.08076999999999997  0.86786  0.9366  1.0000
  C   C68       1.0  0.18698  0.8612999999999997  0.9350199999999999  1.0000
  C   C69       1.0  0.22181999999999996  0.76545  0.9339299999999999  1.0000
  C   C70       1.0  0.1515  0.6727499999999998  0.93305  1.0000
  C   C71       1.0  0.30048  0.5639  0.93075  1.0000
  C   C72       1.0  0.85664  0.58189  0.9281699999999999  1.0000
  C   C73       1.0  0.42832  0.81261  0.06754  1.0000
  C   C74       1.0  0.51718  0.8834999999999998  0.0669  1.0000
  C   C75       1.0  0.50998  0.98942  0.06974  1.0000
  C   C76       1.0  0.41504  0.027559999999999998  0.06961999999999999  1.0000
  C   C77       1.0  0.32149  0.95674  0.06690999999999998  1.0000
  C   C78       1.0  0.22118999999999997  0.9883  0.06492  1.0000
  C   C79       1.0  0.1334  0.91656  0.06426999999999998  1.0000
  C   C80       1.0  0.14081999999999997  0.8103499999999999  0.06522  1.0000
  C   C81       1.0  0.23694999999999997  0.77631  0.06594  1.0000
  C   C82       1.0  0.32903  0.8473799999999999  0.06726  1.0000
  C   C83       1.0  0.43832000000000004  0.69903  0.06916  1.0000
  C   C84       1.0  0.41792  0.14286  0.07213  1.0000
  C   C85       1.0  0.07314  0.68599  0.56733  1.0000
  C   C86       1.0  0.9840499999999999  0.6153299999999998  0.5663199999999999  1.0000
  C   C87       1.0  0.99075  0.50919  0.5692  1.0000
  C   C88       1.0  0.08540999999999999  0.47043  0.5692  1.0000
  C   C89       1.0  0.1791  0.54111  0.56636  1.0000
  C   C90       1.0  0.27912  0.50914  0.56415  1.0000
  C   C91       1.0  0.36721  0.58045  0.56351  1.0000
  C   C92       1.0  0.36043  0.6867499999999997  0.56499  1.0000
  C   C93       1.0  0.26456  0.72132  0.56606  1.0000
  C   C94       1.0  0.17215  0.6506299999999999  0.56705  1.0000
  C   C95       1.0  0.06353999999999996  0.7997099999999998  0.5691  1.0000
  C   C96       1.0  0.08246  0.35488  0.5720599999999999  1.0000
  C   C97       1.0  0.16122  0.15303999999999995  0.75927  1.0000
  C   C98       1.0  0.10748  0.09955  0.8014999999999998  1.0000
  C   C99       1.0  0.13111  0.12665  0.85573  1.0000
  C   C100      1.0  0.20824  0.20612  0.8696799999999999  1.0000
  C   C101      1.0  0.26572  0.26264  0.82673  1.0000
  C   C102      1.0  0.34589  0.34521999999999997  0.8356999999999999  1.0000
  C   C103      1.0  0.39815  0.39669  0.7923799999999999  1.0000
  C   C104      1.0  0.3731  0.36928  0.7379  1.0000
  C   C105      1.0  0.29553  0.28945  0.7272299999999999  1.0000
  C   C106      1.0  0.24087999999999998  0.23475999999999994  0.77061  1.0000
  C   C107      1.0  0.13087  0.12385  0.7016  1.0000
  C   C108      1.0  0.2223  0.22410999999999995  0.93069  1.0000
  C   C109      1.0  0.34147  0.3439199999999999  0.25899  1.0000
  C   C110      1.0  0.39517999999999986  0.39796  0.3011599999999999  1.0000
  C   C111      1.0  0.37039999999999995  0.3725899999999999  0.35538999999999993  1.0000
  C   C112      1.0  0.29289  0.29382  0.36946999999999997  1.0000
  C   C113      1.0  0.23510999999999999  0.23687999999999998  0.3265799999999999  1.0000
  C   C114      1.0  0.15385  0.15542  0.3355099999999999  1.0000
  C   C115      1.0  0.10162999999999997  0.10352  0.29217999999999994  1.0000
  C   C116      1.0  0.12727  0.13003  0.23769  1.0000
  C   C117      1.0  0.20554999999999998  0.20904  0.22699999999999995  1.0000
  C   C118      1.0  0.26068  0.26349  0.27041  1.0000
  C   C119      1.0  0.37169  0.373  0.2014  1.0000
  C   C120      1.0  0.27961  0.27676  0.43059999999999987  1.0000
  C   C121      1.0  0.65468  0.65996  0.73956  1.0000
  C   C122      1.0  0.60099  0.60643  0.69718  1.0000
  C   C123      1.0  0.62745  0.6312  0.64308  1.0000
  C   C124      1.0  0.7071299999999998  0.7082299999999999  0.62958  1.0000
  C   C125      1.0  0.76395  0.76539  0.67255  1.0000
  C   C126      1.0  0.84624  0.8459199999999999  0.6637599999999998  1.0000
  C   C127      1.0  0.89733  0.8982999999999999  0.7072399999999999  1.0000
  C   C128      1.0  0.86964  0.8731  0.7616  1.0000
  C   C129      1.0  0.7904099999999998  0.7949  0.77204  1.0000
  C   C130      1.0  0.73618  0.73999  0.72852  1.0000
  C   C131      1.0  0.62492  0.6303199999999999  0.7971599999999999  1.0000
  C   C132      1.0  0.72467  0.72288  0.56882  1.0000
  C   C133      1.0  0.8439  0.84157  0.24073999999999995  1.0000
  C   C134      1.0  0.8979300000000001  0.89504  0.19858999999999993  1.0000
  C   C135      1.0  0.8723  0.8701299999999998  0.1443  1.0000
  C   C136      1.0  0.7933499999999999  0.79252  0.13023  1.0000
  C   C137      1.0  0.73656  0.73521  0.17313  1.0000
  C   C138      1.0  0.65509  0.65401  0.16406  1.0000
  C   C139      1.0  0.60339  0.6017  0.20727  1.0000
  C   C140      1.0  0.63004  0.62727  0.26178  1.0000
  C   C141      1.0  0.70896  0.7056799999999999  0.27262  1.0000
  C   C142      1.0  0.7633  0.76085  0.22929999999999995  1.0000
  C   C143      1.0  0.8728599999999999  0.8717099999999999  0.2984  1.0000
  C   C144      1.0  0.7760499999999999  0.7776499999999998  0.06917  1.0000
  O   O1        1.0  0.8386199999999998  0.01574  0.52807  1.0000
  O   O2        1.0  0.85284  0.10167  0.60925  1.0000
  O   O3        1.0  0.31822  0.15696999999999997  0.55845  1.0000
  O   O4        1.0  0.30855  0.99049  0.58575  1.0000
  O   O5        1.0  0.055119999999999995  0.16556  0.6826699999999999  1.0000
  O   O6        1.0  0.6610999999999999  0.48431  0.028589999999999994  1.0000
  O   O7        1.0  0.64816  0.39844  0.1102  1.0000
  O   O8        1.0  0.1819  0.34302  0.05836999999999999  1.0000
  O   O9        1.0  0.19218  0.50919  0.08575  1.0000
  O   O10       1.0  0.44933  0.33429  0.18311  1.0000
  O   O11       1.0  0.51482  0.33929  0.96947  1.0000
  O   O12       1.0  0.60244  0.3527  0.88893  1.0000
  O   O13       1.0  0.65711  0.81806  0.94155  1.0000
  O   O14       1.0  0.4907999999999999  0.8081  0.9139999999999999  1.0000
  O   O15       1.0  0.6663999999999999  0.55514  0.8168799999999998  1.0000
  O   O16       1.0  0.9848699999999998  0.16094  0.46936  1.0000
  O   O17       1.0  0.89366  0.14916  0.38932999999999995  1.0000
  O   O18       1.0  0.8423  0.68228  0.44153  1.0000
  O   O19       1.0  0.008290000000000007  0.69218  0.41439  1.0000
  O   O20       1.0  0.8339899999999997  0.9492799999999998  0.31679  1.0000
  O   O21       1.0  0.16131  0.98471  0.46930999999999995  1.0000
  O   O22       1.0  0.14822  0.89418  0.38951  1.0000
  O   O23       1.0  0.68172  0.83773  0.44151  1.0000
  O   O24       1.0  0.69204  0.00251  0.4112  1.0000
  O   O25       1.0  0.93516  0.81877  0.32219999999999993  1.0000
  O   O26       1.0  0.3383100000000001  0.51587  0.96925  1.0000
  O   O27       1.0  0.34836  0.60622  0.88909  1.0000
  O   O28       1.0  0.8152300000000002  0.66134  0.94154  1.0000
  O   O29       1.0  0.8067  0.49692  0.9113099999999997  1.0000
  O   O30       1.0  0.55978  0.68119  0.81956  1.0000
  O   O31       1.0  0.48472999999999994  0.66169  0.03037  1.0000
  O   O32       1.0  0.39699999999999996  0.65029  0.11087999999999998  1.0000
  O   O33       1.0  0.3379299999999999  0.18325999999999998  0.05831  1.0000
  O   O34       1.0  0.5027  0.19357999999999997  0.08874  1.0000
  O   O35       1.0  0.3189  0.43549  0.17761999999999994  1.0000
  O   O36       1.0  0.015950000000000013  0.83779  0.5305899999999999  1.0000
  O   O37       1.0  0.10618  0.84785  0.6108  1.0000
  O   O38       1.0  0.16214  0.31426999999999994  0.55837  1.0000
  O   O39       1.0  0.99831  0.30384  0.58873  1.0000
  O   O40       1.0  0.18129  0.05949999999999999  0.67823  1.0000
  O   O41       1.0  0.16557999999999998  0.17067  0.96357  1.0000
  O   O42       1.0  0.29518  0.29678  0.94491  1.0000
  O   O43       1.0  0.08036  0.07700999999999997  0.55842  1.0000
  O   O44       1.0  0.33913  0.32831  0.4632  1.0000
  O   O45       1.0  0.20429999999999995  0.20706  0.44505  1.0000
  O   O46       1.0  0.42039  0.42105  0.05847  1.0000
  O   O47       1.0  0.6712  0.6660099999999998  0.5359099999999999  1.0000
  O   O48       1.0  0.7965899999999998  0.7965299999999997  0.55476  1.0000
  O   O49       1.0  0.57806  0.58039  0.9396599999999998  1.0000
  O   O50       1.0  0.8294199999999999  0.83466  0.03634  1.0000
  O   O51       1.0  0.70421  0.7039599999999998  0.05488  1.0000
  O   O52       1.0  0.91925  0.9197599999999998  0.4411699999999999  1.0000
