data_image0
_chemical_formula_structural       Co6H80C136N8O24
_chemical_formula_sum              "Co6 H80 C136 N8 O24"
_cell_length_a       15.82121
_cell_length_b       15.82068
_cell_length_c       16.627090000000003
_cell_angle_alpha    67.85183
_cell_angle_beta     67.84918000000002
_cell_angle_gamma    69.87484

_symmetry_space_group_name_H-M    'P 1'
_symmetry_Int_Tables_number       1

loop_
  _symmetry_equiv_pos_as_xyz
  'x,y,z'

loop_
  _atom_site_type_symbol
  _atom_site_label
  _atom_site_symmetry_multiplicity
  _atom_site_fract_x
  _atom_site_fract_y
  _atom_site_fract_z
  _atom_site_occupancy
  Co  Co1       1.0  0.09166000000000005  0.6471899999999999  0.48629  1.0000
  Co  Co2       1.0  0.06520999999999995  0.5279200000000002  0.70351  1.0000
  Co  Co3       1.0  0.023719999999999936  0.39837000000000006  0.93347  1.0000
  Co  Co4       1.0  0.6471700000000001  0.09170000000000005  0.98628  1.0000
  Co  Co5       1.0  0.52791  0.06522  0.2035  1.0000
  Co  Co6       1.0  0.3983900000000002  0.023689999999999982  0.43347  1.0000
  H   H1        1.0  0.86769  0.8754900000000002  0.50405  1.0000
  H   H2        1.0  0.7122199999999999  0.9874900000000004  0.538  1.0000
  H   H3        1.0  0.6753200000000001  0.8504699999999998  0.82368  1.0000
  H   H4        1.0  0.8296599999999998  0.73637  0.7873  1.0000
  H   H5        1.0  0.46241999999999994  0.20868000000000012  0.59268  1.0000
  H   H6        1.0  0.31337  0.32904  0.62462  1.0000
  H   H7        1.0  0.23456  0.15953  0.89939  1.0000
  H   H8        1.0  0.38587  0.04126  0.87134  1.0000
  H   H9        1.0  0.32620000000000005  0.76175  0.50814  1.0000
  H   H10       1.0  0.46952999999999995  0.7261400000000001  0.55377  1.0000
  H   H11       1.0  0.4368900000000001  0.4450800000000002  0.70285  1.0000
  H   H12       1.0  0.29000999999999993  0.48143  0.65883  1.0000
  H   H13       1.0  0.73173  0.6354300000000003  0.65459  1.0000
  H   H14       1.0  0.8566799999999999  0.58925  0.7290899999999999  1.0000
  H   H15       1.0  0.79846  0.31514999999999993  0.86477  1.0000
  H   H16       1.0  0.6722300000000003  0.36112  0.7926  1.0000
  H   H17       1.0  0.10378999999999997  0.56594  0.00865  1.0000
  H   H18       1.0  0.16487999999999992  0.6653600000000002  0.04862  1.0000
  H   H19       1.0  0.30983999999999995  0.7689800000000002  0.76578  1.0000
  H   H20       1.0  0.24109999999999998  0.67426  0.72734  1.0000
  H   H21       1.0  0.2328399999999999  0.9126000000000004  0.08877  1.0000
  H   H22       1.0  0.3191699999999999  0.9807000000000002  0.13963  1.0000
  H   H23       1.0  0.57511  0.8911700000000004  0.94857  1.0000
  H   H24       1.0  0.49234999999999995  0.8181900000000003  0.89906  1.0000
  H   H25       1.0  0.8751599999999996  0.5868500000000003  0.92248  1.0000
  H   H26       1.0  0.7581500000000002  0.6768100000000001  0.03183  1.0000
  H   H27       1.0  0.7449599999999998  0.6032600000000004  0.19805  1.0000
  H   H28       1.0  0.84901  0.4471400000000001  0.24769  1.0000
  H   H29       1.0  0.9490000000000001  0.31597  0.2768  1.0000
  H   H30       1.0  0.07753999999999996  0.17207000000000006  0.29421  1.0000
  H   H31       1.0  0.18605000000000002  0.12195000000000002  0.15547  1.0000
  H   H32       1.0  0.15517  0.218  0.00499  1.0000
  H   H33       1.0  0.19366  0.43548  0.55334  1.0000
  H   H34       1.0  0.3061400000000001  0.30940999999999996  0.4815  1.0000
  H   H35       1.0  0.35562999999999995  0.34690000000000004  0.31239  1.0000
  H   H36       1.0  0.29112999999999994  0.5068000000000003  0.22138  1.0000
  H   H37       1.0  0.22474000000000002  0.64703  0.15581  1.0000
  H   H38       1.0  0.13162999999999989  0.8058300000000003  0.09483  1.0000
  H   H39       1.0  0.019239999999999986  0.8991100000000002  0.2032  1.0000
  H   H40       1.0  0.012589999999999928  0.8291900000000002  0.3685  1.0000
  H   H41       1.0  0.87545  0.8677100000000002  0.0041  1.0000
  H   H42       1.0  0.9874499999999999  0.7122700000000001  0.03797  1.0000
  H   H43       1.0  0.8504699999999996  0.6753000000000002  0.32368  1.0000
  H   H44       1.0  0.7363699999999999  0.8296000000000002  0.28737  1.0000
  H   H45       1.0  0.20870000000000002  0.4624100000000001  0.09269  1.0000
  H   H46       1.0  0.32905  0.3134  0.12454  1.0000
  H   H47       1.0  0.15957999999999997  0.2345  0.39935  1.0000
  H   H48       1.0  0.041319999999999954  0.38579000000000013  0.37137  1.0000
  H   H49       1.0  0.76173  0.32624000000000003  0.00813  1.0000
  H   H50       1.0  0.72608  0.4696000000000001  0.05381  1.0000
  H   H51       1.0  0.44505999999999996  0.43691000000000013  0.20286  1.0000
  H   H52       1.0  0.4814300000000001  0.29002  0.15881  1.0000
  H   H53       1.0  0.63545  0.7317  0.15462  1.0000
  H   H54       1.0  0.5892200000000002  0.8566900000000001  0.22913  1.0000
  H   H55       1.0  0.31514999999999993  0.7984500000000002  0.36478  1.0000
  H   H56       1.0  0.36115999999999987  0.6721900000000001  0.29258  1.0000
  H   H57       1.0  0.5659100000000002  0.10379000000000005  0.50866  1.0000
  H   H58       1.0  0.66534  0.1649100000000001  0.54862  1.0000
  H   H59       1.0  0.7689599999999999  0.3098500000000001  0.26578  1.0000
  H   H60       1.0  0.67425  0.24108000000000007  0.22733999999999993  1.0000
  H   H61       1.0  0.91259  0.23282000000000003  0.58875  1.0000
  H   H62       1.0  0.98068  0.31914  0.63963  1.0000
  H   H63       1.0  0.8911900000000001  0.5751000000000001  0.4486  1.0000
  H   H64       1.0  0.8182200000000003  0.49234000000000006  0.39906  1.0000
  H   H65       1.0  0.5869500000000002  0.8750700000000002  0.42249  1.0000
  H   H66       1.0  0.6768599999999999  0.75812  0.53184  1.0000
  H   H67       1.0  0.6032700000000001  0.74496  0.69807  1.0000
  H   H68       1.0  0.44710999999999995  0.8490500000000002  0.7476699999999998  1.0000
  H   H69       1.0  0.3159200000000001  0.9490300000000004  0.77685  1.0000
  H   H70       1.0  0.17202999999999996  0.07759  0.7942  1.0000
  H   H71       1.0  0.12197000000000008  0.18603000000000003  0.6554699999999999  1.0000
  H   H72       1.0  0.21807999999999994  0.1551100000000001  0.50499  1.0000
  H   H73       1.0  0.43537000000000003  0.19373  0.05336  1.0000
  H   H74       1.0  0.30933999999999995  0.30617  0.98149  1.0000
  H   H75       1.0  0.34687000000000023  0.35562999999999995  0.81238  1.0000
  H   H76       1.0  0.5068200000000004  0.2911  0.72139  1.0000
  H   H77       1.0  0.64706  0.22472000000000006  0.65577  1.0000
  H   H78       1.0  0.8058900000000001  0.13160000000000002  0.59482  1.0000
  H   H79       1.0  0.8991000000000001  0.019249999999999996  0.70319  1.0000
  H   H80       1.0  0.8291500000000004  0.012630000000000004  0.8685  1.0000
  C   C1        1.0  0.9491300000000001  0.7299  0.62025  1.0000
  C   C2        1.0  0.85807  0.79921  0.6435  1.0000
  C   C3        1.0  0.8246900000000003  0.8708000000000002  0.5735499999999998  1.0000
  C   C4        1.0  0.7383999999999997  0.9333900000000005  0.59257  1.0000
  C   C5        1.0  0.6832099999999998  0.9270700000000003  0.68327  1.0000
  C   C6        1.0  0.71722  0.85541  0.75373  1.0000
  C   C7        1.0  0.8032399999999996  0.7921900000000002  0.73367  1.0000
  C   C8        1.0  0.59593  0.99192  0.70168  1.0000
  C   C9        1.0  0.52104  0.049769999999999995  0.71415  1.0000
  C   C10       1.0  0.43478  0.11665000000000002  0.73009  1.0000
  C   C11       1.0  0.41282  0.19812  0.66003  1.0000
  C   C12       1.0  0.32921000000000006  0.26501000000000013  0.67751  1.0000
  C   C13       1.0  0.26444  0.25223  0.76401  1.0000
  C   C14       1.0  0.28524  0.17001000000000002  0.83278  1.0000
  C   C15       1.0  0.36929  0.10351000000000003  0.81705  1.0000
  C   C16       1.0  0.17710999999999993  0.32708000000000015  0.78449  1.0000
  C   C17       1.0  0.22034999999999993  0.6414  0.54521  1.0000
  C   C18       1.0  0.30061999999999994  0.6228500000000002  0.57921  1.0000
  C   C19       1.0  0.3506  0.6922000000000001  0.55049  1.0000
  C   C20       1.0  0.43094000000000005  0.67245  0.5761799999999999  1.0000
  C   C21       1.0  0.46347999999999995  0.5821800000000003  0.63055  1.0000
  C   C22       1.0  0.41157  0.51361  0.66021  1.0000
  C   C23       1.0  0.3307899999999999  0.5336500000000002  0.63549  1.0000
  C   C24       1.0  0.5460200000000003  0.55803  0.6565  1.0000
  C   C25       1.0  0.61539  0.53084  0.68359  1.0000
  C   C26       1.0  0.69194  0.50208  0.71953  1.0000
  C   C27       1.0  0.74577  0.56579  0.70119  1.0000
  C   C28       1.0  0.8158699999999999  0.54007  0.74246  1.0000
  C   C29       1.0  0.8354200000000002  0.44991000000000014  0.80185  1.0000
  C   C30       1.0  0.7841699999999999  0.38506000000000007  0.8186  1.0000
  C   C31       1.0  0.7131399999999999  0.41075000000000017  0.77809  1.0000
  C   C32       1.0  0.9064000000000002  0.4261200000000002  0.84942  1.0000
  C   C33       1.0  0.12800000000000003  0.55497  0.8443  1.0000
  C   C34       1.0  0.16904999999999995  0.6137200000000003  0.86574  1.0000
  C   C35       1.0  0.14851000000000003  0.6111100000000003  0.95629  1.0000
  C   C36       1.0  0.18328999999999981  0.6663600000000004  0.97839  1.0000
  C   C37       1.0  0.24256000000000022  0.72382  0.91012  1.0000
  C   C38       1.0  0.26382999999999995  0.7255400000000001  0.81902  1.0000
  C   C39       1.0  0.2261700000000001  0.67204  0.79739  1.0000
  C   C40       1.0  0.2802599999999999  0.77688  0.93458  1.0000
  C   C41       1.0  0.3120000000000001  0.8183600000000001  0.9613999999999998  1.0000
  C   C42       1.0  0.3569200000000002  0.8604300000000005  0.99056  1.0000
  C   C43       1.0  0.3079  0.9071800000000001  0.05851  1.0000
  C   C44       1.0  0.35544  0.94537  0.08675  1.0000
  C   C45       1.0  0.4519699999999999  0.9393900000000001  0.0472  1.0000
  C   C46       1.0  0.50056  0.8937400000000001  0.97908  1.0000
  C   C47       1.0  0.45444999999999985  0.8541700000000004  0.95132  1.0000
  C   C48       1.0  0.50434  0.98418  0.07226  1.0000
  C   C49       1.0  0.8663600000000002  0.5592600000000002  0.99519  1.0000
  C   C50       1.0  0.8018799999999999  0.6081800000000003  0.05623  1.0000
  C   C51       1.0  0.79472  0.56704  0.14849  1.0000
  C   C52       1.0  0.85291  0.4795000000000001  0.17629  1.0000
  C   C53       1.0  0.9169500000000002  0.43449  0.11107  1.0000
  C   C54       1.0  0.9855600000000001  0.3442700000000001  0.13113  1.0000
  C   C55       1.0  0.9957  0.29277  0.21774  1.0000
  C   C56       1.0  0.06758999999999998  0.21176000000000003  0.22768  1.0000
  C   C57       1.0  0.12772  0.18348  0.15099  1.0000
  C   C58       1.0  0.11205999999999999  0.23632000000000003  0.06739  1.0000
  C   C59       1.0  0.2174500000000001  0.44795  0.48021  1.0000
  C   C60       1.0  0.27975999999999995  0.37863000000000013  0.43981  1.0000
  C   C61       1.0  0.3072700000000002  0.39996  0.34548  1.0000
  C   C62       1.0  0.27131  0.48936000000000024  0.29479  1.0000
  C   C63       1.0  0.20869999999999986  0.5557300000000002  0.33983  1.0000
  C   C64       1.0  0.16379999999999992  0.6517800000000002  0.29468  1.0000
  C   C65       1.0  0.17560999999999996  0.6882100000000002  0.20131  1.0000
  C   C66       1.0  0.12368999999999997  0.77752  0.16722  1.0000
  C   C67       1.0  0.06198000000000001  0.8297400000000003  0.22696  1.0000
  C   C68       1.0  0.05677999999999992  0.7914500000000002  0.31848  1.0000
  C   C69       1.0  0.7298600000000001  0.94914  0.12032  1.0000
  C   C70       1.0  0.7991999999999998  0.8580800000000002  0.14354  1.0000
  C   C71       1.0  0.8707799999999999  0.8247100000000003  0.07359  1.0000
  C   C72       1.0  0.9333699999999999  0.7384100000000002  0.09258  1.0000
  C   C73       1.0  0.9270800000000005  0.6832  0.18326999999999996  1.0000
  C   C74       1.0  0.85541  0.7172100000000002  0.25374  1.0000
  C   C75       1.0  0.79219  0.80323  0.23371  1.0000
  C   C76       1.0  0.99195  0.5959200000000002  0.20164  1.0000
  C   C77       1.0  0.04977  0.52102  0.21419  1.0000
  C   C78       1.0  0.11667999999999999  0.43476  0.23011  1.0000
  C   C79       1.0  0.19814999999999994  0.4127900000000001  0.16003  1.0000
  C   C80       1.0  0.26503000000000004  0.32918  0.17748  1.0000
  C   C81       1.0  0.25224  0.2643900000000001  0.26397  1.0000
  C   C82       1.0  0.17003999999999994  0.28520000000000006  0.33275  1.0000
  C   C83       1.0  0.10354  0.36925  0.31705  1.0000
  C   C84       1.0  0.32709  0.17707  0.28442  1.0000
  C   C85       1.0  0.6413999999999999  0.22039  0.04519  1.0000
  C   C86       1.0  0.62284  0.3006600000000001  0.07919999999999999  1.0000
  C   C87       1.0  0.6921799999999999  0.3506400000000001  0.05049  1.0000
  C   C88       1.0  0.67243  0.4309600000000001  0.0762  1.0000
  C   C89       1.0  0.58216  0.4634800000000001  0.13058  1.0000
  C   C90       1.0  0.51358  0.41158000000000006  0.16023  1.0000
  C   C91       1.0  0.53363  0.33082  0.13549  1.0000
  C   C92       1.0  0.55799  0.54602  0.15653  1.0000
  C   C93       1.0  0.53085  0.61541  0.18358  1.0000
  C   C94       1.0  0.50208  0.69195  0.21953  1.0000
  C   C95       1.0  0.5658000000000002  0.74576  0.2012  1.0000
  C   C96       1.0  0.54006  0.8158700000000002  0.24247999999999997  1.0000
  C   C97       1.0  0.44989  0.83541  0.30185  1.0000
  C   C98       1.0  0.38505  0.78417  0.31862  1.0000
  C   C99       1.0  0.41075  0.71313  0.27811  1.0000
  C   C100      1.0  0.42611000000000004  0.9064  0.34943  1.0000
  C   C101      1.0  0.55496  0.12800000000000006  0.3443  1.0000
  C   C102      1.0  0.6137100000000002  0.16903999999999997  0.36575  1.0000
  C   C103      1.0  0.61109  0.14852000000000004  0.4563  1.0000
  C   C104      1.0  0.66634  0.18331000000000003  0.4784  1.0000
  C   C105      1.0  0.72381  0.24257  0.41012  1.0000
  C   C106      1.0  0.7255300000000002  0.26384  0.31903  1.0000
  C   C107      1.0  0.67203  0.22617  0.29739  1.0000
  C   C108      1.0  0.7768799999999999  0.28027  0.43457  1.0000
  C   C109      1.0  0.8183600000000003  0.31199  0.46141  1.0000
  C   C110      1.0  0.8604299999999999  0.35691000000000017  0.49056  1.0000
  C   C111      1.0  0.9071800000000001  0.30788  0.55851  1.0000
  C   C112      1.0  0.9453600000000001  0.3554200000000002  0.5867499999999999  1.0000
  C   C113      1.0  0.9393800000000001  0.45195  0.54722  1.0000
  C   C114      1.0  0.8937400000000009  0.50055  0.4791  1.0000
  C   C115      1.0  0.85418  0.45444  0.45133  1.0000
  C   C116      1.0  0.98418  0.5043200000000001  0.5722699999999998  1.0000
  C   C117      1.0  0.5593200000000002  0.8663000000000002  0.49519  1.0000
  C   C118      1.0  0.6082200000000001  0.8018300000000004  0.5562499999999999  1.0000
  C   C119      1.0  0.5670499999999996  0.79471  0.6485  1.0000
  C   C120      1.0  0.4794999999999999  0.8529000000000002  0.67629  1.0000
  C   C121      1.0  0.4345200000000001  0.91691  0.61105  1.0000
  C   C122      1.0  0.34428999999999993  0.98551  0.63116  1.0000
  C   C123      1.0  0.29275999999999996  0.9956900000000001  0.71776  1.0000
  C   C124      1.0  0.21175  0.06759  0.72768  1.0000
  C   C125      1.0  0.1835  0.1277  0.65098  1.0000
  C   C126      1.0  0.23636000000000001  0.11201  0.56739  1.0000
  C   C127      1.0  0.4478800000000002  0.21751  0.98022  1.0000
  C   C128      1.0  0.3785700000000002  0.27980000000000005  0.93979  1.0000
  C   C129      1.0  0.3999299999999999  0.3072900000000002  0.84547  1.0000
  C   C130      1.0  0.48933999999999994  0.27132000000000006  0.79479  1.0000
  C   C131      1.0  0.5557  0.20873000000000003  0.83984  1.0000
  C   C132      1.0  0.6517599999999999  0.1638400000000001  0.79466  1.0000
  C   C133      1.0  0.6882300000000003  0.17562  0.70129  1.0000
  C   C134      1.0  0.7775400000000001  0.12370000000000003  0.6672099999999999  1.0000
  C   C135      1.0  0.82973  0.06199999999999998  0.72696  1.0000
  C   C136      1.0  0.7914200000000005  0.05682999999999999  0.81847  1.0000
  N   N1        1.0  0.92231  0.4743300000000001  0.02179  1.0000
  N   N2        1.0  0.04269999999999996  0.31463000000000013  0.05715  1.0000
  N   N3        1.0  0.18273999999999999  0.5346200000000002  0.4315  1.0000
  N   N4        1.0  0.10608999999999996  0.70464  0.35172  1.0000
  N   N5        1.0  0.4743799999999999  0.9222500000000002  0.52177  1.0000
  N   N6        1.0  0.31467  0.04263999999999998  0.55717  1.0000
  N   N7        1.0  0.53456  0.18279000000000004  0.9315199999999999  1.0000
  N   N8        1.0  0.70461  0.10615000000000001  0.8517  1.0000
  O   O1        1.0  0.0004400000000000258  0.75082  0.53835  1.0000
  O   O2        1.0  0.967  0.6552000000000002  0.68278  1.0000
  O   O3        1.0  0.16671000000000005  0.4035600000000002  0.7216299999999999  1.0000
  O   O4        1.0  0.12210000000000006  0.30814  0.86495  1.0000
  O   O5        1.0  0.20752999999999996  0.70802  0.47612  1.0000
  O   O6        1.0  0.16526  0.58277  0.5826899999999999  1.0000
  O   O7        1.0  0.9655700000000004  0.47892999999999997  0.8219099999999999  1.0000
  O   O8        1.0  0.90839  0.35846000000000017  0.9209499999999999  1.0000
  O   O9        1.0  0.11607000000000002  0.5831400000000002  0.76632  1.0000
  O   O10       1.0  0.10771000000000006  0.48225000000000007  0.9090999999999999  1.0000
  O   O11       1.0  0.58888  0.9832000000000002  0.02256  1.0000
  O   O12       1.0  0.4627700000000002  0.021110000000000004  0.1373  1.0000
  O   O13       1.0  0.75077  0.0004600000000000006  0.03842  1.0000
  O   O14       1.0  0.65514  0.9670000000000002  0.18283999999999995  1.0000
  O   O15       1.0  0.40359  0.16674  0.22156999999999996  1.0000
  O   O16       1.0  0.30815  0.12201  0.36486  1.0000
  O   O17       1.0  0.7080299999999999  0.20755000000000004  0.97611  1.0000
  O   O18       1.0  0.58276  0.16531  0.08266  1.0000
  O   O19       1.0  0.4789200000000002  0.96555  0.32191  1.0000
  O   O20       1.0  0.35845000000000005  0.9083900000000003  0.42096  1.0000
  O   O21       1.0  0.58313  0.11609000000000004  0.2663  1.0000
  O   O22       1.0  0.48223999999999995  0.1077  0.4091  1.0000
  O   O23       1.0  0.98318  0.5888700000000002  0.52258  1.0000
  O   O24       1.0  0.021119999999999892  0.4627500000000002  0.63729  1.0000
