data_image0
_chemical_formula_structural       Mn6H132C150N24O24
_chemical_formula_sum              "Mn6 H132 C150 N24 O24"
_cell_length_a       12.53672
_cell_length_b       12.536780000000002
_cell_length_c       28.555840000000003
_cell_angle_alpha    97.19562
_cell_angle_beta     97.17511
_cell_angle_gamma    94.54181

_space_group_name_H-M_alt    "P 1"
_space_group_IT_number       1

loop_
  _space_group_symop_operation_xyz
  'x, y, z'

loop_
  _atom_site_type_symbol
  _atom_site_label
  _atom_site_symmetry_multiplicity
  _atom_site_fract_x
  _atom_site_fract_y
  _atom_site_fract_z
  _atom_site_occupancy
  Mn  Mn1       1.0  0.40083  0.16243000000000002  0.91214  1.0000
  Mn  Mn2       1.0  0.8375500000000002  0.5991600000000002  0.58777  1.0000
  Mn  Mn3       1.0  0.59917  0.8375700000000003  0.08787000000000002  1.0000
  Mn  Mn4       1.0  0.16245  0.40084  0.41223  1.0000
  Mn  Mn5       1.0  0.5  0.0  0.0  1.0000
  Mn  Mn6       1.0  1.3283654232827523e-17  0.5000000000000002  0.5  1.0000
  H   H1        1.0  0.11785000000000001  0.96533  0.94099  1.0000
  H   H2        1.0  0.11766000000000001  0.09499000000000002  0.9738  1.0000
  H   H3        1.0  0.24157000000000006  0.045010000000000015  0.96  1.0000
  H   H4        1.0  0.42172000000000004  0.4544300000000001  0.96766  1.0000
  H   H5        1.0  0.51299  0.5310700000000002  0.93875  1.0000
  H   H6        1.0  0.53036  0.39289000000000013  0.94532  1.0000
  H   H7        1.0  0.25150000000000006  0.8099400000000002  0.2275  1.0000
  H   H8        1.0  0.76489  0.99312  0.94898  1.0000
  H   H9        1.0  0.7382700000000002  0.29915  0.89863  1.0000
  H   H10       1.0  0.34763  0.8139400000000002  0.94721  1.0000
  H   H11       1.0  0.22556000000000004  0.20777000000000007  0.77398  1.0000
  H   H12       1.0  0.32861  0.14331  0.80635  1.0000
  H   H13       1.0  0.4144500000000001  0.61328  0.79403  1.0000
  H   H14       1.0  0.94129  0.97954  0.9178000000000002  1.0000
  H   H15       1.0  0.37262000000000006  0.17992000000000005  0.10891  1.0000
  H   H16       1.0  0.32305000000000006  0.6144400000000001  0.93457  1.0000
  H   H17       1.0  0.43272  0.8152900000000001  0.80656  1.0000
  H   H18       1.0  0.27315000000000006  0.39119000000000004  0.00878  1.0000
  H   H19       1.0  0.31528  0.30513  0.17445  1.0000
  H   H20       1.0  0.39064999999999994  0.73699  0.17345  1.0000
  H   H21       1.0  0.4144500000000001  0.6117500000000002  0.14232  1.0000
  H   H22       1.0  0.4619200000000001  0.64415  0.20402  1.0000
  H   H23       1.0  0.9188700000000002  0.29319  0.87188  1.0000
  H   H24       1.0  0.21593  0.51787  0.07393  1.0000
  H   H25       1.0  0.004319999999999992  0.41112  0.2147  1.0000
  H   H26       1.0  0.0937  0.31859  0.1931  1.0000
  H   H27       1.0  0.013030000000000007  0.3838  0.15249  1.0000
  H   H28       1.0  0.9329600000000002  0.17586000000000004  0.79329  1.0000
  H   H29       1.0  0.04588999999999999  0.18812000000000004  0.76198  1.0000
  H   H30       1.0  0.014670000000000053  0.29957000000000006  0.8011100000000001  1.0000
  H   H31       1.0  0.27597  0.4001300000000001  0.7434  1.0000
  H   H32       1.0  0.23107  0.51392  0.77605  1.0000
  H   H33       1.0  0.15534000000000003  0.38624  0.7697900000000001  1.0000
  H   H34       1.0  0.03472000000000001  0.8821  0.55896  1.0000
  H   H35       1.0  0.90506  0.8822900000000001  0.52617  1.0000
  H   H36       1.0  0.9550300000000002  0.7584000000000002  0.53995  1.0000
  H   H37       1.0  0.5456100000000002  0.5782300000000002  0.53232  1.0000
  H   H38       1.0  0.46896000000000004  0.4869700000000001  0.56123  1.0000
  H   H39       1.0  0.60712  0.46958  0.55464  1.0000
  H   H40       1.0  0.19015000000000004  0.7486500000000003  0.27261  1.0000
  H   H41       1.0  0.006920000000000018  0.23504000000000003  0.55102  1.0000
  H   H42       1.0  0.7008  0.26167000000000007  0.6013700000000001  1.0000
  H   H43       1.0  0.18614  0.6523600000000002  0.55279  1.0000
  H   H44       1.0  0.79217  0.77449  0.7260000000000001  1.0000
  H   H45       1.0  0.85665  0.67145  0.69359  1.0000
  H   H46       1.0  0.38664  0.58557  0.70598  1.0000
  H   H47       1.0  0.020470000000000033  0.05871000000000004  0.5822  1.0000
  H   H48       1.0  0.82009  0.6273900000000001  0.39105  1.0000
  H   H49       1.0  0.38564  0.67697  0.56546  1.0000
  H   H50       1.0  0.1846200000000001  0.5672700000000002  0.69342  1.0000
  H   H51       1.0  0.6087300000000002  0.7268700000000002  0.49122  1.0000
  H   H52       1.0  0.69492  0.68469  0.32555000000000006  1.0000
  H   H53       1.0  0.26302  0.60934  0.32655000000000006  1.0000
  H   H54       1.0  0.38821000000000006  0.58548  0.35768  1.0000
  H   H55       1.0  0.35586000000000007  0.5380800000000001  0.29597  1.0000
  H   H56       1.0  0.70678  0.08116000000000002  0.6281400000000001  1.0000
  H   H57       1.0  0.48213  0.78405  0.4261  1.0000
  H   H58       1.0  0.58887  0.9956  0.28532  1.0000
  H   H59       1.0  0.6814800000000002  0.9063200000000002  0.30691  1.0000
  H   H60       1.0  0.61626  0.9870100000000002  0.34753  1.0000
  H   H61       1.0  0.82408  0.06710000000000008  0.7067500000000001  1.0000
  H   H62       1.0  0.81182  0.9541800000000001  0.73805  1.0000
  H   H63       1.0  0.70038  0.9854200000000002  0.6989399999999999  1.0000
  H   H64       1.0  0.5998100000000001  0.7240700000000002  0.75661  1.0000
  H   H65       1.0  0.48604  0.76899  0.724  1.0000
  H   H66       1.0  0.6137000000000001  0.84472  0.7302600000000001  1.0000
  H   H67       1.0  0.8821500000000001  0.03467  0.05901  1.0000
  H   H68       1.0  0.88234  0.9050099999999999  0.0262  1.0000
  H   H69       1.0  0.7584200000000002  0.9549800000000003  0.04  1.0000
  H   H70       1.0  0.57828  0.54557  0.03234  1.0000
  H   H71       1.0  0.487  0.4689300000000001  0.06125  1.0000
  H   H72       1.0  0.4696400000000001  0.6071100000000001  0.054680000000000006  1.0000
  H   H73       1.0  0.7484900000000001  0.19006  0.7725  1.0000
  H   H74       1.0  0.23511  0.006879999999999999  0.05102  1.0000
  H   H75       1.0  0.26172  0.70084  0.10138  1.0000
  H   H76       1.0  0.65237  0.18606000000000006  0.05279  1.0000
  H   H77       1.0  0.7744400000000002  0.7922200000000003  0.22602  1.0000
  H   H78       1.0  0.67139  0.85668  0.19365  1.0000
  H   H79       1.0  0.58555  0.38671  0.20597  1.0000
  H   H80       1.0  0.058710000000000026  0.02045  0.0822  1.0000
  H   H81       1.0  0.62738  0.8200800000000003  0.89109  1.0000
  H   H82       1.0  0.6769400000000001  0.38555000000000006  0.06543  1.0000
  H   H83       1.0  0.5672800000000001  0.1847  0.19344000000000003  1.0000
  H   H84       1.0  0.7268400000000003  0.6088  0.99122  1.0000
  H   H85       1.0  0.6847200000000004  0.6948700000000002  0.82555  1.0000
  H   H86       1.0  0.60935  0.26301  0.82655  1.0000
  H   H87       1.0  0.5855500000000001  0.3882400000000001  0.8576800000000001  1.0000
  H   H88       1.0  0.53808  0.35584000000000005  0.79599  1.0000
  H   H89       1.0  0.08112000000000004  0.7068  0.12812  1.0000
  H   H90       1.0  0.7840700000000003  0.4821300000000001  0.92607  1.0000
  H   H91       1.0  0.9956700000000003  0.5888700000000001  0.7853  1.0000
  H   H92       1.0  0.9063000000000002  0.6814000000000002  0.8069  1.0000
  H   H93       1.0  0.98697  0.6162000000000002  0.84751  1.0000
  H   H94       1.0  0.06703  0.82413  0.20671  1.0000
  H   H95       1.0  0.9541000000000002  0.8118800000000003  0.23803000000000005  1.0000
  H   H96       1.0  0.98532  0.7004300000000001  0.19889000000000004  1.0000
  H   H97       1.0  0.7240200000000001  0.59986  0.2566  1.0000
  H   H98       1.0  0.7689200000000002  0.4860700000000001  0.22395  1.0000
  H   H99       1.0  0.8446600000000002  0.6137600000000001  0.23021  1.0000
  H   H100      1.0  0.9652800000000002  0.11789000000000002  0.44105  1.0000
  H   H101      1.0  0.09494  0.11771000000000001  0.47383  1.0000
  H   H102      1.0  0.04496  0.24159000000000005  0.46005  1.0000
  H   H103      1.0  0.4543800000000001  0.42177  0.46768  1.0000
  H   H104      1.0  0.53104  0.51302  0.43877  1.0000
  H   H105      1.0  0.39288  0.5304100000000002  0.44537000000000004  1.0000
  H   H106      1.0  0.80984  0.2513500000000001  0.7274  1.0000
  H   H107      1.0  0.99308  0.7649600000000002  0.44898  1.0000
  H   H108      1.0  0.29919  0.73833  0.39863  1.0000
  H   H109      1.0  0.8138600000000002  0.34764000000000006  0.44721000000000005  1.0000
  H   H110      1.0  0.20782000000000003  0.22551000000000002  0.274  1.0000
  H   H111      1.0  0.14335000000000003  0.3285500000000001  0.30641  1.0000
  H   H112      1.0  0.6133600000000001  0.41443000000000013  0.29402  1.0000
  H   H113      1.0  0.97953  0.94128  0.4178  1.0000
  H   H114      1.0  0.17991000000000007  0.37261  0.60896  1.0000
  H   H115      1.0  0.6143500000000001  0.32303  0.43454  1.0000
  H   H116      1.0  0.81537  0.43272  0.30658  1.0000
  H   H117      1.0  0.39127000000000006  0.27312  0.50879  1.0000
  H   H118      1.0  0.30507000000000006  0.3153100000000001  0.67445  1.0000
  H   H119      1.0  0.7369800000000001  0.39065  0.67345  1.0000
  H   H120      1.0  0.6117900000000001  0.41452000000000006  0.64232  1.0000
  H   H121      1.0  0.64414  0.46192  0.70403  1.0000
  H   H122      1.0  0.29322  0.9188400000000002  0.37186  1.0000
  H   H123      1.0  0.51786  0.21594000000000002  0.5739  1.0000
  H   H124      1.0  0.41113  0.0044000000000000246  0.71468  1.0000
  H   H125      1.0  0.3185200000000001  0.09367999999999997  0.69309  1.0000
  H   H126      1.0  0.38374  0.012989999999999996  0.65247  1.0000
  H   H127      1.0  0.17592000000000002  0.9329000000000001  0.29325  1.0000
  H   H128      1.0  0.18818  0.04581  0.26195  1.0000
  H   H129      1.0  0.29961  0.014580000000000004  0.30106  1.0000
  H   H130      1.0  0.40018000000000004  0.27593000000000006  0.24339  1.0000
  H   H131      1.0  0.51396  0.23101000000000005  0.276  1.0000
  H   H132      1.0  0.3863  0.15527000000000005  0.26975  1.0000
  C   C1        1.0  0.1444700000000001  0.09786000000000007  0.9013600000000003  1.0000
  C   C2        1.0  0.15645  0.04865000000000001  0.94651  1.0000
  C   C3        1.0  0.4710000000000001  0.4507900000000001  0.93837  1.0000
  C   C4        1.0  0.36828  0.20716  0.01666  1.0000
  C   C5        1.0  0.40960000000000013  0.9477900000000002  0.88536  1.0000
  C   C6        1.0  0.36709  0.5986200000000002  0.8634  1.0000
  C   C7        1.0  0.3573000000000001  0.47984000000000004  0.85796  1.0000
  C   C8        1.0  0.7997500000000001  0.05752000000000001  0.93169  1.0000
  C   C9        1.0  0.04997000000000002  0.13257  0.87686  1.0000
  C   C10       1.0  0.29168  0.59738  0.18675  1.0000
  C   C11       1.0  0.63462  0.1523  0.94304  1.0000
  C   C12       1.0  0.78416  0.23024000000000006  0.9030200000000002  1.0000
  C   C13       1.0  0.3023600000000001  0.40688  0.81993  1.0000
  C   C14       1.0  0.36125000000000007  0.7699500000000002  0.91353  1.0000
  C   C15       1.0  0.26663000000000003  0.20012999999999997  0.80932  1.0000
  C   C16       1.0  0.23550000000000004  0.4977000000000001  0.1679  1.0000
  C   C17       1.0  0.94311  0.13511000000000012  0.8924200000000002  1.0000
  C   C18       1.0  0.3972  0.6569  0.82721  1.0000
  C   C19       1.0  0.4024100000000001  0.41522  0.89168  1.0000
  C   C20       1.0  0.8983700000000001  0.05078000000000001  0.91439  1.0000
  C   C21       1.0  0.3374  0.25366000000000005  0.10181  1.0000
  C   C22       1.0  0.26367  0.42107000000000006  0.12889  1.0000
  C   C23       1.0  0.7418500000000001  0.14721  0.92592  1.0000
  C   C24       1.0  0.32770000000000005  0.27901  0.05514  1.0000
  C   C25       1.0  0.14629000000000003  0.4869600000000001  0.19394  1.0000
  C   C26       1.0  0.3484200000000001  0.6575400000000002  0.90645  1.0000
  C   C27       1.0  0.40874  0.7695300000000002  0.8341  1.0000
  C   C28       1.0  0.3926400000000001  0.8272900000000002  0.87758  1.0000
  C   C29       1.0  0.08188000000000001  0.17079000000000005  0.83636  1.0000
  C   C30       1.0  0.28209  0.3736800000000001  0.0453  1.0000
  C   C31       1.0  0.30546  0.32388000000000006  0.13808  1.0000
  C   C32       1.0  0.39461  0.65077  0.17619  1.0000
  C   C33       1.0  0.8844700000000002  0.22542000000000015  0.88726  1.0000
  C   C34       1.0  0.25066  0.44409000000000004  0.08168000000000002  1.0000
  C   C35       1.0  0.05965  0.39533  0.18831  1.0000
  C   C36       1.0  0.016779999999999982  0.21129  0.79616  1.0000
  C   C37       1.0  0.23773000000000005  0.42689000000000005  0.77493  1.0000
  C   C38       1.0  0.90215  0.85555  0.59863  1.0000
  C   C39       1.0  0.9513800000000002  0.8435200000000002  0.55346  1.0000
  C   C40       1.0  0.54924  0.52897  0.56161  1.0000
  C   C41       1.0  0.79282  0.63173  0.48331  1.0000
  C   C42       1.0  0.052219999999999996  0.59039  0.61464  1.0000
  C   C43       1.0  0.40138000000000007  0.6329300000000002  0.6366100000000001  1.0000
  C   C44       1.0  0.52015  0.6427  0.64204  1.0000
  C   C45       1.0  0.9424800000000004  0.20022000000000004  0.56831  1.0000
  C   C46       1.0  0.86743  0.95006  0.62315  1.0000
  C   C47       1.0  0.40266  0.7083  0.31329  1.0000
  C   C48       1.0  0.8477000000000001  0.3653500000000001  0.55696  1.0000
  C   C49       1.0  0.76974  0.21581000000000006  0.59698  1.0000
  C   C50       1.0  0.59309  0.6976900000000003  0.68008  1.0000
  C   C51       1.0  0.23009  0.63876  0.58647  1.0000
  C   C52       1.0  0.7998300000000002  0.73341  0.69065  1.0000
  C   C53       1.0  0.50235  0.7644700000000001  0.33212  1.0000
  C   C54       1.0  0.86488  0.05689  0.60759  1.0000
  C   C55       1.0  0.3430600000000001  0.60282  0.6728000000000001  1.0000
  C   C56       1.0  0.58478  0.59758  0.6083100000000001  1.0000
  C   C57       1.0  0.9492099999999999  0.10160999999999999  0.58561  1.0000
  C   C58       1.0  0.74634  0.6625900000000001  0.39818  1.0000
  C   C59       1.0  0.57895  0.7362900000000002  0.37112  1.0000
  C   C60       1.0  0.8527700000000003  0.25812000000000007  0.5740700000000001  1.0000
  C   C61       1.0  0.72098  0.6723000000000002  0.44484  1.0000
  C   C62       1.0  0.5131099999999998  0.85368  0.30611  1.0000
  C   C63       1.0  0.34250000000000014  0.6516000000000002  0.59357  1.0000
  C   C64       1.0  0.23043000000000005  0.5912700000000001  0.66589  1.0000
  C   C65       1.0  0.17271999999999998  0.60737  0.62241  1.0000
  C   C66       1.0  0.82917  0.91816  0.66365  1.0000
  C   C67       1.0  0.6263  0.7179000000000002  0.4547  1.0000
  C   C68       1.0  0.6761400000000001  0.6945200000000001  0.36192  1.0000
  C   C69       1.0  0.34923999999999983  0.60537  0.32382  1.0000
  C   C70       1.0  0.7745700000000002  0.11553000000000001  0.61275  1.0000
  C   C71       1.0  0.5559000000000001  0.74931  0.41833  1.0000
  C   C72       1.0  0.6047200000000001  0.9403300000000002  0.31172  1.0000
  C   C73       1.0  0.7886600000000001  0.98328  0.70387  1.0000
  C   C74       1.0  0.57306  0.7623200000000001  0.72509  1.0000
  C   C75       1.0  0.85553  0.9021300000000005  0.09865  1.0000
  C   C76       1.0  0.84354  0.9513400000000002  0.05349  1.0000
  C   C77       1.0  0.529  0.54921  0.06163  1.0000
  C   C78       1.0  0.6317200000000001  0.7928400000000001  0.98334  1.0000
  C   C79       1.0  0.59039  0.05221  0.11465  1.0000
  C   C80       1.0  0.63291  0.4013800000000001  0.1366  1.0000
  C   C81       1.0  0.64269  0.5201600000000001  0.14204  1.0000
  C   C82       1.0  0.20025  0.9424700000000001  0.06831  1.0000
  C   C83       1.0  0.95003  0.86743  0.12315  1.0000
  C   C84       1.0  0.70831  0.4026200000000001  0.8132600000000001  1.0000
  C   C85       1.0  0.36538  0.8477  0.056960000000000004  1.0000
  C   C86       1.0  0.21584  0.7697600000000001  0.09699  1.0000
  C   C87       1.0  0.6976400000000003  0.5931200000000001  0.18008000000000002  1.0000
  C   C88       1.0  0.63875  0.23004000000000005  0.08647  1.0000
  C   C89       1.0  0.7333700000000001  0.7998700000000002  0.19068  1.0000
  C   C90       1.0  0.7645  0.5023  0.8321  1.0000
  C   C91       1.0  0.05688999999999999  0.86489  0.10758  1.0000
  C   C92       1.0  0.6028  0.3431  0.17279  1.0000
  C   C93       1.0  0.59759  0.5847700000000002  0.10832  1.0000
  C   C94       1.0  0.10163  0.94921  0.08561  1.0000
  C   C95       1.0  0.6625900000000003  0.74633  0.89819  1.0000
  C   C96       1.0  0.7363200000000002  0.5789300000000001  0.87111  1.0000
  C   C97       1.0  0.25815  0.85278  0.07408000000000001  1.0000
  C   C98       1.0  0.6723000000000001  0.7209800000000003  0.9448600000000001  1.0000
  C   C99       1.0  0.85371  0.5130400000000002  0.80607  1.0000
  C   C100      1.0  0.65157  0.34245  0.09356  1.0000
  C   C101      1.0  0.59125  0.23046000000000003  0.1659  1.0000
  C   C102      1.0  0.60736  0.17271  0.12242  1.0000
  C   C103      1.0  0.91811  0.8292100000000002  0.16365000000000002  1.0000
  C   C104      1.0  0.7179100000000002  0.6263200000000002  0.9547  1.0000
  C   C105      1.0  0.6945400000000002  0.6761100000000002  0.86193  1.0000
  C   C106      1.0  0.60539  0.34923  0.82381  1.0000
  C   C107      1.0  0.11553000000000002  0.77458  0.11274  1.0000
  C   C108      1.0  0.74933  0.5559000000000001  0.91832  1.0000
  C   C109      1.0  0.9403500000000002  0.60466  0.81169  1.0000
  C   C110      1.0  0.9832200000000001  0.7887100000000002  0.20384  1.0000
  C   C111      1.0  0.7622700000000002  0.57311  0.22507  1.0000
  C   C112      1.0  0.09785  0.14445000000000002  0.40137000000000006  1.0000
  C   C113      1.0  0.048610000000000035  0.15647000000000005  0.44654000000000005  1.0000
  C   C114      1.0  0.45076  0.4710300000000001  0.43839  1.0000
  C   C115      1.0  0.20717000000000002  0.3682600000000001  0.51669  1.0000
  C   C116      1.0  0.9477700000000001  0.40961000000000003  0.38536  1.0000
  C   C117      1.0  0.59862  0.36707000000000006  0.36339  1.0000
  C   C118      1.0  0.4798500000000001  0.35729  0.35796  1.0000
  C   C119      1.0  0.057520000000000016  0.7997800000000003  0.43169  1.0000
  C   C120      1.0  0.13257000000000002  0.04994000000000002  0.37686000000000003  1.0000
  C   C121      1.0  0.59733  0.2917  0.68671  1.0000
  C   C122      1.0  0.15230000000000002  0.63465  0.44304  1.0000
  C   C123      1.0  0.23025000000000007  0.7841800000000002  0.40302  1.0000
  C   C124      1.0  0.40691  0.30230000000000007  0.31993  1.0000
  C   C125      1.0  0.7699100000000001  0.36123  0.41353  1.0000
  C   C126      1.0  0.20017000000000004  0.26658  0.30935000000000007  1.0000
  C   C127      1.0  0.49765  0.23553000000000002  0.6678799999999999  1.0000
  C   C128      1.0  0.13512000000000005  0.9431000000000003  0.39241  1.0000
  C   C129      1.0  0.6569300000000001  0.3971700000000001  0.32721  1.0000
  C   C130      1.0  0.41522  0.40242  0.39169  1.0000
  C   C131      1.0  0.050790000000000037  0.89838  0.41439000000000004  1.0000
  C   C132      1.0  0.25365000000000004  0.33741  0.60182  1.0000
  C   C133      1.0  0.42105  0.2637  0.62889  1.0000
  C   C134      1.0  0.14722  0.74187  0.42593  1.0000
  C   C135      1.0  0.27902  0.3277  0.55516  1.0000
  C   C136      1.0  0.4868900000000001  0.1463200000000001  0.6938900000000001  1.0000
  C   C137      1.0  0.6575  0.3484  0.40643  1.0000
  C   C138      1.0  0.7695700000000001  0.4087200000000001  0.3341100000000001  1.0000
  C   C139      1.0  0.82728  0.3926200000000001  0.37759  1.0000
  C   C140      1.0  0.17083  0.08183  0.33635  1.0000
  C   C141      1.0  0.37370000000000003  0.2821  0.5453  1.0000
  C   C142      1.0  0.32386  0.30548  0.63808  1.0000
  C   C143      1.0  0.6507600000000002  0.3946300000000001  0.67618  1.0000
  C   C144      1.0  0.22543  0.8844600000000001  0.38725  1.0000
  C   C145      1.0  0.44410000000000005  0.25068000000000007  0.5816700000000001  1.0000
  C   C146      1.0  0.3952700000000001  0.05966000000000001  0.6882900000000001  1.0000
  C   C147      1.0  0.21134  0.016710000000000003  0.29613  1.0000
  C   C148      1.0  0.42693  0.23768000000000006  0.27491  1.0000
  C   C149      1.0  0.25478  0.7452700000000001  0.25004  1.0000
  C   C150      1.0  0.74521  0.25472000000000006  0.7499600000000001  1.0000
  N   N1        1.0  0.31800000000000006  0.30568000000000006  0.83143  1.0000
  N   N2        1.0  0.23510000000000006  0.6399800000000001  0.22152  1.0000
  N   N3        1.0  0.18965000000000004  0.15755  0.83776  1.0000
  N   N4        1.0  0.22912  0.11525999999999997  0.87779  1.0000
  N   N5        1.0  0.37846  0.30992  0.87503  1.0000
  N   N6        1.0  0.14574  0.57418  0.22634000000000004  1.0000
  N   N7        1.0  0.6942800000000001  0.6820400000000001  0.66856  1.0000
  N   N8        1.0  0.36008  0.7649  0.27854  1.0000
  N   N9        1.0  0.8424000000000004  0.8103800000000002  0.66222  1.0000
  N   N10       1.0  0.88471  0.7709000000000003  0.62219  1.0000
  N   N11       1.0  0.6900600000000002  0.62155  0.6249600000000001  1.0000
  N   N12       1.0  0.42589000000000016  0.8542500000000002  0.27373  1.0000
  N   N13       1.0  0.682  0.6943100000000001  0.16858  1.0000
  N   N14       1.0  0.7649  0.36001000000000005  0.77848  1.0000
  N   N15       1.0  0.8103400000000002  0.84245  0.16224  1.0000
  N   N16       1.0  0.77088  0.8847400000000002  0.12221  1.0000
  N   N17       1.0  0.62153  0.69007  0.12497  1.0000
  N   N18       1.0  0.85425  0.4258200000000001  0.77366  1.0000
  N   N19       1.0  0.30572  0.31795  0.33144  1.0000
  N   N20       1.0  0.6399200000000002  0.23510000000000006  0.72146  1.0000
  N   N21       1.0  0.1576  0.18961000000000003  0.33778  1.0000
  N   N22       1.0  0.11528000000000002  0.22909000000000002  0.37782000000000004  1.0000
  N   N23       1.0  0.30993  0.37844  0.37505  1.0000
  N   N24       1.0  0.57411  0.14575000000000002  0.72627  1.0000
  O   O1        1.0  0.40651  0.99675  0.92843  1.0000
  O   O2        1.0  0.42344  0.0008200000000000201  0.8516600000000001  1.0000
  O   O3        1.0  0.56569  0.20208000000000007  0.91924  1.0000
  O   O4        1.0  0.61915  0.10697  0.97931  1.0000
  O   O5        1.0  0.3599200000000001  0.23748  0.97522  1.0000
  O   O6        1.0  0.40712  0.12185  0.02777  1.0000
  O   O7        1.0  0.0032900000000000316  0.59348  0.5715700000000001  1.0000
  O   O8        1.0  0.9991700000000001  0.57655  0.64833  1.0000
  O   O9        1.0  0.79789  0.43429  0.58076  1.0000
  O   O10       1.0  0.8930600000000002  0.38082  0.5207  1.0000
  O   O11       1.0  0.7624600000000001  0.64009  0.52476  1.0000
  O   O12       1.0  0.8781500000000001  0.5928900000000001  0.47222  1.0000
  O   O13       1.0  0.59349  0.0032500000000000003  0.07158  1.0000
  O   O14       1.0  0.57655  0.9991700000000001  0.14834  1.0000
  O   O15       1.0  0.43431  0.7979200000000001  0.08076  1.0000
  O   O16       1.0  0.3808400000000001  0.8930200000000003  0.0207  1.0000
  O   O17       1.0  0.64007  0.7625100000000002  0.02478  1.0000
  O   O18       1.0  0.5928700000000001  0.8781400000000003  0.97223  1.0000
  O   O19       1.0  0.9967  0.40652  0.42843  1.0000
  O   O20       1.0  0.0008300000000000037  0.4234400000000001  0.35167  1.0000
  O   O21       1.0  0.20211  0.5657100000000002  0.41924  1.0000
  O   O22       1.0  0.10693999999999998  0.61918  0.4793  1.0000
  O   O23       1.0  0.23753000000000005  0.3599100000000001  0.47524  1.0000
  O   O24       1.0  0.12185000000000003  0.40711000000000014  0.52778  1.0000
