data_image0
_chemical_formula_structural       Ag12H96C108N48
_chemical_formula_sum              "Ag12 H96 C108 N48"
_cell_length_a       15.05297
_cell_length_b       15.088090000000001
_cell_length_c       19.256240000000002
_cell_angle_alpha    72.05973
_cell_angle_beta     72.12179
_cell_angle_gamma    80.18698

_space_group_name_H-M_alt    "P 1"
_space_group_IT_number       1

loop_
  _space_group_symop_operation_xyz
  'x, y, z'

loop_
  _atom_site_type_symbol
  _atom_site_label
  _atom_site_symmetry_multiplicity
  _atom_site_fract_x
  _atom_site_fract_y
  _atom_site_fract_z
  _atom_site_occupancy
  Ag  Ag1       1.0  0.6040599999999996  0.8515  0.80762  1.0000
  Ag  Ag2       1.0  0.66185  0.9254099999999998  0.65587  1.0000
  Ag  Ag3       1.0  0.14924  0.3948900000000001  0.69214  1.0000
  Ag  Ag4       1.0  0.07700000000000003  0.3358900000000001  0.8440799999999999  1.0000
  Ag  Ag5       1.0  0.3959399999999999  0.14850000000000002  0.19238  1.0000
  Ag  Ag6       1.0  0.33815000000000006  0.07459000000000005  0.3441299999999999  1.0000
  Ag  Ag7       1.0  0.85077  0.6051099999999999  0.30786  1.0000
  Ag  Ag8       1.0  0.923  0.6641099999999999  0.15590999999999997  1.0000
  Ag  Ag9       1.0  0.3557699999999998  0.6441  0.24989  1.0000
  Ag  Ag10      1.0  0.6442399999999999  0.35590000000000005  0.7501  1.0000
  Ag  Ag11      1.0  0.11091999999999996  0.8890400000000002  0.7498399999999998  1.0000
  Ag  Ag12      1.0  0.88909  0.11096000000000004  0.2501599999999999  1.0000
  H   H1        1.0  0.7963700000000001  0.77798  0.72068  1.0000
  H   H2        1.0  0.63933  0.67758  0.9758299999999999  1.0000
  H   H3        1.0  0.45589  0.91657  0.9715299999999999  1.0000
  H   H4        1.0  0.51811  0.58535  0.08333999999999997  1.0000
  H   H5        1.0  0.38741  0.011570000000000006  0.07552  1.0000
  H   H6        1.0  0.2647  0.79504  0.13359  1.0000
  H   H7        1.0  0.29127  0.90341  0.06201999999999999  1.0000
  H   H8        1.0  0.48324999999999996  0.9438  0.26749  1.0000
  H   H9        1.0  0.50479  0.7365900000000001  0.65819  1.0000
  H   H10       1.0  0.5781299999999999  0.8083600000000001  0.6749099999999998  1.0000
  H   H11       1.0  0.17865  0.75424  0.89124  1.0000
  H   H12       1.0  0.10390000000000002  0.64666  0.01589  1.0000
  H   H13       1.0  0.40901  0.7920600000000001  0.31508  1.0000
  H   H14       1.0  0.8500200000000001  0.96566  0.92392  1.0000
  H   H15       1.0  0.95259  0.99733  0.84655  1.0000
  H   H16       1.0  0.23073000000000007  0.9255699999999999  0.85791  1.0000
  H   H17       1.0  0.9509  0.84835  0.6715  1.0000
  H   H18       1.0  0.38903999999999994  0.9128000000000001  0.87958  1.0000
  H   H19       1.0  0.7380700000000001  0.8683499999999997  0.91426  1.0000
  H   H20       1.0  0.34273000000000003  0.78199  0.69368  1.0000
  H   H21       1.0  0.5387000000000001  0.5716599999999998  0.70003  1.0000
  H   H22       1.0  0.6746999999999999  0.6166099999999999  0.88346  1.0000
  H   H23       1.0  0.8531400000000001  0.81484  0.02194  1.0000
  H   H24       1.0  0.6576  0.4544500000000001  0.8791799999999997  1.0000
  H   H25       1.0  0.22399999999999995  0.20219000000000004  0.77866  1.0000
  H   H26       1.0  0.32155000000000006  0.36032000000000003  0.5236399999999999  1.0000
  H   H27       1.0  0.08324999999999999  0.54516  0.52807  1.0000
  H   H28       1.0  0.41448  0.48064  0.4157899999999999  1.0000
  H   H29       1.0  0.9872199999999995  0.61666  0.42251  1.0000
  H   H30       1.0  0.20606999999999992  0.73518  0.36555  1.0000
  H   H31       1.0  0.09733999999999998  0.7093  0.43701  1.0000
  H   H32       1.0  0.05474000000000001  0.5186199999999999  0.2319  1.0000
  H   H33       1.0  0.26279  0.49606999999999984  0.84191  1.0000
  H   H34       1.0  0.19105  0.4226400000000001  0.8251299999999998  1.0000
  H   H35       1.0  0.24556000000000006  0.82118  0.60928  1.0000
  H   H36       1.0  0.35462000000000005  0.8949299999999998  0.48506999999999995  1.0000
  H   H37       1.0  0.2088299999999999  0.58866  0.18552  1.0000
  H   H38       1.0  0.03607999999999997  0.15058  0.57447  1.0000
  H   H39       1.0  0.0032799999999999882  0.04846000000000002  0.65191  1.0000
  H   H40       1.0  0.07442  0.76959  0.64102  1.0000
  H   H41       1.0  0.1503500000000001  0.0495100000000001  0.8285599999999997  1.0000
  H   H42       1.0  0.08618000000000012  0.6110999999999999  0.6204699999999997  1.0000
  H   H43       1.0  0.13574000000000008  0.2606900000000001  0.5838399999999998  1.0000
  H   H44       1.0  0.21774999999999997  0.6581499999999998  0.80586  1.0000
  H   H45       1.0  0.42769  0.46010999999999996  0.80134  1.0000
  H   H46       1.0  0.38286  0.32778999999999997  0.61594  1.0000
  H   H47       1.0  0.18776  0.14626999999999996  0.47731  1.0000
  H   H48       1.0  0.5451600000000001  0.34166  0.6222499999999999  1.0000
  H   H49       1.0  0.20362999999999992  0.22202000000000002  0.27932  1.0000
  H   H50       1.0  0.36067999999999995  0.32241999999999993  0.02417  1.0000
  H   H51       1.0  0.54411  0.08343  0.028469999999999995  1.0000
  H   H52       1.0  0.4818900000000001  0.41465  0.9166499999999999  1.0000
  H   H53       1.0  0.6125900000000001  0.9884299999999999  0.9244799999999999  1.0000
  H   H54       1.0  0.7353  0.20495999999999995  0.8664  1.0000
  H   H55       1.0  0.70873  0.09659000000000008  0.9379799999999999  1.0000
  H   H56       1.0  0.5167499999999998  0.05619999999999999  0.73251  1.0000
  H   H57       1.0  0.49520999999999993  0.2634100000000001  0.34181  1.0000
  H   H58       1.0  0.42188  0.19164  0.32509  1.0000
  H   H59       1.0  0.82135  0.24576000000000003  0.10876  1.0000
  H   H60       1.0  0.8960999999999999  0.35333999999999993  0.9841  1.0000
  H   H61       1.0  0.59099  0.20794  0.68492  1.0000
  H   H62       1.0  0.14999  0.03434000000000001  0.07608  1.0000
  H   H63       1.0  0.04741999999999999  0.0026700000000000022  0.15345  1.0000
  H   H64       1.0  0.7692799999999997  0.07443000000000001  0.14208999999999994  1.0000
  H   H65       1.0  0.049100000000000005  0.15164999999999998  0.32849  1.0000
  H   H66       1.0  0.61096  0.0872  0.12042  1.0000
  H   H67       1.0  0.26194  0.13165  0.08573  1.0000
  H   H68       1.0  0.6572799999999999  0.21801  0.30632  1.0000
  H   H69       1.0  0.46129999999999993  0.42834  0.29997  1.0000
  H   H70       1.0  0.3253  0.38339  0.11653999999999999  1.0000
  H   H71       1.0  0.14686000000000005  0.18516000000000005  0.9780599999999999  1.0000
  H   H72       1.0  0.34241  0.54555  0.12082  1.0000
  H   H73       1.0  0.77601  0.79781  0.22134  1.0000
  H   H74       1.0  0.67845  0.63968  0.47636  1.0000
  H   H75       1.0  0.9167500000000001  0.4548400000000001  0.47193  1.0000
  H   H76       1.0  0.58553  0.51936  0.58421  1.0000
  H   H77       1.0  0.012780000000000043  0.38334000000000007  0.5774899999999998  1.0000
  H   H78       1.0  0.7939400000000001  0.26482  0.63445  1.0000
  H   H79       1.0  0.9026699999999999  0.29069999999999996  0.56299  1.0000
  H   H80       1.0  0.94526  0.48138  0.7680999999999999  1.0000
  H   H81       1.0  0.7372099999999998  0.50393  0.15809  1.0000
  H   H82       1.0  0.8089599999999998  0.57736  0.17487  1.0000
  H   H83       1.0  0.75445  0.17881999999999992  0.39071  1.0000
  H   H84       1.0  0.64538  0.10506999999999998  0.51493  1.0000
  H   H85       1.0  0.7911799999999996  0.41134000000000004  0.81448  1.0000
  H   H86       1.0  0.9639200000000001  0.8494199999999998  0.42553  1.0000
  H   H87       1.0  0.99672  0.9515399999999998  0.34808  1.0000
  H   H88       1.0  0.9255899999999999  0.23040999999999998  0.35898  1.0000
  H   H89       1.0  0.84965  0.9504899999999997  0.17144  1.0000
  H   H90       1.0  0.9138199999999999  0.3889  0.37953  1.0000
  H   H91       1.0  0.86426  0.73931  0.4161599999999999  1.0000
  H   H92       1.0  0.7822499999999998  0.34185  0.19413  1.0000
  H   H93       1.0  0.57231  0.53989  0.19866  1.0000
  H   H94       1.0  0.6171400000000001  0.67221  0.38406  1.0000
  H   H95       1.0  0.8122500000000001  0.8537299999999998  0.52268  1.0000
  H   H96       1.0  0.4548499999999999  0.65834  0.3777499999999999  1.0000
  C   C1        1.0  0.8731599999999999  0.90172  0.83323  1.0000
  C   C2        1.0  0.8188  0.81354  0.753  1.0000
  C   C3        1.0  0.35463000000000006  0.87557  0.15373999999999993  1.0000
  C   C4        1.0  0.44114999999999993  0.8024200000000001  0.7474199999999998  1.0000
  C   C5        1.0  0.57058  0.71039  0.9983399999999999  1.0000
  C   C6        1.0  0.4700199999999998  0.8420000000000001  0.9964  1.0000
  C   C7        1.0  0.50401  0.65978  0.058159999999999996  1.0000
  C   C8        1.0  0.39331999999999995  0.96176  0.12902  1.0000
  C   C9        1.0  0.31925  0.84322  0.10088999999999997  1.0000
  C   C10       1.0  0.44563  0.92461  0.23487  1.0000
  C   C11       1.0  0.40375000000000005  0.7923  0.0585  1.0000
  C   C12       1.0  0.9675  0.86171  0.9231999999999999  1.0000
  C   C13       1.0  0.5236699999999999  0.75477  0.7024999999999998  1.0000
  C   C14       1.0  0.56751  0.67095  0.74938  1.0000
  C   C15       1.0  0.10601  0.7686500000000002  0.92104  1.0000
  C   C16       1.0  0.06491999999999994  0.70909  0.98988  1.0000
  C   C17       1.0  0.40515000000000007  0.84069  0.2609  1.0000
  C   C18       1.0  0.9088700000000001  0.9400100000000001  0.8826899999999999  1.0000
  C   C19       1.0  0.29174000000000005  0.89225  0.82477  1.0000
  C   C20       1.0  0.9037699999999999  0.85212  0.72629  1.0000
  C   C21       1.0  0.3786300000000001  0.88403  0.83755  1.0000
  C   C22       1.0  0.7862899999999999  0.8639999999999997  0.8598199999999998  1.0000
  C   C23       1.0  0.35298999999999997  0.81243  0.73492  1.0000
  C   C24       1.0  0.5673500000000001  0.58155  0.74242  1.0000
  C   C25       1.0  0.6418199999999998  0.60623  0.84376  1.0000
  C   C26       1.0  0.9265500000000001  0.8016699999999999  0.99291  1.0000
  C   C27       1.0  0.6358800000000001  0.5173500000000001  0.8398199999999998  1.0000
  C   C28       1.0  0.09952999999999995  0.12691  0.66564  1.0000
  C   C29       1.0  0.18819  0.18022000000000002  0.74621  1.0000
  C   C30       1.0  0.12468000000000005  0.64614  0.3453699999999999  1.0000
  C   C31       1.0  0.19678999999999994  0.5595  0.75264  1.0000
  C   C32       1.0  0.28908  0.42916999999999983  0.50109  1.0000
  C   C33       1.0  0.15784000000000006  0.5305100000000001  0.5031499999999998  1.0000
  C   C34       1.0  0.34007000000000004  0.49526  0.44111  1.0000
  C   C35       1.0  0.03738999999999996  0.60952  0.36952  1.0000
  C   C36       1.0  0.15741999999999998  0.68105  0.39828  1.0000
  C   C37       1.0  0.0745  0.55585  0.26444999999999996  1.0000
  C   C38       1.0  0.20791  0.59632  0.44087  1.0000
  C   C39       1.0  0.13939999999999997  0.03250999999999999  0.57608  1.0000
  C   C40       1.0  0.24464000000000005  0.47719000000000006  0.7975799999999998  1.0000
  C   C41       1.0  0.32847  0.43340000000000006  0.75075  1.0000
  C   C42       1.0  0.23174999999999996  0.8937099999999999  0.57918  1.0000
  C   C43       1.0  0.29214  0.93426  0.51058  1.0000
  C   C44       1.0  0.1595999999999999  0.59417  0.23902999999999996  1.0000
  C   C45       1.0  0.06112999999999998  0.09163  0.61601  1.0000
  C   C46       1.0  0.10743000000000003  0.70867  0.67454  1.0000
  C   C47       1.0  0.14789  0.09623000000000002  0.7733099999999999  1.0000
  C   C48       1.0  0.11518999999999997  0.6217  0.66234  1.0000
  C   C49       1.0  0.13893999999999998  0.21282  0.63872  1.0000
  C   C50       1.0  0.1872  0.64766  0.76472  1.0000
  C   C51       1.0  0.41791  0.43206999999999995  0.75861  1.0000
  C   C52       1.0  0.39319  0.35968  0.6561999999999998  1.0000
  C   C53       1.0  0.20023000000000002  0.07294000000000002  0.50661  1.0000
  C   C54       1.0  0.48217  0.36389  0.66123  1.0000
  C   C55       1.0  0.12685  0.09828  0.16676  1.0000
  C   C56       1.0  0.18120999999999998  0.18645999999999996  0.24699999999999997  1.0000
  C   C57       1.0  0.64538  0.12442999999999997  0.84626  1.0000
  C   C58       1.0  0.5588499999999997  0.19757999999999998  0.25258  1.0000
  C   C59       1.0  0.42942  0.28961  0.00166  1.0000
  C   C60       1.0  0.5299799999999999  0.158  0.0035999999999999995  1.0000
  C   C61       1.0  0.49598999999999993  0.34021999999999997  0.94184  1.0000
  C   C62       1.0  0.6066899999999998  0.03824000000000005  0.8709799999999999  1.0000
  C   C63       1.0  0.6807500000000001  0.15677999999999997  0.89911  1.0000
  C   C64       1.0  0.5543700000000001  0.07538999999999998  0.76512  1.0000
  C   C65       1.0  0.5962599999999996  0.20769999999999997  0.9415  1.0000
  C   C66       1.0  0.03250000000000001  0.13829  0.0768  1.0000
  C   C67       1.0  0.47633999999999993  0.24523000000000003  0.2975  1.0000
  C   C68       1.0  0.43249  0.32905  0.25062  1.0000
  C   C69       1.0  0.8940000000000001  0.23134000000000002  0.07895999999999997  1.0000
  C   C70       1.0  0.93508  0.29090999999999995  0.01012  1.0000
  C   C71       1.0  0.5948599999999999  0.15930999999999998  0.7391  1.0000
  C   C72       1.0  0.09113999999999998  0.05999  0.1173  1.0000
  C   C73       1.0  0.70827  0.10775  0.17523  1.0000
  C   C74       1.0  0.09622999999999998  0.14788  0.27371  1.0000
  C   C75       1.0  0.62138  0.11597  0.16245  1.0000
  C   C76       1.0  0.21371999999999997  0.136  0.14018  1.0000
  C   C77       1.0  0.64701  0.18757  0.26508  1.0000
  C   C78       1.0  0.43266  0.41844999999999993  0.25757999999999986  1.0000
  C   C79       1.0  0.3581899999999999  0.39377  0.15623  1.0000
  C   C80       1.0  0.07345999999999998  0.19833  0.00708  1.0000
  C   C81       1.0  0.36412  0.4826499999999999  0.16017999999999993  1.0000
  C   C82       1.0  0.90048  0.87309  0.3343499999999999  1.0000
  C   C83       1.0  0.81181  0.81978  0.25379  1.0000
  C   C84       1.0  0.87533  0.35385999999999995  0.65463  1.0000
  C   C85       1.0  0.80321  0.4405  0.24735999999999997  1.0000
  C   C86       1.0  0.71092  0.57083  0.49891  1.0000
  C   C87       1.0  0.8421699999999999  0.4694900000000001  0.49685  1.0000
  C   C88       1.0  0.65993  0.5047400000000002  0.55889  1.0000
  C   C89       1.0  0.9626100000000001  0.39047999999999977  0.63048  1.0000
  C   C90       1.0  0.8425800000000001  0.31895  0.60172  1.0000
  C   C91       1.0  0.9255000000000002  0.44415000000000016  0.7355499999999998  1.0000
  C   C92       1.0  0.7921  0.40367999999999993  0.55912  1.0000
  C   C93       1.0  0.8606100000000001  0.9674899999999999  0.42392  1.0000
  C   C94       1.0  0.75536  0.52281  0.20242  1.0000
  C   C95       1.0  0.67153  0.5665999999999999  0.24924999999999997  1.0000
  C   C96       1.0  0.7682500000000001  0.10628999999999997  0.42082  1.0000
  C   C97       1.0  0.70786  0.06574000000000002  0.48941999999999997  1.0000
  C   C98       1.0  0.8404000000000001  0.40583  0.76097  1.0000
  C   C99       1.0  0.9388699999999999  0.90837  0.38399  1.0000
  C   C100      1.0  0.8925700000000001  0.29133  0.32546  1.0000
  C   C101      1.0  0.85211  0.90377  0.22668999999999997  1.0000
  C   C102      1.0  0.8848199999999996  0.3783  0.33766  1.0000
  C   C103      1.0  0.86107  0.78718  0.36128  1.0000
  C   C104      1.0  0.8128  0.35233999999999993  0.23528  1.0000
  C   C105      1.0  0.5821  0.56793  0.24139  1.0000
  C   C106      1.0  0.60682  0.64032  0.3438  1.0000
  C   C107      1.0  0.7997699999999999  0.9270599999999997  0.49339  1.0000
  C   C108      1.0  0.51784  0.6361100000000001  0.3387699999999999  1.0000
  N   N1        1.0  0.41927999999999976  0.69959  0.08939999999999998  1.0000
  N   N2        1.0  0.05935000000000004  0.84684  0.88609  1.0000
  N   N3        1.0  0.55406  0.80255  0.96482  1.0000
  N   N4        1.0  0.35917999999999994  0.81393  0.22080999999999995  1.0000
  N   N5        1.0  0.43964999999999976  0.98805  0.16832  1.0000
  N   N6        1.0  0.75641  0.82129  0.81975  1.0000
  N   N7        1.0  0.93226  0.8985000000000002  0.7649799999999998  1.0000
  N   N8        1.0  0.6071800000000002  0.68417  0.79965  1.0000
  N   N9        1.0  0.4552799999999999  0.8390199999999999  0.79955  1.0000
  N   N10       1.0  0.59989  0.50378  0.78759  1.0000
  N   N11       1.0  0.27682  0.8563599999999999  0.77298  1.0000
  N   N12       1.0  0.97363  0.7246199999999999  0.027999999999999994  1.0000
  N   N13       1.0  0.30064  0.58011  0.40984  1.0000
  N   N14       1.0  0.1534699999999999  0.9408  0.61351  1.0000
  N   N15       1.0  0.19693  0.44630999999999993  0.53473  1.0000
  N   N16       1.0  0.18691  0.64003  0.27888999999999997  1.0000
  N   N17       1.0  0.010300000000000054  0.56378  0.3302099999999999  1.0000
  N   N18       1.0  0.18202999999999997  0.24209000000000003  0.67885  1.0000
  N   N19       1.0  0.10142000000000001  0.06829  0.73435  1.0000
  N   N20       1.0  0.31509  0.3948999999999999  0.69983  1.0000
  N   N21       1.0  0.16005000000000003  0.54531  0.70064  1.0000
  N   N22       1.0  0.49582  0.3988700000000001  0.7139699999999998  1.0000
  N   N23       1.0  0.14356999999999986  0.72365  0.72619  1.0000
  N   N24       1.0  0.2773299999999999  0.025389999999999996  0.47209  1.0000
  N   N25       1.0  0.58072  0.30041  0.9106  1.0000
  N   N26       1.0  0.94065  0.15316  0.11391  1.0000
  N   N27       1.0  0.44595  0.19745  0.03517  1.0000
  N   N28       1.0  0.64082  0.18607000000000007  0.7791799999999998  1.0000
  N   N29       1.0  0.56036  0.011950000000000047  0.8316799999999998  1.0000
  N   N30       1.0  0.2436  0.17871  0.18025  1.0000
  N   N31       1.0  0.06774  0.1015  0.23501999999999998  1.0000
  N   N32       1.0  0.3928299999999999  0.31583  0.20033999999999993  1.0000
  N   N33       1.0  0.54473  0.16098  0.20044999999999996  1.0000
  N   N34       1.0  0.40011  0.49621999999999994  0.21240999999999996  1.0000
  N   N35       1.0  0.72319  0.14364  0.22702  1.0000
  N   N36       1.0  0.02637000000000002  0.27538  0.972  1.0000
  N   N37       1.0  0.6993600000000001  0.41989000000000004  0.5901499999999997  1.0000
  N   N38       1.0  0.84653  0.0592  0.38649  1.0000
  N   N39       1.0  0.80308  0.55369  0.46527  1.0000
  N   N40       1.0  0.8131  0.3599700000000001  0.7211099999999998  1.0000
  N   N41       1.0  0.9897  0.4362199999999999  0.6697899999999999  1.0000
  N   N42       1.0  0.81797  0.75791  0.32114999999999994  1.0000
  N   N43       1.0  0.8985799999999999  0.9317099999999998  0.26565  1.0000
  N   N44       1.0  0.6849199999999998  0.6050999999999999  0.30017  1.0000
  N   N45       1.0  0.83996  0.45469  0.29936  1.0000
  N   N46       1.0  0.50418  0.60113  0.28603  1.0000
  N   N47       1.0  0.8564399999999998  0.27635  0.27381  1.0000
  N   N48       1.0  0.72268  0.9746100000000001  0.5279099999999999  1.0000
