data_image0
_chemical_formula_structural       Na4Zn4Fe4H152C168N8O48
_chemical_formula_sum              "Na4 Zn4 Fe4 H152 C168 N8 O48"
_cell_length_a       12.33549
_cell_length_b       18.13335
_cell_length_c       24.292499999999997
_cell_angle_alpha    103.17011
_cell_angle_beta     89.91193
_cell_angle_gamma    89.96523999999998

_symmetry_space_group_name_H-M    'P 1'
_symmetry_Int_Tables_number       1

loop_
  _symmetry_equiv_pos_as_xyz
  'x,y,z'

loop_
  _atom_site_type_symbol
  _atom_site_label
  _atom_site_symmetry_multiplicity
  _atom_site_fract_x
  _atom_site_fract_y
  _atom_site_fract_z
  _atom_site_occupancy
  Na  Na1       1.0  0.0103  0.09243  0.07776  1.0000
  Na  Na2       1.0  0.51294  0.41121  0.925  1.0000
  Na  Na3       1.0  0.98968  0.9075600000000001  0.92224  1.0000
  Na  Na4       1.0  0.4870600000000001  0.58879  0.075  1.0000
  Zn  Zn1       1.0  0.15696  0.21958  0.13872  1.0000
  Zn  Zn2       1.0  0.6539700000000002  0.28013  0.86479  1.0000
  Zn  Zn3       1.0  0.8430400000000002  0.7804300000000003  0.8612800000000002  1.0000
  Zn  Zn4       1.0  0.34603  0.71987  0.13521  1.0000
  Fe  Fe1       1.0  0.22827  0.5867  0.64068  1.0000
  Fe  Fe2       1.0  0.7266400000000002  0.9136099999999999  0.35999  1.0000
  Fe  Fe3       1.0  0.77172  0.4133  0.35932  1.0000
  Fe  Fe4       1.0  0.27335  0.0864  0.64001  1.0000
  H   H1        1.0  0.9439400000000002  0.0324  0.24036  1.0000
  H   H2        1.0  0.89303  0.14208  0.41428999999999994  1.0000
  H   H3        1.0  0.10188  0.24483  0.3103  1.0000
  H   H4        1.0  0.9307100000000001  0.29744  0.42781  1.0000
  H   H5        1.0  0.03939  0.25028  0.45423  1.0000
  H   H6        1.0  0.011220000000000004  0.3586  0.51222  1.0000
  H   H7        1.0  0.20321  0.42789  0.3859600000000001  1.0000
  H   H8        1.0  0.38325  0.57414  0.52438  1.0000
  H   H9        1.0  0.44956000000000007  0.60048  0.46646  1.0000
  H   H10       1.0  0.42905  0.50356  0.46552  1.0000
  H   H11       1.0  0.22719000000000003  0.5400600000000001  0.3599200000000001  1.0000
  H   H12       1.0  0.34386  0.48663  0.37026  1.0000
  H   H13       1.0  0.35558  0.58424  0.37223  1.0000
  H   H14       1.0  0.15844  0.6474899999999999  0.44265  1.0000
  H   H15       1.0  0.29258  0.68241  0.44805  1.0000
  H   H16       1.0  0.22650000000000003  0.6646  0.50897  1.0000
  H   H17       1.0  0.98455  0.43623000000000006  0.59995  1.0000
  H   H18       1.0  0.08967  0.51006  0.72426  1.0000
  H   H19       1.0  0.9582200000000001  0.50198  0.69205  1.0000
  H   H20       1.0  0.96168  0.63546  0.68712  1.0000
  H   H21       1.0  0.99629  0.63447  0.7584100000000001  1.0000
  H   H22       1.0  0.09526  0.74213  0.77234  1.0000
  H   H23       1.0  0.19054  0.84838  0.80419  1.0000
  H   H24       1.0  0.51045  0.87974  0.74395  1.0000
  H   H25       1.0  0.59186  0.67182  0.7036799999999999  1.0000
  H   H26       1.0  0.63029  0.6535600000000001  0.63124  1.0000
  H   H27       1.0  0.49791000000000013  0.62943  0.65033  1.0000
  H   H28       1.0  0.55208  0.73191  0.56603  1.0000
  H   H29       1.0  0.45678  0.80539  0.5926  1.0000
  H   H30       1.0  0.41816  0.70918  0.58399  1.0000
  H   H31       1.0  0.6560800000000001  0.80781  0.71194  1.0000
  H   H32       1.0  0.60387  0.86207  0.66538  1.0000
  H   H33       1.0  0.68782  0.78283  0.63894  1.0000
  H   H34       1.0  0.2531900000000001  0.9303800000000001  0.8751100000000002  1.0000
  H   H35       1.0  0.21235000000000007  0.98037  0.8231200000000001  1.0000
  H   H36       1.0  0.21864000000000006  0.019569999999999987  0.95959  1.0000
  H   H37       1.0  0.37239  0.23734  0.99563  1.0000
  H   H38       1.0  0.42066  0.08382  0.83371  1.0000
  H   H39       1.0  0.44368  0.46768000000000004  0.76276  1.0000
  H   H40       1.0  0.39331  0.35878  0.58864  1.0000
  H   H41       1.0  0.5997500000000001  0.25451  0.6925099999999998  1.0000
  H   H42       1.0  0.42949000000000004  0.20418000000000006  0.57403  1.0000
  H   H43       1.0  0.54001  0.25071  0.54864  1.0000
  H   H44       1.0  0.51021  0.14238  0.48954  1.0000
  H   H45       1.0  0.70124  0.07151  0.61509  1.0000
  H   H46       1.0  0.8820900000000003  0.9265199999999999  0.47569  1.0000
  H   H47       1.0  0.9491  0.9003400000000001  0.53338  1.0000
  H   H48       1.0  0.9276200000000001  0.99718  0.5344  1.0000
  H   H49       1.0  0.72709  0.9599  0.64066  1.0000
  H   H50       1.0  0.84325  0.013579999999999986  0.63  1.0000
  H   H51       1.0  0.85568  0.9159300000000001  0.62785  1.0000
  H   H52       1.0  0.65847  0.85252  0.55788  1.0000
  H   H53       1.0  0.7928600000000001  0.8178700000000001  0.55232  1.0000
  H   H54       1.0  0.72659  0.83564  0.4915  1.0000
  H   H55       1.0  0.48457  0.0655  0.40121  1.0000
  H   H56       1.0  0.58985  0.99181  0.277  1.0000
  H   H57       1.0  0.45792  0.9992100000000002  0.30885  1.0000
  H   H58       1.0  0.46180000000000004  0.8652800000000003  0.31256  1.0000
  H   H59       1.0  0.4972500000000001  0.86761  0.24159000000000003  1.0000
  H   H60       1.0  0.59663  0.75943  0.22724  1.0000
  H   H61       1.0  0.69259  0.65291  0.19560999999999998  1.0000
  H   H62       1.0  0.010860000000000003  0.6213000000000001  0.25717  1.0000
  H   H63       1.0  0.09196  0.8293  0.29708  1.0000
  H   H64       1.0  0.12934000000000004  0.84782  0.36958  1.0000
  H   H65       1.0  0.99712  0.87172  0.35018000000000005  1.0000
  H   H66       1.0  0.052210000000000006  0.7690300000000001  0.43460000000000004  1.0000
  H   H67       1.0  0.95696  0.69565  0.40822  1.0000
  H   H68       1.0  0.91808  0.79191  0.41715  1.0000
  H   H69       1.0  0.15597  0.69333  0.28857  1.0000
  H   H70       1.0  0.10389  0.63908  0.3352  1.0000
  H   H71       1.0  0.1877  0.71828  0.36150999999999994  1.0000
  H   H72       1.0  0.7560800000000001  0.57105  0.1261  1.0000
  H   H73       1.0  0.7144700000000003  0.52019  0.17738  1.0000
  H   H74       1.0  0.72185  0.48234  0.04152  1.0000
  H   H75       1.0  0.8737200000000002  0.26367  0.00581  1.0000
  H   H76       1.0  0.9232  0.41776  0.16725  1.0000
  H   H77       1.0  0.056060000000000006  0.96761  0.7596400000000001  1.0000
  H   H78       1.0  0.10696  0.85793  0.58571  1.0000
  H   H79       1.0  0.8981200000000001  0.75518  0.6897  1.0000
  H   H80       1.0  0.06929000000000002  0.70257  0.57219  1.0000
  H   H81       1.0  0.9606  0.74973  0.54577  1.0000
  H   H82       1.0  0.9887700000000003  0.6414  0.48779  1.0000
  H   H83       1.0  0.7967900000000001  0.57212  0.61404  1.0000
  H   H84       1.0  0.61674  0.42586  0.47563  1.0000
  H   H85       1.0  0.55044  0.39951999999999993  0.53354  1.0000
  H   H86       1.0  0.57094  0.49645  0.53448  1.0000
  H   H87       1.0  0.7728000000000003  0.45995  0.64008  1.0000
  H   H88       1.0  0.65614  0.51338  0.62974  1.0000
  H   H89       1.0  0.6444100000000001  0.41576  0.62777  1.0000
  H   H90       1.0  0.8415600000000001  0.35251  0.55735  1.0000
  H   H91       1.0  0.70742  0.31759  0.55195  1.0000
  H   H92       1.0  0.7734900000000001  0.3354  0.49103  1.0000
  H   H93       1.0  0.01544  0.5637800000000001  0.40005  1.0000
  H   H94       1.0  0.91032  0.48995  0.27574  1.0000
  H   H95       1.0  0.04177000000000001  0.4980200000000001  0.30795  1.0000
  H   H96       1.0  0.038310000000000004  0.36455  0.31289  1.0000
  H   H97       1.0  0.00371  0.36553  0.24159000000000003  1.0000
  H   H98       1.0  0.9047300000000001  0.25787  0.22766  1.0000
  H   H99       1.0  0.8094600000000001  0.15162  0.19581  1.0000
  H   H100      1.0  0.48954000000000003  0.12026  0.25605  1.0000
  H   H101      1.0  0.40813  0.32819  0.29632  1.0000
  H   H102      1.0  0.36971  0.34645000000000004  0.36876  1.0000
  H   H103      1.0  0.50209  0.37057  0.34967  1.0000
  H   H104      1.0  0.44791  0.2681  0.4339700000000001  1.0000
  H   H105      1.0  0.54321  0.19461  0.4074  1.0000
  H   H106      1.0  0.58183  0.29082  0.41601  1.0000
  H   H107      1.0  0.34391  0.19219  0.28806  1.0000
  H   H108      1.0  0.3961300000000001  0.13793  0.33462  1.0000
  H   H109      1.0  0.31217  0.21718  0.36106  1.0000
  H   H110      1.0  0.74681  0.06963  0.12489  1.0000
  H   H111      1.0  0.7876500000000002  0.019630000000000005  0.17688  1.0000
  H   H112      1.0  0.7813600000000002  0.98043  0.04041  1.0000
  H   H113      1.0  0.6276  0.76266  0.00437  1.0000
  H   H114      1.0  0.57933  0.9161800000000001  0.16629  1.0000
  H   H115      1.0  0.55631  0.53232  0.23724000000000003  1.0000
  H   H116      1.0  0.60669  0.64122  0.41135999999999995  1.0000
  H   H117      1.0  0.40025  0.7454900000000001  0.30749  1.0000
  H   H118      1.0  0.5705100000000001  0.7958300000000004  0.42597000000000007  1.0000
  H   H119      1.0  0.45998  0.74929  0.45136  1.0000
  H   H120      1.0  0.48979000000000006  0.8576200000000003  0.51046  1.0000
  H   H121      1.0  0.29875  0.9285000000000001  0.38491  1.0000
  H   H122      1.0  0.11791000000000003  0.07348  0.52431  1.0000
  H   H123      1.0  0.05090000000000001  0.09967  0.46662  1.0000
  H   H124      1.0  0.07238  0.0028200000000000096  0.4656  1.0000
  H   H125      1.0  0.2729  0.04009999999999999  0.35934  1.0000
  H   H126      1.0  0.15675  0.98642  0.37  1.0000
  H   H127      1.0  0.14431  0.08407000000000002  0.37215000000000004  1.0000
  H   H128      1.0  0.34153000000000006  0.14748  0.44212  1.0000
  H   H129      1.0  0.20714000000000002  0.18213  0.44768  1.0000
  H   H130      1.0  0.27341  0.16436000000000003  0.5085  1.0000
  H   H131      1.0  0.5154300000000002  0.9344999999999999  0.59879  1.0000
  H   H132      1.0  0.41015  0.008189999999999992  0.723  1.0000
  H   H133      1.0  0.54207  0.0007899999999999994  0.69115  1.0000
  H   H134      1.0  0.53819  0.13472  0.68744  1.0000
  H   H135      1.0  0.50274  0.13240000000000002  0.7584100000000001  1.0000
  H   H136      1.0  0.40337  0.24057  0.77276  1.0000
  H   H137      1.0  0.3074  0.3471  0.80439  1.0000
  H   H138      1.0  0.9891400000000001  0.37870000000000004  0.74283  1.0000
  H   H139      1.0  0.90803  0.1707  0.70292  1.0000
  H   H140      1.0  0.87065  0.15218000000000004  0.63042  1.0000
  H   H141      1.0  0.00287  0.12828000000000003  0.64982  1.0000
  H   H142      1.0  0.9477900000000002  0.23098000000000002  0.5654  1.0000
  H   H143      1.0  0.04303  0.30435  0.59178  1.0000
  H   H144      1.0  0.08191  0.20809  0.58285  1.0000
  H   H145      1.0  0.84402  0.30667  0.71143  1.0000
  H   H146      1.0  0.8961000000000001  0.3609200000000001  0.6648  1.0000
  H   H147      1.0  0.8123000000000001  0.28172  0.63849  1.0000
  H   H148      1.0  0.24392  0.42896  0.8739  1.0000
  H   H149      1.0  0.28553  0.47981  0.82262  1.0000
  H   H150      1.0  0.27815  0.51766  0.95848  1.0000
  H   H151      1.0  0.12627  0.73633  0.99419  1.0000
  H   H152      1.0  0.07679  0.58224  0.8327499999999999  1.0000
  C   C1        1.0  0.06744  0.14107  0.21189  1.0000
  C   C2        1.0  0.02829  0.13869  0.26948  1.0000
  C   C3        1.0  0.96075  0.07933  0.27595  1.0000
  C   C4        1.0  0.91467  0.08024000000000002  0.3286  1.0000
  C   C5        1.0  0.9319800000000001  0.1422  0.37403  1.0000
  C   C6        1.0  0.99781  0.20256000000000002  0.36759  1.0000
  C   C7        1.0  0.048639999999999996  0.19938  0.31569  1.0000
  C   C8        1.0  0.8461700000000001  0.0158  0.33634  1.0000
  C   C9        1.0  0.009890000000000003  0.26941  0.41692  1.0000
  C   C10       1.0  0.10602000000000002  0.38592  0.44473  1.0000
  C   C11       1.0  0.06615  0.39822000000000013  0.49924  1.0000
  C   C12       1.0  0.09853000000000002  0.46332  0.53971  1.0000
  C   C13       1.0  0.16827000000000006  0.51884  0.52451  1.0000
  C   C14       1.0  0.20524  0.50668  0.46699  1.0000
  C   C15       1.0  0.1743  0.4401200000000001  0.42937  1.0000
  C   C16       1.0  0.28266  0.56264  0.44829  1.0000
  C   C17       1.0  0.3926500000000001  0.5601200000000001  0.4783  1.0000
  C   C18       1.0  0.30291000000000007  0.54156  0.38397  1.0000
  C   C19       1.0  0.23683  0.6441999999999999  0.4633  1.0000
  C   C20       1.0  0.054460000000000015  0.47200000000000003  0.59572  1.0000
  C   C21       1.0  0.03698  0.53112  0.69471  1.0000
  C   C22       1.0  0.02306  0.61728  0.71411  1.0000
  C   C23       1.0  0.15163  0.71728  0.73808  1.0000
  C   C24       1.0  0.2487  0.7602300000000001  0.73551  1.0000
  C   C25       1.0  0.25848  0.8298000000000003  0.7759  1.0000
  C   C26       1.0  0.3521  0.8722  0.7777500000000002  1.0000
  C   C27       1.0  0.4375300000000001  0.8453700000000002  0.73981  1.0000
  C   C28       1.0  0.43096000000000007  0.7783200000000001  0.69852  1.0000
  C   C29       1.0  0.33305  0.73469  0.69526  1.0000
  C   C30       1.0  0.52434  0.7513099999999999  0.65697  1.0000
  C   C31       1.0  0.56284  0.67137  0.66091  1.0000
  C   C32       1.0  0.48512  0.74921  0.59608  1.0000
  C   C33       1.0  0.62308  0.8043500000000001  0.66943  1.0000
  C   C34       1.0  0.28026  0.97113  0.85041  1.0000
  C   C35       1.0  0.31184  0.044249999999999984  0.89049  1.0000
  C   C36       1.0  0.26837  0.060920000000000044  0.94504  1.0000
  C   C37       1.0  0.28914  0.13003000000000003  0.98323  1.0000
  C   C38       1.0  0.3556900000000001  0.18345000000000003  0.96668  1.0000
  C   C39       1.0  0.40389  0.16591000000000006  0.91303  1.0000
  C   C40       1.0  0.38193000000000005  0.09675999999999998  0.8750300000000001  1.0000
  C   C41       1.0  0.48376  0.2196200000000001  0.8979100000000001  1.0000
  C   C42       1.0  0.23842000000000005  0.14384  0.04043  1.0000
  C   C43       1.0  0.5666400000000001  0.35927  0.79093  1.0000
  C   C44       1.0  0.5271700000000001  0.36117999999999995  0.7333299999999999  1.0000
  C   C45       1.0  0.46002  0.42083  0.727  1.0000
  C   C46       1.0  0.41421  0.42025  0.67441  1.0000
  C   C47       1.0  0.43172  0.3584  0.62892  1.0000
  C   C48       1.0  0.49689  0.29765  0.63522  1.0000
  C   C49       1.0  0.54714  0.30032999999999993  0.6871099999999999  1.0000
  C   C50       1.0  0.34603  0.4847  0.66644  1.0000
  C   C51       1.0  0.50899  0.23121000000000003  0.58554  1.0000
  C   C52       1.0  0.60432  0.11420999999999998  0.55681  1.0000
  C   C53       1.0  0.56513  0.10253  0.50223  1.0000
  C   C54       1.0  0.5973600000000001  0.03745  0.46145  1.0000
  C   C55       1.0  0.6664700000000001  0.98136  0.47637  1.0000
  C   C56       1.0  0.7037700000000001  0.99337  0.53379  1.0000
  C   C57       1.0  0.67261  0.05969  0.5717  1.0000
  C   C58       1.0  0.78198  0.93759  0.55212  1.0000
  C   C59       1.0  0.8916500000000002  0.94052  0.52173  1.0000
  C   C60       1.0  0.80263  0.95858  0.61636  1.0000
  C   C61       1.0  0.73684  0.85595  0.53715  1.0000
  C   C62       1.0  0.5538  0.029119999999999993  0.4054  1.0000
  C   C63       1.0  0.53682  0.97022  0.30622  1.0000
  C   C64       1.0  0.5234  0.8841200000000001  0.28598  1.0000
  C   C65       1.0  0.65238  0.78405  0.26173  1.0000
  C   C66       1.0  0.7493500000000002  0.74099  0.26458  1.0000
  C   C67       1.0  0.75988  0.67144  0.22423  1.0000
  C   C68       1.0  0.8532900000000001  0.62888  0.22304999999999997  1.0000
  C   C69       1.0  0.93805  0.65581  0.26115  1.0000
  C   C70       1.0  0.93093  0.72287  0.30233  1.0000
  C   C71       1.0  0.83271  0.7662100000000001  0.30535  1.0000
  C   C72       1.0  0.024090000000000007  0.74989  0.34381000000000006  1.0000
  C   C73       1.0  0.06233  0.8298300000000001  0.3398  1.0000
  C   C74       1.0  0.98507  0.75187  0.40476000000000006  1.0000
  C   C75       1.0  0.12298000000000002  0.69681  0.33114  1.0000
  C   C76       1.0  0.7828800000000001  0.52996  0.15052  1.0000
  C   C77       1.0  0.8151500000000002  0.45731000000000005  0.11026  1.0000
  C   C78       1.0  0.77151  0.44077000000000005  0.05584  1.0000
  C   C79       1.0  0.7915100000000002  0.37136  0.01785  1.0000
  C   C80       1.0  0.85785  0.31797  0.03448  1.0000
  C   C81       1.0  0.9066000000000001  0.33556  0.08791  1.0000
  C   C82       1.0  0.8851200000000001  0.40479  0.12584  1.0000
  C   C83       1.0  0.9837600000000002  0.27972  0.10242  1.0000
  C   C84       1.0  0.73958  0.3564300000000001  0.9610500000000001  1.0000
  C   C85       1.0  0.9325700000000001  0.85893  0.78811  1.0000
  C   C86       1.0  0.9717100000000001  0.86132  0.73052  1.0000
  C   C87       1.0  0.03925  0.92068  0.7240499999999999  1.0000
  C   C88       1.0  0.08533000000000002  0.9197700000000001  0.6714  1.0000
  C   C89       1.0  0.06801  0.8578  0.62597  1.0000
  C   C90       1.0  0.00218  0.79744  0.63241  1.0000
  C   C91       1.0  0.95136  0.8006299999999998  0.6843099999999999  1.0000
  C   C92       1.0  0.15382  0.9842  0.66366  1.0000
  C   C93       1.0  0.9901  0.73059  0.58308  1.0000
  C   C94       1.0  0.89397  0.61408  0.55527  1.0000
  C   C95       1.0  0.93384  0.60178  0.50076  1.0000
  C   C96       1.0  0.9014700000000001  0.53668  0.46029  1.0000
  C   C97       1.0  0.8317300000000002  0.48117  0.47549  1.0000
  C   C98       1.0  0.7947600000000002  0.49333  0.53301  1.0000
  C   C99       1.0  0.8257000000000002  0.55988  0.57063  1.0000
  C   C100      1.0  0.7173300000000002  0.43735999999999997  0.55171  1.0000
  C   C101      1.0  0.60735  0.43988  0.5217  1.0000
  C   C102      1.0  0.69709  0.45843999999999996  0.61603  1.0000
  C   C103      1.0  0.7631700000000002  0.3558  0.5367  1.0000
  C   C104      1.0  0.9455400000000002  0.528  0.40428  1.0000
  C   C105      1.0  0.96302  0.46889000000000003  0.30529  1.0000
  C   C106      1.0  0.97693  0.38272  0.28589  1.0000
  C   C107      1.0  0.84837  0.28272  0.26192  1.0000
  C   C108      1.0  0.7512900000000001  0.23977  0.26449  1.0000
  C   C109      1.0  0.74152  0.1702  0.22411  1.0000
  C   C110      1.0  0.6479000000000003  0.1278  0.22224999999999998  1.0000
  C   C111      1.0  0.56246  0.15463  0.2602  1.0000
  C   C112      1.0  0.56904  0.22169000000000003  0.30148  1.0000
  C   C113      1.0  0.66694  0.26531  0.30474  1.0000
  C   C114      1.0  0.47566000000000014  0.24869  0.34303  1.0000
  C   C115      1.0  0.43716000000000005  0.32863  0.33909  1.0000
  C   C116      1.0  0.51488  0.25079  0.40392  1.0000
  C   C117      1.0  0.37691  0.19565  0.33057  1.0000
  C   C118      1.0  0.71974  0.028880000000000003  0.14959  1.0000
  C   C119      1.0  0.68815  0.95575  0.10951  1.0000
  C   C120      1.0  0.73163  0.9390900000000001  0.05496  1.0000
  C   C121      1.0  0.71086  0.8699700000000001  0.01677  1.0000
  C   C122      1.0  0.64431  0.81656  0.03333  1.0000
  C   C123      1.0  0.5961  0.83409  0.08698  1.0000
  C   C124      1.0  0.61806  0.9032400000000002  0.12498  1.0000
  C   C125      1.0  0.51624  0.7803800000000003  0.10209000000000001  1.0000
  C   C126      1.0  0.76157  0.85617  0.95957  1.0000
  C   C127      1.0  0.43335  0.64073  0.20907  1.0000
  C   C128      1.0  0.47283  0.6388200000000002  0.26667  1.0000
  C   C129      1.0  0.53998  0.57918  0.273  1.0000
  C   C130      1.0  0.5857900000000001  0.57975  0.32559  1.0000
  C   C131      1.0  0.5682800000000001  0.64161  0.37108  1.0000
  C   C132      1.0  0.50311  0.70236  0.36478000000000005  1.0000
  C   C133      1.0  0.45286  0.69967  0.31289  1.0000
  C   C134      1.0  0.65396  0.5153  0.33356  1.0000
  C   C135      1.0  0.49101000000000006  0.7687900000000003  0.41446000000000005  1.0000
  C   C136      1.0  0.3956700000000001  0.88579  0.44319  1.0000
  C   C137      1.0  0.43486  0.8974700000000001  0.49777  1.0000
  C   C138      1.0  0.40263000000000004  0.96255  0.53855  1.0000
  C   C139      1.0  0.33353000000000005  0.018640000000000007  0.52363  1.0000
  C   C140      1.0  0.29622  0.006640000000000022  0.46621000000000007  1.0000
  C   C141      1.0  0.32739  0.94032  0.42830000000000007  1.0000
  C   C142      1.0  0.21802  0.06241000000000003  0.44788  1.0000
  C   C143      1.0  0.10834  0.05949  0.47827  1.0000
  C   C144      1.0  0.19737  0.04141999999999999  0.38364  1.0000
  C   C145      1.0  0.26315  0.14405000000000004  0.46285  1.0000
  C   C146      1.0  0.4462  0.97088  0.5946  1.0000
  C   C147      1.0  0.46317000000000014  0.029779999999999994  0.69378  1.0000
  C   C148      1.0  0.47659000000000007  0.11587999999999998  0.7140199999999999  1.0000
  C   C149      1.0  0.3476100000000001  0.21595000000000006  0.7382700000000001  1.0000
  C   C150      1.0  0.25064  0.25901  0.7354199999999999  1.0000
  C   C151      1.0  0.24011  0.32857  0.7757800000000001  1.0000
  C   C152      1.0  0.1467  0.3711200000000001  0.7769500000000001  1.0000
  C   C153      1.0  0.06195  0.3442  0.73885  1.0000
  C   C154      1.0  0.06906  0.27713  0.69767  1.0000
  C   C155      1.0  0.16729000000000005  0.23378999999999994  0.6946499999999999  1.0000
  C   C156      1.0  0.9759000000000001  0.25011  0.65619  1.0000
  C   C157      1.0  0.9376700000000001  0.17017  0.6602  1.0000
  C   C158      1.0  0.01492  0.24813  0.59524  1.0000
  C   C159      1.0  0.8770100000000001  0.3032  0.66886  1.0000
  C   C160      1.0  0.21712  0.47004  0.84948  1.0000
  C   C161      1.0  0.18485000000000001  0.54269  0.8897400000000001  1.0000
  C   C162      1.0  0.22848  0.55923  0.9441600000000001  1.0000
  C   C163      1.0  0.20848000000000003  0.62864  0.98215  1.0000
  C   C164      1.0  0.14215  0.68203  0.96552  1.0000
  C   C165      1.0  0.0934  0.66445  0.91209  1.0000
  C   C166      1.0  0.11487  0.5952100000000001  0.87416  1.0000
  C   C167      1.0  0.01624  0.7202800000000003  0.89758  1.0000
  C   C168      1.0  0.26042  0.64357  0.03895  1.0000
  N   N1        1.0  0.12635  0.65274  0.70483  1.0000
  N   N2        1.0  0.09148000000000002  0.51866  0.64026  1.0000
  N   N3        1.0  0.62649  0.84842  0.29516  1.0000
  N   N4        1.0  0.5905  0.98213  0.36079  1.0000
  N   N5        1.0  0.8736500000000001  0.34726  0.29517  1.0000
  N   N6        1.0  0.9085200000000001  0.48135  0.35974  1.0000
  N   N7        1.0  0.3735000000000001  0.15159  0.70484  1.0000
  N   N8        1.0  0.40949000000000013  0.017869999999999997  0.63921  1.0000
  O   O1        1.0  0.14513  0.18910000000000005  0.20908000000000002  1.0000
  O   O2        1.0  0.021220000000000006  0.10066  0.16943  1.0000
  O   O3        1.0  0.8034900000000001  0.97031  0.29427  1.0000
  O   O4        1.0  0.83068  0.007120000000000013  0.38681  1.0000
  O   O5        1.0  0.17977000000000007  0.09298  0.05280000000000001  1.0000
  O   O6        1.0  0.2553  0.20903  0.07489  1.0000
  O   O7        1.0  0.48655  0.28852  0.9247600000000001  1.0000
  O   O8        1.0  0.55195  0.19245  0.85809  1.0000
  O   O9        1.0  0.08476  0.32243999999999995  0.40258999999999995  1.0000
  O   O10       1.0  0.3708  0.94077  0.81557  1.0000
  O   O11       1.0  0.19581  0.58112  0.56184  1.0000
  O   O12       1.0  0.32225  0.67227  0.65547  1.0000
  O   O13       1.0  0.6409900000000001  0.3089300000000001  0.79373  1.0000
  O   O14       1.0  0.52376  0.40249  0.83334  1.0000
  O   O15       1.0  0.30135  0.52969  0.7082  1.0000
  O   O16       1.0  0.33299  0.49364  0.61579  1.0000
  O   O17       1.0  0.68284  0.4074499999999999  0.9475099999999999  1.0000
  O   O18       1.0  0.7530600000000001  0.28977  0.92798  1.0000
  O   O19       1.0  0.98102  0.2114  0.07524  1.0000
  O   O20       1.0  0.053580000000000017  0.30459  0.14202  1.0000
  O   O21       1.0  0.58229  0.17706  0.59962  1.0000
  O   O22       1.0  0.8726  0.5598  0.18595  1.0000
  O   O23       1.0  0.69316  0.9189  0.43889999999999996  1.0000
  O   O24       1.0  0.82052  0.82813  0.34546  1.0000
  O   O25       1.0  0.8548800000000001  0.81091  0.79093  1.0000
  O   O26       1.0  0.97878  0.8993500000000001  0.8305700000000001  1.0000
  O   O27       1.0  0.1965  0.029690000000000008  0.70573  1.0000
  O   O28       1.0  0.16931  0.99288  0.61319  1.0000
  O   O29       1.0  0.82023  0.9070199999999999  0.9472  1.0000
  O   O30       1.0  0.74469  0.7909699999999998  0.9251099999999999  1.0000
  O   O31       1.0  0.51344  0.71148  0.07524  1.0000
  O   O32       1.0  0.44804  0.80755  0.14191  1.0000
  O   O33       1.0  0.9152300000000001  0.67756  0.59741  1.0000
  O   O34       1.0  0.62919  0.05922999999999999  0.18443  1.0000
  O   O35       1.0  0.8041800000000001  0.41888000000000003  0.43816  1.0000
  O   O36       1.0  0.67775  0.32774000000000003  0.34453  1.0000
  O   O37       1.0  0.35901000000000005  0.6910700000000001  0.20627  1.0000
  O   O38       1.0  0.47624  0.59751  0.16666  1.0000
  O   O39       1.0  0.6986400000000003  0.47031  0.2918  1.0000
  O   O40       1.0  0.66701  0.50637  0.38421  1.0000
  O   O41       1.0  0.31715  0.5925500000000001  0.05249  1.0000
  O   O42       1.0  0.24694  0.71023  0.07202  1.0000
  O   O43       1.0  0.01896  0.7886  0.9247600000000001  1.0000
  O   O44       1.0  0.94642  0.69541  0.85798  1.0000
  O   O45       1.0  0.4177  0.82294  0.40038  1.0000
  O   O46       1.0  0.1274  0.4402  0.81405  1.0000
  O   O47       1.0  0.30683  0.08111000000000003  0.56111  1.0000
  O   O48       1.0  0.17948000000000006  0.17187000000000005  0.65454  1.0000
