data_image0
_chemical_formula_structural       Cu8H140C138N20O24
_chemical_formula_sum              "Cu8 H140 C138 N20 O24"
_cell_length_a       9.1464
_cell_length_b       14.77567
_cell_length_c       27.19372
_cell_angle_alpha    90.0
_cell_angle_beta     90.0
_cell_angle_gamma    90.0

_symmetry_space_group_name_H-M    'P 1'
_symmetry_Int_Tables_number       1

loop_
  _symmetry_equiv_pos_as_xyz
  'x,y,z'

loop_
  _atom_site_type_symbol
  _atom_site_label
  _atom_site_symmetry_multiplicity
  _atom_site_fract_x
  _atom_site_fract_y
  _atom_site_fract_z
  _atom_site_occupancy
  Cu  Cu1       1.0  0.10176  0.03814  0.4339300000000001  1.0000
  Cu  Cu2       1.0  0.10177  0.9618400000000001  0.56607  1.0000
  Cu  Cu3       1.0  0.89824  0.53815  0.06607  1.0000
  Cu  Cu4       1.0  0.60364  0.05396  0.43782  1.0000
  Cu  Cu5       1.0  0.39636  0.44605  0.93782  1.0000
  Cu  Cu6       1.0  0.89824  0.46185  0.93393  1.0000
  Cu  Cu7       1.0  0.39636  0.55396  0.06218  1.0000
  Cu  Cu8       1.0  0.60364  0.94605  0.56218  1.0000
  H   H1        1.0  0.0783  0.47306  0.31616  1.0000
  H   H2        1.0  0.30547  0.7127900000000001  0.22839  1.0000
  H   H3        1.0  0.4827  0.46458  0.20838  1.0000
  H   H4        1.0  0.09643  0.15405000000000002  0.5276  1.0000
  H   H5        1.0  0.51546  0.72424  0.39027  1.0000
  H   H6        1.0  0.94346  0.06567  0.10808000000000002  1.0000
  H   H7        1.0  0.17100000000000004  0.32866  0.97873  1.0000
  H   H8        1.0  0.13682  0.58843  0.63209  1.0000
  H   H9        1.0  0.87347  0.19042  0.06014  1.0000
  H   H10       1.0  0.4587000000000001  0.87566  0.42719000000000007  1.0000
  H   H11       1.0  0.23039000000000004  0.80911  0.29857  1.0000
  H   H12       1.0  0.50896  0.23411  0.7179  1.0000
  H   H13       1.0  0.37819  0.19683  0.46389  1.0000
  H   H14       1.0  0.24483000000000002  0.55458  0.40401  1.0000
  H   H15       1.0  0.33997  0.09004  0.38952000000000003  1.0000
  H   H16       1.0  0.05654  0.56567  0.39192  1.0000
  H   H17       1.0  0.38058  0.34975  0.50268  1.0000
  H   H18       1.0  0.17100000000000004  0.67134  0.02127  1.0000
  H   H19       1.0  0.6194100000000002  0.15026  0.00268  1.0000
  H   H20       1.0  0.24483000000000002  0.44543  0.5959800000000002  1.0000
  H   H21       1.0  0.34251  0.12051000000000002  0.8409700000000002  1.0000
  H   H22       1.0  0.49104  0.26589  0.21791000000000002  1.0000
  H   H23       1.0  0.24043000000000003  0.50687  0.75379  1.0000
  H   H24       1.0  0.47392000000000006  0.02548  0.04248  1.0000
  H   H25       1.0  0.8477700000000002  0.32078  0.52061  1.0000
  H   H26       1.0  0.3058  0.36319  0.6736000000000002  1.0000
  H   H27       1.0  0.4508400000000001  0.11919  0.18176  1.0000
  H   H28       1.0  0.47392000000000006  0.9745200000000002  0.95751  1.0000
  H   H29       1.0  0.57856  0.9038  0.11557  1.0000
  H   H30       1.0  0.5413  0.37565  0.07281  1.0000
  H   H31       1.0  0.24559000000000003  0.15816  0.3125  1.0000
  H   H32       1.0  0.61942  0.84974  0.99732  1.0000
  H   H33       1.0  0.829  0.82866  0.52126  1.0000
  H   H34       1.0  0.20212  0.95478  0.02095  1.0000
  H   H35       1.0  0.09122  0.34203  0.16919000000000006  1.0000
  H   H36       1.0  0.31532000000000004  0.26943  0.2439  1.0000
  H   H37       1.0  0.24043000000000003  0.49314  0.2462  1.0000
  H   H38       1.0  0.7551600000000002  0.94543  0.90401  1.0000
  H   H39       1.0  0.16009  0.48724  0.12834  1.0000
  H   H40       1.0  0.79788  0.45478  0.47905  1.0000
  H   H41       1.0  0.829  0.17134  0.47873000000000004  1.0000
  H   H42       1.0  0.57856  0.0962  0.8844300000000002  1.0000
  H   H43       1.0  0.45083  0.88082  0.8182400000000002  1.0000
  H   H44       1.0  0.8126400000000003  0.54038  0.83639  1.0000
  H   H45       1.0  0.30547  0.28721  0.7716100000000002  1.0000
  H   H46       1.0  0.8477700000000002  0.67923  0.4793900000000001  1.0000
  H   H47       1.0  0.4827  0.53542  0.79162  1.0000
  H   H48       1.0  0.7713900000000001  0.8538  0.64812  1.0000
  H   H49       1.0  0.8126500000000002  0.45962  0.16361  1.0000
  H   H50       1.0  0.31133000000000005  0.09112  0.22294  1.0000
  H   H51       1.0  0.5413  0.62435  0.9271900000000002  1.0000
  H   H52       1.0  0.09643  0.84595  0.47239  1.0000
  H   H53       1.0  0.90356  0.65406  0.9723900000000002  1.0000
  H   H54       1.0  0.77804  0.37083  0.63644  1.0000
  H   H55       1.0  0.9087800000000001  0.84203  0.33081  1.0000
  H   H56       1.0  0.87347  0.80958  0.93985  1.0000
  H   H57       1.0  0.12653  0.30958  0.56014  1.0000
  H   H58       1.0  0.75441  0.34184  0.8125  1.0000
  H   H59       1.0  0.51729  0.03542  0.70837  1.0000
  H   H60       1.0  0.9035700000000001  0.34595  0.027610000000000006  1.0000
  H   H61       1.0  0.22860000000000003  0.3538  0.85187  1.0000
  H   H62       1.0  0.9216900000000001  0.02694  0.81615  1.0000
  H   H63       1.0  0.4587000000000001  0.12435  0.57281  1.0000
  H   H64       1.0  0.05654  0.43433  0.6080800000000001  1.0000
  H   H65       1.0  0.52608  0.47452  0.54248  1.0000
  H   H66       1.0  0.75956  0.00687  0.7462000000000001  1.0000
  H   H67       1.0  0.9087800000000001  0.15798  0.66919  1.0000
  H   H68       1.0  0.37819  0.80317  0.5361  1.0000
  H   H69       1.0  0.24559000000000003  0.84184  0.6875000000000002  1.0000
  H   H70       1.0  0.31261  0.93809  0.92834  1.0000
  H   H71       1.0  0.22196  0.12918  0.13645  1.0000
  H   H72       1.0  0.94346  0.93433  0.89192  1.0000
  H   H73       1.0  0.48453  0.77577  0.89026  1.0000
  H   H74       1.0  0.22860000000000003  0.6462  0.14813  1.0000
  H   H75       1.0  0.42144  0.5962  0.61556  1.0000
  H   H76       1.0  0.31532000000000004  0.73058  0.7561  1.0000
  H   H77       1.0  0.12244  0.36  0.6904300000000001  1.0000
  H   H78       1.0  0.18735  0.95962  0.33639  1.0000
  H   H79       1.0  0.79788  0.54523  0.52095  1.0000
  H   H80       1.0  0.68739  0.56192  0.42835  1.0000
  H   H81       1.0  0.86317  0.91157  0.13209  1.0000
  H   H82       1.0  0.75957  0.99314  0.25379  1.0000
  H   H83       1.0  0.8651400000000001  0.3112  0.6844  1.0000
  H   H84       1.0  0.69452  0.78721  0.72839  1.0000
  H   H85       1.0  0.62181  0.69683  0.0361  1.0000
  H   H86       1.0  0.6600300000000002  0.40996  0.88952  1.0000
  H   H87       1.0  0.75441  0.65816  0.1875  1.0000
  H   H88       1.0  0.4845400000000001  0.22423  0.10973  1.0000
  H   H89       1.0  0.83991  0.98724  0.37166000000000005  1.0000
  H   H90       1.0  0.54916  0.38082  0.68176  1.0000
  H   H91       1.0  0.76961  0.30911  0.20143  1.0000
  H   H92       1.0  0.18735  0.04038  0.66361  1.0000
  H   H93       1.0  0.13486  0.1888  0.18440000000000004  1.0000
  H   H94       1.0  0.62181  0.30318  0.96389  1.0000
  H   H95       1.0  0.34251  0.87949  0.15903  1.0000
  H   H96       1.0  0.12653  0.69042  0.43986  1.0000
  H   H97       1.0  0.16009  0.51277  0.8716500000000003  1.0000
  H   H98       1.0  0.86317  0.08843000000000001  0.8679100000000001  1.0000
  H   H99       1.0  0.77804  0.62918  0.36355  1.0000
  H   H100      1.0  0.33997  0.90996  0.61047  1.0000
  H   H101      1.0  0.6600300000000002  0.59004  0.11048  1.0000
  H   H102      1.0  0.23039000000000004  0.19089  0.7014300000000002  1.0000
  H   H103      1.0  0.15223000000000006  0.82078  0.97939  1.0000
  H   H104      1.0  0.42144  0.4038  0.38443  1.0000
  H   H105      1.0  0.6942  0.86319  0.82639  1.0000
  H   H106      1.0  0.76961  0.69089  0.79857  1.0000
  H   H107      1.0  0.8651400000000001  0.6888  0.3156  1.0000
  H   H108      1.0  0.09122  0.65798  0.83081  1.0000
  H   H109      1.0  0.7714000000000001  0.1462  0.35187  1.0000
  H   H110      1.0  0.9217  0.97306  0.18384  1.0000
  H   H111      1.0  0.31261  0.06192  0.07165  1.0000
  H   H112      1.0  0.65748  0.62051  0.65903  1.0000
  H   H113      1.0  0.3058  0.63681  0.3264  1.0000
  H   H114      1.0  0.15223000000000006  0.17923  0.02061  1.0000
  H   H115      1.0  0.20211  0.04523  0.9790500000000001  1.0000
  H   H116      1.0  0.68867  0.59112  0.27706  1.0000
  H   H117      1.0  0.87756  0.86  0.80957  1.0000
  H   H118      1.0  0.0783  0.52694  0.68384  1.0000
  H   H119      1.0  0.6846800000000002  0.23057  0.7439000000000002  1.0000
  H   H120      1.0  0.7551600000000002  0.05458  0.09598  1.0000
  H   H121      1.0  0.38058  0.65026  0.49731  1.0000
  H   H122      1.0  0.31133000000000005  0.90889  0.77706  1.0000
  H   H123      1.0  0.12244  0.64001  0.3095700000000001  1.0000
  H   H124      1.0  0.5173  0.96458  0.29162  1.0000
  H   H125      1.0  0.87756  0.14001  0.19043000000000002  1.0000
  H   H126      1.0  0.6846800000000002  0.76943  0.2561  1.0000
  H   H127      1.0  0.68867  0.40889  0.72294  1.0000
  H   H128      1.0  0.83991  0.01277  0.6283400000000002  1.0000
  H   H129      1.0  0.68739  0.43808  0.57165  1.0000
  H   H130      1.0  0.51546  0.27577  0.60973  1.0000
  H   H131      1.0  0.52608  0.52548  0.45751000000000003  1.0000
  H   H132      1.0  0.13683  0.41157  0.36791  1.0000
  H   H133      1.0  0.49103  0.73411  0.7820900000000002  1.0000
  H   H134      1.0  0.69453  0.21279  0.27161  1.0000
  H   H135      1.0  0.22196  0.87083  0.86355  1.0000
  H   H136      1.0  0.54916  0.61919  0.31824  1.0000
  H   H137      1.0  0.65748  0.37949  0.34097000000000005  1.0000
  H   H138      1.0  0.50896  0.76589  0.28209  1.0000
  H   H139      1.0  0.6942  0.13681  0.1736  1.0000
  H   H140      1.0  0.13486  0.8112  0.8156  1.0000
  C   C1        1.0  0.26737  0.28728  0.9857500000000002  1.0000
  C   C2        1.0  0.17747  0.5  0.0  1.0000
  C   C3        1.0  0.16472000000000006  0.53036  0.65581  1.0000
  C   C4        1.0  0.83597  0.94121  0.8741200000000001  1.0000
  C   C5        1.0  0.4091800000000001  0.71963  0.88522  1.0000
  C   C6        1.0  0.6124  0.81497  0.70366  1.0000
  C   C7        1.0  0.76038  0.68081  0.33494  1.0000
  C   C8        1.0  0.63668  0.65488  0.18152  1.0000
  C   C9        1.0  0.17877  0.73431  0.3656100000000001  1.0000
  C   C10       1.0  0.1765  0.89785  0.35798  1.0000
  C   C11       1.0  0.34366  0.3518800000000001  0.8411100000000002  1.0000
  C   C12       1.0  0.53631  0.31174  0.7841100000000001  1.0000
  C   C13       1.0  0.82123  0.7657  0.8656100000000002  1.0000
  C   C14       1.0  0.55744  0.13609  0.5942100000000001  1.0000
  C   C15       1.0  0.38473  0.15128  0.01501  1.0000
  C   C16       1.0  0.87687  0.66515  0.9337400000000002  1.0000
  C   C17       1.0  0.51741  0.8124800000000001  0.00126  1.0000
  C   C18       1.0  0.83528  0.96965  0.15581000000000006  1.0000
  C   C19       1.0  0.8010200000000002  0.6870700000000001  0.8372  1.0000
  C   C20       1.0  0.56928  0.91978  0.15457000000000004  1.0000
  C   C21       1.0  0.19124000000000005  0.65396  0.8522700000000001  1.0000
  C   C22       1.0  0.4091800000000001  0.28038  0.11477000000000002  1.0000
  C   C23       1.0  0.7414  0.29619  0.5086  1.0000
  C   C24       1.0  0.6435  0.35248  0.7015400000000002  1.0000
  C   C25       1.0  0.5197300000000002  0.72701  0.02316  1.0000
  C   C26       1.0  0.6908  0.95193  0.18083  1.0000
  C   C27       1.0  0.8235  0.39785  0.14202  1.0000
  C   C28       1.0  0.22981  0.42757000000000006  0.1257  1.0000
  C   C29       1.0  0.73263  0.21273  0.48576  1.0000
  C   C30       1.0  0.23961000000000002  0.8192000000000002  0.83494  1.0000
  C   C31       1.0  0.06516  0.18289  0.39291000000000004  1.0000
  C   C32       1.0  0.43696  0.0943  0.82101  1.0000
  C   C33       1.0  0.7701900000000003  0.07244  0.6256900000000002  1.0000
  C   C34       1.0  0.82123  0.23431000000000002  0.13438000000000003  1.0000
  C   C35       1.0  0.83597  0.05879  0.12588  1.0000
  C   C36       1.0  0.59082  0.21962  0.61477  1.0000
  C   C37       1.0  0.19898  0.81294  0.3372  1.0000
  C   C38       1.0  0.26737  0.71273  0.01424  1.0000
  C   C39       1.0  0.19124000000000005  0.34604  0.14772000000000005  1.0000
  C   C40       1.0  0.46642  0.5478  0.7524400000000002  1.0000
  C   C41       1.0  0.73263  0.78728  0.51424  1.0000
  C   C42       1.0  0.16403  0.5588  0.37412  1.0000
  C   C43       1.0  0.46368000000000004  0.81174  0.71589  1.0000
  C   C44       1.0  0.76038  0.3192  0.6650500000000001  1.0000
  C   C45       1.0  0.16472000000000006  0.46965000000000007  0.3441900000000001  1.0000
  C   C46       1.0  0.38759  0.68503  0.20366  1.0000
  C   C47       1.0  0.1421  0.7475000000000002  0.41511  1.0000
  C   C48       1.0  0.2586  0.20381  0.0086  1.0000
  C   C49       1.0  0.3092  0.45193  0.31917  1.0000
  C   C50       1.0  0.82349  0.60216  0.85798  1.0000
  C   C51       1.0  0.48027  0.77299  0.52316  1.0000
  C   C52       1.0  0.12313000000000002  0.83486  0.43374  1.0000
  C   C53       1.0  0.8087600000000003  0.84604  0.35227  1.0000
  C   C54       1.0  0.48259  0.31248  0.49874  1.0000
  C   C55       1.0  0.61241  0.18503  0.29634  1.0000
  C   C56       1.0  0.66999  0.96836  0.23110000000000006  1.0000
  C   C57       1.0  0.44255  0.63609  0.90579  1.0000
  C   C58       1.0  0.58598  0.38243  0.86197  1.0000
  C   C59       1.0  0.2586  0.7961900000000001  0.9913900000000002  1.0000
  C   C60       1.0  0.4307200000000001  0.41978  0.3454300000000001  1.0000
  C   C61       1.0  0.27956  0.73034  0.8584300000000002  1.0000
  C   C62       1.0  0.19897  0.18706  0.6628000000000002  1.0000
  C   C63       1.0  0.23962  0.18081  0.16506000000000004  1.0000
  C   C64       1.0  0.66998  0.03165  0.7689000000000001  1.0000
  C   C65       1.0  0.36748  0.94245  0.96426  1.0000
  C   C66       1.0  0.41401  0.88243  0.63803  1.0000
  C   C67       1.0  0.1421  0.25251  0.58489  1.0000
  C   C68       1.0  0.59082  0.78038  0.38522000000000006  1.0000
  C   C69       1.0  0.12313000000000002  0.16514  0.5662600000000001  1.0000
  C   C70       1.0  0.65634  0.14812  0.34111  1.0000
  C   C71       1.0  0.40796  0.22419  0.2361  1.0000
  C   C72       1.0  0.87687  0.33486  0.06626  1.0000
  C   C73       1.0  0.43697  0.9057100000000001  0.17899  1.0000
  C   C74       1.0  0.8579  0.75251  0.9151100000000002  1.0000
  C   C75       1.0  0.46369  0.18827  0.28411  1.0000
  C   C76       1.0  0.27387  0.0  0.0  1.0000
  C   C77       1.0  0.63251  0.44245  0.53573  1.0000
  C   C78       1.0  0.35650000000000004  0.14752  0.20154000000000005  1.0000
  C   C79       1.0  0.44255  0.36391  0.09421  1.0000
  C   C80       1.0  0.8087500000000002  0.15395999999999999  0.64772  1.0000
  C   C81       1.0  0.48027  0.22701  0.47683  1.0000
  C   C82       1.0  0.72044  0.23034  0.64157  1.0000
  C   C83       1.0  0.19485  0.35796  0.65801  1.0000
  C   C84       1.0  0.93483  0.3171  0.89291  1.0000
  C   C85       1.0  0.22980000000000003  0.57244  0.8743  1.0000
  C   C86       1.0  0.56303  0.40571  0.32101  1.0000
  C   C87       1.0  0.8051500000000001  0.14204000000000003  0.15801000000000004  1.0000
  C   C88       1.0  0.36748  0.05756  0.03573  1.0000
  C   C89       1.0  0.7701900000000003  0.92757  0.37430000000000013  1.0000
  C   C90       1.0  0.6435  0.64753  0.2984600000000001  1.0000
  C   C91       1.0  0.53631  0.68827  0.21589000000000005  1.0000
  C   C92       1.0  0.8579  0.2475  0.08489000000000001  1.0000
  C   C93       1.0  0.93483  0.6829  0.10709000000000003  1.0000
  C   C94       1.0  0.3633200000000001  0.15488  0.31848  1.0000
  C   C95       1.0  0.48259  0.68752  0.50126  1.0000
  C   C96       1.0  0.7414  0.70381  0.49139  1.0000
  C   C97       1.0  0.41401  0.11757  0.36197  1.0000
  C   C98       1.0  0.34366  0.64812  0.15889  1.0000
  C   C99       1.0  0.8010200000000002  0.31293999999999994  0.1628  1.0000
  C   C100      1.0  0.46642  0.45221  0.24755  1.0000
  C   C101      1.0  0.58599  0.61757  0.13803000000000004  1.0000
  C   C102      1.0  0.36331000000000013  0.84513  0.6815100000000001  1.0000
  C   C103      1.0  0.51972  0.27299  0.9768300000000001  1.0000
  C   C104      1.0  0.6908  0.048080000000000005  0.81917  1.0000
  C   C105      1.0  0.40796  0.77581  0.7638900000000002  1.0000
  C   C106      1.0  0.38759  0.31497  0.7963400000000003  1.0000
  C   C107      1.0  0.72044  0.76967  0.35843  1.0000
  C   C108      1.0  0.61527  0.34872  0.51501  1.0000
  C   C109      1.0  0.51741  0.18752  0.9987400000000002  1.0000
  C   C110      1.0  0.63668  0.34513  0.81848  1.0000
  C   C111      1.0  0.82253  0.0  0.5  1.0000
  C   C112      1.0  0.33001000000000014  0.46836  0.2689  1.0000
  C   C113      1.0  0.38472  0.84872  0.9849800000000002  1.0000
  C   C114      1.0  0.8352700000000001  0.03036  0.8441900000000002  1.0000
  C   C115      1.0  0.35650000000000004  0.85248  0.79846  1.0000
  C   C116      1.0  0.56303  0.5943  0.67899  1.0000
  C   C117      1.0  0.8051500000000001  0.85797  0.8419900000000001  1.0000
  C   C118      1.0  0.17876000000000003  0.2657  0.6343800000000003  1.0000
  C   C119      1.0  0.33001000000000014  0.53165  0.7311  1.0000
  C   C120      1.0  0.61527  0.65128  0.48499  1.0000
  C   C121      1.0  0.06517  0.81709  0.6070900000000002  1.0000
  C   C122      1.0  0.72613  0.5  0.5  1.0000
  C   C123      1.0  0.32384  0.0  0.5  1.0000
  C   C124      1.0  0.19485  0.64204  0.34199  1.0000
  C   C125      1.0  0.16402  0.44121  0.62587  1.0000
  C   C126      1.0  0.65634  0.85188  0.65889  1.0000
  C   C127      1.0  0.63251  0.55756  0.46427  1.0000
  C   C128      1.0  0.56928  0.08023  0.84543  1.0000
  C   C129      1.0  0.53357  0.0478  0.74755  1.0000
  C   C130      1.0  0.55745  0.86392  0.40579  1.0000
  C   C131      1.0  0.3092  0.54808  0.68082  1.0000
  C   C132      1.0  0.53358  0.95221  0.25245  1.0000
  C   C133      1.0  0.1765  0.10215  0.64202  1.0000
  C   C134      1.0  0.27956  0.26967  0.14157  1.0000
  C   C135      1.0  0.43071  0.58023  0.65456  1.0000
  C   C136      1.0  0.5920400000000002  0.27581  0.7361  1.0000
  C   C137      1.0  0.5920400000000002  0.72419  0.2639  1.0000
  C   C138      1.0  0.67616  0.5  0.0  1.0000
  N   N1        1.0  0.64675  0.06406  0.59907  1.0000
  N   N2        1.0  0.86266  0.40938  0.09450000000000001  1.0000
  N   N3        1.0  0.60361  0.82136  0.52967  1.0000
  N   N4        1.0  0.64675  0.9359400000000001  0.4009300000000001  1.0000
  N   N5        1.0  0.39639000000000013  0.67865  0.02967  1.0000
  N   N6        1.0  0.35325  0.43594  0.09907  1.0000
  N   N7        1.0  0.13734  0.90938  0.4055000000000001  1.0000
  N   N8        1.0  0.55775  0.11367  0.37299  1.0000
  N   N9        1.0  0.41691  0.9211  0.22743  1.0000
  N   N10       1.0  0.60361  0.17865  0.47032  1.0000
  N   N11       1.0  0.39639000000000013  0.32136  0.97032  1.0000
  N   N12       1.0  0.86266  0.59063  0.9055  1.0000
  N   N13       1.0  0.58308  0.57891  0.7274300000000001  1.0000
  N   N14       1.0  0.41691  0.07891  0.77256  1.0000
  N   N15       1.0  0.13734  0.09062  0.5945000000000003  1.0000
  N   N16       1.0  0.35325  0.56406  0.9009300000000002  1.0000
  N   N17       1.0  0.55774  0.88633  0.6270000000000002  1.0000
  N   N18       1.0  0.44225  0.61367  0.12701  1.0000
  N   N19       1.0  0.58309  0.4211  0.27256  1.0000
  N   N20       1.0  0.44225  0.38634  0.8729900000000003  1.0000
  O   O1        1.0  0.17817  0.0  0.5  1.0000
  O   O2        1.0  0.04456000000000001  0.10093  0.37237  1.0000
  O   O3        1.0  0.82183  0.5  0.0  1.0000
  O   O4        1.0  0.3856  0.98215  0.54109  1.0000
  O   O5        1.0  0.03707  0.74484  0.62893  1.0000
  O   O6        1.0  0.11863000000000001  0.17683  0.4381600000000001  1.0000
  O   O7        1.0  0.67613  0.0  0.5  1.0000
  O   O8        1.0  0.6144  0.51785  0.04109  1.0000
  O   O9        1.0  0.61439  0.48215  0.95891  1.0000
  O   O10       1.0  0.11801  0.53254  0.03845  1.0000
  O   O11       1.0  0.11863000000000001  0.82315  0.56184  1.0000
  O   O12       1.0  0.96294  0.7551600000000002  0.12893  1.0000
  O   O13       1.0  0.32387000000000005  0.5  0.0  1.0000
  O   O14       1.0  0.04457  0.89907  0.6276200000000001  1.0000
  O   O15       1.0  0.88136  0.67684  0.06184  1.0000
  O   O16       1.0  0.9554400000000001  0.60093  0.12762  1.0000
  O   O17       1.0  0.96294  0.24484000000000003  0.8710700000000001  1.0000
  O   O18       1.0  0.11801  0.46747  0.96155  1.0000
  O   O19       1.0  0.88136  0.32316  0.93816  1.0000
  O   O20       1.0  0.9554400000000001  0.39907000000000004  0.87238  1.0000
  O   O21       1.0  0.88198  0.03254  0.46155  1.0000
  O   O22       1.0  0.3856  0.01785  0.4589100000000001  1.0000
  O   O23       1.0  0.88199  0.96747  0.53845  1.0000
  O   O24       1.0  0.03705  0.25516  0.37108000000000013  1.0000
