data_image0
_chemical_formula_structural       Ni6H88C144N12O26
_chemical_formula_sum              "Ni6 H88 C144 N12 O26"
_cell_length_a       18.32479
_cell_length_b       18.44205
_cell_length_c       18.55643
_cell_angle_alpha    105.72695
_cell_angle_beta     106.94329
_cell_angle_gamma    106.14952999999998

_space_group_name_H-M_alt    "P 1"
_space_group_IT_number       1

loop_
  _space_group_symop_operation_xyz
  'x, y, z'

loop_
  _atom_site_type_symbol
  _atom_site_label
  _atom_site_symmetry_multiplicity
  _atom_site_fract_x
  _atom_site_fract_y
  _atom_site_fract_z
  _atom_site_occupancy
  Ni  Ni1       1.0  0.7370600000000002  0.8162200000000001  0.67113  1.0000
  Ni  Ni2       1.0  0.68563  0.7547099999999999  0.81953  1.0000
  Ni  Ni3       1.0  0.81865  0.67979  0.75446  1.0000
  Ni  Ni4       1.0  0.24179000000000003  0.17617  0.32701  1.0000
  Ni  Ni5       1.0  0.32602  0.25336  0.16855  1.0000
  Ni  Ni6       1.0  0.18758999999999998  0.32488999999999996  0.25663  1.0000
  H   H1        1.0  0.5287  0.24519000000000002  0.26492  1.0000
  H   H2        1.0  0.6393  0.18856  0.28472  1.0000
  H   H3        1.0  0.5956300000000001  0.14321  0.48691  1.0000
  H   H4        1.0  0.48059  0.19015  0.46071  1.0000
  H   H5        1.0  0.62813  0.04845000000000001  0.45434  1.0000
  H   H6        1.0  0.83317  0.9400799999999999  0.4791  1.0000
  H   H7        1.0  0.83232  0.8603  0.56715  1.0000
  H   H8        1.0  0.26242  0.5452699999999999  0.23307  1.0000
  H   H9        1.0  0.29006  0.6562  0.17911  1.0000
  H   H10       1.0  0.48462  0.59392  0.1297  1.0000
  H   H11       1.0  0.45181999999999994  0.48032  0.17619  1.0000
  H   H12       1.0  0.4615600000000001  0.63876  0.04211  1.0000
  H   H13       1.0  0.4912099999999999  0.8467699999999998  0.94043  1.0000
  H   H14       1.0  0.58064  0.8455  0.86226  1.0000
  H   H15       1.0  0.23207  0.25619  0.54534  1.0000
  H   H16       1.0  0.1795  0.28623  0.65617  1.0000
  H   H17       1.0  0.13841000000000006  0.48541000000000006  0.59728  1.0000
  H   H18       1.0  0.18673  0.45249  0.48572  1.0000
  H   H19       1.0  0.04581000000000001  0.46106  0.63806  1.0000
  H   H20       1.0  0.9360500000000002  0.48041  0.83776  1.0000
  H   H21       1.0  0.85828  0.57166  0.83879  1.0000
  H   H22       1.0  0.24099  0.25862  0.95572  1.0000
  H   H23       1.0  0.21137000000000009  0.31391  0.84549  1.0000
  H   H24       1.0  0.016469999999999995  0.36212  0.90773  1.0000
  H   H25       1.0  0.05152000000000002  0.31464  0.02075  1.0000
  H   H26       1.0  0.03755999999999998  0.44972  0.86394  1.0000
  H   H27       1.0  0.015249999999999982  0.5621499999999999  0.66532  1.0000
  H   H28       1.0  0.92747  0.64329  0.6687  1.0000
  H   H29       1.0  0.2700099999999999  0.9605999999999999  0.24285  1.0000
  H   H30       1.0  0.32284999999999997  0.84933  0.21183  1.0000
  H   H31       1.0  0.37040999999999996  0.9164399999999999  0.02043  1.0000
  H   H32       1.0  0.32491  0.030219999999999997  0.05652  1.0000
  H   H33       1.0  0.4587  0.87029  0.04011  1.0000
  H   H34       1.0  0.5627000000000001  0.66374  0.01176  1.0000
  H   H35       1.0  0.64164  0.665  0.92327  1.0000
  H   H36       1.0  0.9580700000000001  0.24977999999999997  0.2682  1.0000
  H   H37       1.0  0.84554  0.22113  0.31995  1.0000
  H   H38       1.0  0.8932600000000002  0.013559999999999985  0.35069  1.0000
  H   H39       1.0  0.007919999999999991  0.046169999999999975  0.30509  1.0000
  H   H40       1.0  0.85746  0.040170000000000004  0.44553  1.0000
  H   H41       1.0  0.65356  0.014609999999999979  0.55285  1.0000
  H   H42       1.0  0.65637  0.9264199999999999  0.63268  1.0000
  H   H43       1.0  0.4586499999999999  0.76586  0.74164  1.0000
  H   H44       1.0  0.34404999999999997  0.81737  0.7147  1.0000
  H   H45       1.0  0.39086000000000004  0.85615  0.51088  1.0000
  H   H46       1.0  0.507  0.81014  0.54232  1.0000
  H   H47       1.0  0.35135999999999995  0.9485499999999999  0.53822  1.0000
  H   H48       1.0  0.14596999999999996  0.05353999999999999  0.51264  1.0000
  H   H49       1.0  0.14932  0.13475  0.42501  1.0000
  H   H50       1.0  0.73533  0.4539099999999999  0.75033  1.0000
  H   H51       1.0  0.71112  0.34484  0.80786  1.0000
  H   H52       1.0  0.5190000000000001  0.4085599999999999  0.8617200000000003  1.0000
  H   H53       1.0  0.5483800000000002  0.5201  0.81136  1.0000
  H   H54       1.0  0.54667  0.36734  0.95114  1.0000
  H   H55       1.0  0.52486  0.16507  0.0601  1.0000
  H   H56       1.0  0.43422  0.16537  0.13717  1.0000
  H   H57       1.0  0.77172  0.74625  0.45637  1.0000
  H   H58       1.0  0.82299  0.7129299999999998  0.34501  1.0000
  H   H59       1.0  0.87739  0.52495  0.41701  1.0000
  H   H60       1.0  0.8323100000000001  0.5621  0.53007  1.0000
  H   H61       1.0  0.9629800000000001  0.54278  0.36849  1.0000
  H   H62       1.0  0.06527000000000001  0.51715  0.1639  1.0000
  H   H63       1.0  0.14641  0.42887  0.16597  1.0000
  H   H64       1.0  0.75765  0.7349499999999999  0.0433  1.0000
  H   H65       1.0  0.78752  0.68159  0.15509  1.0000
  H   H66       1.0  0.98713  0.63845  0.09892  1.0000
  H   H67       1.0  0.95149  0.68369  0.9838900000000002  1.0000
  H   H68       1.0  0.96118  0.54591  0.13727  1.0000
  H   H69       1.0  0.9917900000000002  0.4405700000000001  0.34162000000000003  1.0000
  H   H70       1.0  0.08353  0.36333999999999994  0.34179  1.0000
  H   H71       1.0  0.7349500000000001  0.04209000000000011  0.7505600000000002  1.0000
  H   H72       1.0  0.68182  0.15383999999999995  0.78002  1.0000
  H   H73       1.0  0.65065  0.10065999999999996  0.98361  1.0000
  H   H74       1.0  0.6975100000000001  0.98689  0.94968  1.0000
  H   H75       1.0  0.5561400000000001  0.13926  0.95949  1.0000
  H   H76       1.0  0.44662  0.34171  0.98154  1.0000
  H   H77       1.0  0.36768  0.34123  0.0701  1.0000
  H   H78       1.0  0.051230000000000005  0.76217  0.75433  1.0000
  H   H79       1.0  0.15032000000000004  0.78277  0.68542  1.0000
  H   H80       1.0  0.07728000000000002  0.97089  0.63162  1.0000
  H   H81       1.0  0.9788800000000001  0.9494399999999998  0.6977  1.0000
  H   H82       1.0  0.11755  0.94729  0.5412  1.0000
  H   H83       1.0  0.3177600000000001  0.96953  0.43236  1.0000
  H   H84       1.0  0.32043  0.061889999999999994  0.35626  1.0000
  H   H85       1.0  0.8734500000000001  0.87821  0.80221  1.0000
  H   H86       1.0  0.69572  0.6941  0.69415  1.0000
  H   H87       1.0  0.22693000000000005  0.19948  0.20913  1.0000
  H   H88       1.0  0.32166  0.26983  0.28339  1.0000
  C   C1        1.0  0.41839000000000004  0.23620999999999998  0.34186  1.0000
  C   C2        1.0  0.49465000000000003  0.21755  0.359  1.0000
  C   C3        1.0  0.54215  0.22026  0.31176000000000004  1.0000
  C   C4        1.0  0.60451  0.18939  0.32329  1.0000
  C   C5        1.0  0.62274  0.1574  0.38405  1.0000
  C   C6        1.0  0.57924  0.16164  0.43552  1.0000
  C   C7        1.0  0.51552  0.18951  0.42235  1.0000
  C   C8        1.0  0.6846399999999999  0.11910000000000001  0.39525  1.0000
  C   C9        1.0  0.68038  0.06624  0.43756  1.0000
  C   C10       1.0  0.7941  0.9411399999999999  0.51327  1.0000
  C   C11       1.0  0.79373  0.89557  0.56198  1.0000
  C   C12       1.0  0.32833  0.42837000000000003  0.22526  1.0000
  C   C13       1.0  0.35264  0.50296  0.20461  1.0000
  C   C14       1.0  0.30945  0.55511  0.20808  1.0000
  C   C15       1.0  0.32529  0.61749  0.1787  1.0000
  C   C16       1.0  0.38650000000000007  0.6311  0.14688  1.0000
  C   C17       1.0  0.4333500000000001  0.58203  0.14891  1.0000
  C   C18       1.0  0.41609  0.51854  0.17613  1.0000
  C   C19       1.0  0.40192999999999995  0.6946699999999999  0.11192  1.0000
  C   C20       1.0  0.44569  0.69126  0.060980000000000006  1.0000
  C   C21       1.0  0.52455  0.80637  0.94054  1.0000
  C   C22       1.0  0.57338  0.8055  0.8955  1.0000
  C   C23       1.0  0.22967000000000004  0.3241  0.43264  1.0000
  C   C24       1.0  0.20946  0.35022  0.50636  1.0000
  C   C25       1.0  0.20993000000000003  0.30533  0.55668  1.0000
  C   C26       1.0  0.18107  0.32214  0.61841  1.0000
  C   C27       1.0  0.15151000000000006  0.3850700000000001  0.6323000000000001  1.0000
  C   C28       1.0  0.15619  0.43326  0.58504  1.0000
  C   C29       1.0  0.18421000000000007  0.41585000000000005  0.5227300000000001  1.0000
  C   C30       1.0  0.11497000000000004  0.39926999999999996  0.69384  1.0000
  C   C31       1.0  0.06344999999999999  0.44327  0.68966  1.0000
  C   C32       1.0  0.93799  0.51646  0.80024  1.0000
  C   C33       1.0  0.8930299999999999  0.56593  0.80049  1.0000
  C   C34       1.0  0.17745  0.2658  0.07132  1.0000
  C   C35       1.0  0.15048  0.28614  0.99719  1.0000
  C   C36       1.0  0.19321  0.2833  0.94544  1.0000
  C   C37       1.0  0.17637  0.31336  0.88382  1.0000
  C   C38       1.0  0.11455999999999998  0.34526  0.87078  1.0000
  C   C39       1.0  0.06797999999999997  0.34253  0.91933  1.0000
  C   C40       1.0  0.08633000000000006  0.31461000000000006  0.9822700000000001  1.0000
  C   C41       1.0  0.09943  0.38218  0.80886  1.0000
  C   C42       1.0  0.05485  0.4329100000000001  0.81254  1.0000
  C   C43       1.0  0.98059  0.56053  0.70384  1.0000
  C   C44       1.0  0.9330400000000001  0.60733  0.70615  1.0000
  C   C45       1.0  0.27755  0.07976  0.17973  1.0000
  C   C46       1.0  0.29825  0.005610000000000004  0.15476  1.0000
  C   C47       1.0  0.29479  0.95198  0.19603  1.0000
  C   C48       1.0  0.32341  0.8893299999999998  0.17819  1.0000
  C   C49       1.0  0.35453  0.87694  0.1169  1.0000
  C   C50       1.0  0.35212  0.92737  0.07181  1.0000
  C   C51       1.0  0.32559  0.99106  0.09102  1.0000
  C   C52       1.0  0.38937000000000005  0.8134  0.10003  1.0000
  C   C53       1.0  0.44018000000000007  0.81757  0.056  1.0000
  C   C54       1.0  0.56257  0.70402  0.97849  1.0000
  C   C55       1.0  0.60841  0.70516  0.93054  1.0000
  C   C56       1.0  0.06876  0.17601  0.26784  1.0000
  C   C57       1.0  0.99264  0.15193  0.28657000000000005  1.0000
  C   C58       1.0  0.94432  0.19918  0.28813  1.0000
  C   C59       1.0  0.88119  0.18297  0.31646  1.0000
  C   C60       1.0  0.8634900000000002  0.11787  0.34279  1.0000
  C   C61       1.0  0.9085700000000001  0.06741  0.33571  1.0000
  C   C62       1.0  0.9724200000000001  0.08449  0.30891  1.0000
  C   C63       1.0  0.8008099999999999  0.10299  0.37865  1.0000
  C   C64       1.0  0.80494  0.05752  0.4286  1.0000
  C   C65       1.0  0.6936800000000001  0.98093  0.55261  1.0000
  C   C66       1.0  0.69544  0.9327500000000001  0.59867  1.0000
  C   C67       1.0  0.56738  0.7688599999999999  0.66956  1.0000
  C   C68       1.0  0.49146000000000006  0.78802  0.64546  1.0000
  C   C69       1.0  0.44366  0.78746  0.69241  1.0000
  C   C70       1.0  0.37985  0.8155999999999999  0.67715  1.0000
  C   C71       1.0  0.36161  0.84383  0.61347  1.0000
  C   C72       1.0  0.40666000000000013  0.83935  0.56351  1.0000
  C   C73       1.0  0.47113000000000005  0.81255  0.57974  1.0000
  C   C74       1.0  0.29725  0.87823  0.59874  1.0000
  C   C75       1.0  0.29877  0.92881  0.5541  1.0000
  C   C76       1.0  0.18400000000000005  0.05116000000000003  0.4774100000000001  1.0000
  C   C77       1.0  0.18603  0.09767000000000003  0.42979  1.0000
  C   C78       1.0  0.67079  0.57103  0.76129  1.0000
  C   C79       1.0  0.64591  0.496  0.7806  1.0000
  C   C80       1.0  0.68932  0.44413  0.77655  1.0000
  C   C81       1.0  0.67548  0.38318  0.80781  1.0000
  C   C82       1.0  0.61626  0.3712  0.84208  1.0000
  C   C83       1.0  0.56861  0.41952  0.84018  1.0000
  C   C84       1.0  0.58379  0.48155  0.8108400000000001  1.0000
  C   C85       1.0  0.60464  0.31034  0.88028  1.0000
  C   C86       1.0  0.5631  0.31512  0.93313  1.0000
  C   C87       1.0  0.49007000000000006  0.20412  0.05855  1.0000
  C   C88       1.0  0.44122  0.20485999999999996  0.10338  1.0000
  C   C89       1.0  0.78459  0.68685  0.5777  1.0000
  C   C90       1.0  0.8034200000000002  0.65959  0.50349  1.0000
  C   C91       1.0  0.79754  0.69965  0.44876  1.0000
  C   C92       1.0  0.82514  0.68073  0.3863  1.0000
  C   C93       1.0  0.8577700000000001  0.61994  0.37564  1.0000
  C   C94       1.0  0.8576  0.57584  0.4269  1.0000
  C   C95       1.0  0.8316100000000001  0.59583  0.49024000000000006  1.0000
  C   C96       1.0  0.89188  0.60315  0.31248  1.0000
  C   C97       1.0  0.9431600000000001  0.55893  0.3161  1.0000
  C   C98       1.0  0.06546  0.48293  0.20326  1.0000
  C   C99       1.0  0.11234999999999999  0.43527999999999994  0.20485  1.0000
  C   C100      1.0  0.8240000000000002  0.72776  0.92904  1.0000
  C   C101      1.0  0.85011  0.70896  0.00433  1.0000
  C   C102      1.0  0.8062700000000003  0.71147  0.05503  1.0000
  C   C103      1.0  0.8233599999999999  0.68251  0.11759  1.0000
  C   C104      1.0  0.8865200000000001  0.6524  0.13234  1.0000
  C   C105      1.0  0.93442  0.65618  0.08521  1.0000
  C   C106      1.0  0.91577  0.6827899999999999  0.02148  1.0000
  C   C107      1.0  0.9027200000000001  0.61637  0.19466  1.0000
  C   C108      1.0  0.9464600000000001  0.56473  0.19014  1.0000
  C   C109      1.0  0.02626999999999999  0.44213  0.30291  1.0000
  C   C110      1.0  0.07611  0.39758  0.30278  1.0000
  C   C111      1.0  0.73477  0.93024  0.82163  1.0000
  C   C112      1.0  0.7161099999999999  0.005469999999999979  0.84618  1.0000
  C   C113      1.0  0.7144800000000001  0.05474  0.80031  1.0000
  C   C114      1.0  0.6854300000000001  0.11711999999999995  0.81697  1.0000
  C   C115      1.0  0.65848  0.1327  0.88111  1.0000
  C   C116      1.0  0.66594  0.08671000000000002  0.93045  1.0000
  C   C117      1.0  0.69342  0.023609999999999978  0.9128  1.0000
  C   C118      1.0  0.62195  0.19473999999999997  0.89639  1.0000
  C   C119      1.0  0.57268  0.19114999999999993  0.942  1.0000
  C   C120      1.0  0.4482400000000001  0.30306  0.01651  1.0000
  C   C121      1.0  0.40259  0.3025  0.06442  1.0000
  C   C122      1.0  0.9497900000000001  0.83861  0.76908  1.0000
  C   C123      1.0  0.007940000000000022  0.8533  0.72903  1.0000
  C   C124      1.0  0.05699999999999993  0.8067799999999998  0.72602  1.0000
  C   C125      1.0  0.11189  0.81814  0.68791  1.0000
  C   C126      1.0  0.11931999999999993  0.8765099999999999  0.65203  1.0000
  C   C127      1.0  0.0706  0.92342  0.65627  1.0000
  C   C128      1.0  0.01555000000000002  0.91228  0.69416  1.0000
  C   C129      1.0  0.17884  0.89018  0.61268  1.0000
  C   C130      1.0  0.17143000000000003  0.9322600000000001  0.55998  1.0000
  C   C131      1.0  0.28071  0.006320000000000013  0.43454  1.0000
  C   C132      1.0  0.2813800000000001  0.05605000000000002  0.39029  1.0000
  C   C133      1.0  0.7428  0.03651999999999999  0.45743  1.0000
  C   C134      1.0  0.74344  0.9860900000000001  0.50759  1.0000
  C   C135      1.0  0.46776  0.75466  0.03388  1.0000
  C   C136      1.0  0.5182700000000001  0.7550600000000001  0.9843000000000001  1.0000
  C   C137      1.0  0.03417999999999998  0.46271999999999996  0.75104  1.0000
  C   C138      1.0  0.98405  0.51309  0.75157  1.0000
  C   C139      1.0  0.2337  0.9544500000000001  0.53158  1.0000
  C   C140      1.0  0.23221000000000003  0.0038100000000000187  0.48082  1.0000
  C   C141      1.0  0.54394  0.25332  0.9627  1.0000
  C   C142      1.0  0.49434000000000006  0.25361  0.01285  1.0000
  C   C143      1.0  0.9696700000000001  0.53707  0.25292  1.0000
  C   C144      1.0  0.02043  0.48724000000000006  0.2529  1.0000
  N   N1        1.0  0.7448200000000001  0.89054  0.60393  1.0000
  N   N2        1.0  0.74273  0.13532  0.3642  1.0000
  N   N3        1.0  0.61452  0.75545  0.88987  1.0000
  N   N4        1.0  0.37239  0.75388  0.12935  1.0000
  N   N5        1.0  0.89008  0.61064  0.75394  1.0000
  N   N6        1.0  0.13088000000000005  0.36734  0.75147  1.0000
  N   N7        1.0  0.23456  0.10078  0.38748  1.0000
  N   N8        1.0  0.23933000000000004  0.86136  0.62977  1.0000
  N   N9        1.0  0.39868000000000003  0.25385  0.10713  1.0000
  N   N10       1.0  0.6355500000000001  0.25211  0.86407  1.0000
  N   N11       1.0  0.11847999999999997  0.3939  0.25447  1.0000
  N   N12       1.0  0.87383  0.63328  0.25373  1.0000
  O   O1        1.0  0.40509000000000017  0.27978  0.29878  1.0000
  O   O2        1.0  0.3685899999999999  0.20626  0.37102  1.0000
  O   O3        1.0  0.28388  0.42543999999999993  0.26614  1.0000
  O   O4        1.0  0.35441000000000006  0.37393  0.19604  1.0000
  O   O5        1.0  0.25397  0.26498  0.42555  1.0000
  O   O6        1.0  0.21808  0.36084  0.38405  1.0000
  O   O7        1.0  0.22568000000000005  0.22650000000000003  0.07221  1.0000
  O   O8        1.0  0.15247999999999998  0.29080999999999996  0.12638  1.0000
  O   O9        1.0  0.23717  0.08315  0.22493  1.0000
  O   O10       1.0  0.30502  0.13413  0.15255  1.0000
  O   O11       1.0  0.0797  0.23272  0.24074  1.0000
  O   O12       1.0  0.11632999999999999  0.13816  0.28378  1.0000
  O   O13       1.0  0.5784  0.74159  0.7257  1.0000
  O   O14       1.0  0.61477  0.78492  0.63188  1.0000
  O   O15       1.0  0.7191099999999999  0.5748099999999999  0.72329  1.0000
  O   O16       1.0  0.64376  0.6248  0.78745  1.0000
  O   O17       1.0  0.75121  0.73944  0.58044  1.0000
  O   O18       1.0  0.80622  0.65774  0.63129  1.0000
  O   O19       1.0  0.7780200000000002  0.76794  0.9245  1.0000
  O   O20       1.0  0.84946  0.69791  0.87526  1.0000
  O   O21       1.0  0.7619000000000001  0.9202700000000001  0.76464  1.0000
  O   O22       1.0  0.72006  0.8824  0.85804  1.0000
  O   O23       1.0  0.93862  0.7841599999999999  0.79626  1.0000
  O   O24       1.0  0.9090400000000001  0.88953  0.77239  1.0000
  O   O25       1.0  0.74168  0.74319  0.73712  1.0000
  O   O26       1.0  0.25414  0.25027  0.25837  1.0000
