data_image0
_chemical_formula_structural       Zn12H60C140S10O64
_chemical_formula_sum              "Zn12 H60 C140 S10 O64"
_cell_length_a       21.20241
_cell_length_b       23.23456
_cell_length_c       25.01385
_cell_angle_alpha    67.8293
_cell_angle_beta     69.34967
_cell_angle_gamma    79.88074

_symmetry_space_group_name_H-M    'P 1'
_symmetry_Int_Tables_number       1

loop_
  _symmetry_equiv_pos_as_xyz
  'x,y,z'

loop_
  _atom_site_type_symbol
  _atom_site_label
  _atom_site_symmetry_multiplicity
  _atom_site_fract_x
  _atom_site_fract_y
  _atom_site_fract_z
  _atom_site_occupancy
  Zn  Zn1       1.0  0.73684  0.18465000000000004  0.21954  1.0000
  Zn  Zn2       1.0  0.09074999999999991  0.7998400000000001  0.81229  1.0000
  Zn  Zn3       1.0  0.7620200000000001  0.30376  0.10334000000000002  1.0000
  Zn  Zn4       1.0  0.83274  0.08035  0.26939  1.0000
  Zn  Zn5       1.0  0.19503999999999996  0.79753  0.6886600000000002  1.0000
  Zn  Zn6       1.0  0.3247900000000001  0.67685  0.76194  1.0000
  Zn  Zn7       1.0  0.26316000000000006  0.81536  0.78046  1.0000
  Zn  Zn8       1.0  0.90925  0.20016000000000003  0.18771000000000002  1.0000
  Zn  Zn9       1.0  0.23798000000000002  0.69624  0.89666  1.0000
  Zn  Zn10      1.0  0.16725999999999996  0.91965  0.73061  1.0000
  Zn  Zn11      1.0  0.8049600000000001  0.20247  0.31134  1.0000
  Zn  Zn12      1.0  0.6752100000000001  0.32316  0.23806  1.0000
  H   H1        1.0  0.31307  0.87519  0.58196  1.0000
  H   H2        1.0  0.49648  0.7672799999999999  0.60037  1.0000
  H   H3        1.0  0.37848  0.96028  0.49487  1.0000
  H   H4        1.0  0.45783  0.03729000000000002  0.41798  1.0000
  H   H5        1.0  0.55368  0.10017  0.3391  1.0000
  H   H6        1.0  0.69634  0.95059  0.3906400000000001  1.0000
  H   H7        1.0  0.9191699999999998  0.9733  0.40323000000000003  1.0000
  H   H8        1.0  0.78704  0.09540000000000001  0.4929  1.0000
  H   H9        1.0  0.82429  0.04157999999999996  0.5850000000000001  1.0000
  H   H10       1.0  0.87832  0.98337  0.6621000000000001  1.0000
  H   H11       1.0  0.05172000000000005  0.8256  0.59773  1.0000
  H   H12       1.0  0.9468000000000001  0.91623  0.72862  1.0000
  H   H13       1.0  0.45446000000000025  0.5368500000000002  0.84393  1.0000
  H   H14       1.0  0.27143000000000006  0.51965  0.9944  1.0000
  H   H15       1.0  0.3301200000000001  0.44481  0.06609  1.0000
  H   H16       1.0  0.4038700000000001  0.37671  0.12199  1.0000
  H   H17       1.0  0.49567  0.31631  0.16386  1.0000
  H   H18       1.0  0.64088  0.36795  0.9842300000000002  1.0000
  H   H19       1.0  0.7855  0.46407000000000004  0.16648  1.0000
  H   H20       1.0  0.9459500000000001  0.33144000000000007  0.20768  1.0000
  H   H21       1.0  0.032459999999999996  0.40687  0.13042  1.0000
  H   H22       1.0  0.10076000000000003  0.48792  0.04514  1.0000
  H   H23       1.0  0.15289999999999998  0.57982  0.95824  1.0000
  H   H24       1.0  0.9571400000000001  0.6736999999999999  0.9654700000000003  1.0000
  H   H25       1.0  0.9916  0.8613699999999997  0.9587500000000002  1.0000
  H   H26       1.0  0.03726999999999997  0.04154999999999993  0.82107  1.0000
  H   H27       1.0  0.92011  0.90983  0.03527  1.0000
  H   H28       1.0  0.8556800000000001  0.97171  0.09544000000000001  1.0000
  H   H29       1.0  0.8746  0.2002599999999999  0.9775700000000003  1.0000
  H   H30       1.0  0.7978900000000001  0.05035  0.14501  1.0000
  H   H31       1.0  0.68693  0.12480999999999998  0.41805000000000003  1.0000
  H   H32       1.0  0.50352  0.23271999999999998  0.39964000000000005  1.0000
  H   H33       1.0  0.62152  0.039720000000000005  0.50513  1.0000
  H   H34       1.0  0.54217  0.9627100000000001  0.58202  1.0000
  H   H35       1.0  0.44632  0.8998300000000002  0.66091  1.0000
  H   H36       1.0  0.30365999999999993  0.049410000000000016  0.60936  1.0000
  H   H37       1.0  0.08083  0.02670999999999999  0.59677  1.0000
  H   H38       1.0  0.21294999999999997  0.9046  0.5071000000000001  1.0000
  H   H39       1.0  0.17571  0.95843  0.41500000000000004  1.0000
  H   H40       1.0  0.12167999999999995  0.016639999999999978  0.33790000000000003  1.0000
  H   H41       1.0  0.94828  0.17439999999999992  0.40227000000000007  1.0000
  H   H42       1.0  0.05319999999999998  0.08378000000000002  0.27138  1.0000
  H   H43       1.0  0.54553  0.46315  0.15607  1.0000
  H   H44       1.0  0.72857  0.48035  0.00561  1.0000
  H   H45       1.0  0.6698799999999999  0.5551900000000002  0.93391  1.0000
  H   H46       1.0  0.59613  0.6232899999999999  0.8780100000000001  1.0000
  H   H47       1.0  0.50432  0.68369  0.83614  1.0000
  H   H48       1.0  0.35912000000000005  0.63205  0.015780000000000002  1.0000
  H   H49       1.0  0.21449999999999997  0.53593  0.8335200000000003  1.0000
  H   H50       1.0  0.05405000000000001  0.66856  0.7923200000000001  1.0000
  H   H51       1.0  0.96754  0.59313  0.86958  1.0000
  H   H52       1.0  0.8992399999999999  0.5120800000000001  0.9548700000000001  1.0000
  H   H53       1.0  0.8471  0.42018000000000005  0.04176  1.0000
  H   H54       1.0  0.042859999999999995  0.3263  0.03453  1.0000
  H   H55       1.0  0.008400000000000001  0.13863  0.04125  1.0000
  H   H56       1.0  0.9627300000000002  0.95846  0.17893  1.0000
  H   H57       1.0  0.07988999999999999  0.09016999999999999  0.9647300000000001  1.0000
  H   H58       1.0  0.14430999999999988  0.02828999999999994  0.9045600000000003  1.0000
  H   H59       1.0  0.1254  0.79974  0.022430000000000002  1.0000
  H   H60       1.0  0.20210999999999998  0.94966  0.8549900000000002  1.0000
  C   C1        1.0  0.3594099999999999  0.7685  0.65197  1.0000
  C   C2        1.0  0.40037  0.81643  0.59665  1.0000
  C   C3        1.0  0.36786  0.87053  0.5661  1.0000
  C   C4        1.0  0.4713000000000001  0.80918  0.57696  1.0000
  C   C5        1.0  0.4045499999999999  0.9183  0.5171  1.0000
  C   C6        1.0  0.5068900000000002  0.85709  0.52806  1.0000
  C   C7        1.0  0.4751000000000001  0.91219  0.49778  1.0000
  C   C8        1.0  0.52295  0.95718  0.44877000000000006  1.0000
  C   C9        1.0  0.50929  0.017429999999999994  0.41172  1.0000
  C   C10       1.0  0.59066  0.93484  0.44091  1.0000
  C   C11       1.0  0.56289  0.05287999999999999  0.36751  1.0000
  C   C12       1.0  0.64439  0.96884  0.39658  1.0000
  C   C13       1.0  0.63001  0.028769999999999983  0.35908000000000007  1.0000
  C   C14       1.0  0.6869100000000002  0.06742  0.31186  1.0000
  C   C15       1.0  0.83176  0.07224000000000003  0.38707  1.0000
  C   C16       1.0  0.8506800000000001  0.03743999999999998  0.44336  1.0000
  C   C17       1.0  0.89823  0.98702  0.4433000000000001  1.0000
  C   C18       1.0  0.8234799999999999  0.05596999999999998  0.4948100000000001  1.0000
  C   C19       1.0  0.84401  0.02571999999999999  0.5462  1.0000
  C   C20       1.0  0.9178100000000001  0.9575499999999998  0.4946600000000001  1.0000
  C   C21       1.0  0.8926600000000001  0.97622  0.54621  1.0000
  C   C22       1.0  0.9251400000000001  0.94102  0.59269  1.0000
  C   C23       1.0  0.91496  0.94836  0.6484  1.0000
  C   C24       1.0  0.9740299999999997  0.89582  0.5760100000000001  1.0000
  C   C25       1.0  0.002790000000000015  0.8673499999999998  0.66726  1.0000
  C   C26       1.0  0.04877999999999997  0.8319900000000001  0.7039500000000001  1.0000
  C   C27       1.0  0.013119999999999968  0.8592400000000001  0.6117  1.0000
  C   C28       1.0  0.95332  0.91117  0.6854500000000001  1.0000
  C   C29       1.0  0.32475  0.58164  0.8740000000000001  1.0000
  C   C30       1.0  0.35915  0.5324499999999999  0.9154500000000002  1.0000
  C   C31       1.0  0.4278699999999999  0.5160699999999999  0.8921400000000002  1.0000
  C   C32       1.0  0.32444000000000023  0.50594  0.97787  1.0000
  C   C33       1.0  0.45961  0.4747100000000001  0.93243  1.0000
  C   C34       1.0  0.3570999999999999  0.46398000000000006  0.01779  1.0000
  C   C35       1.0  0.42588  0.44795  0.9952500000000001  1.0000
  C   C36       1.0  0.47033  0.40689  0.02892  1.0000
  C   C37       1.0  0.45487  0.37428000000000006  0.09165000000000001  1.0000
  C   C38       1.0  0.5375199999999999  0.4030500000000001  0.99122  1.0000
  C   C39       1.0  0.5061199999999999  0.3406700000000001  0.11522  1.0000
  C   C40       1.0  0.58903  0.36952  0.013420000000000001  1.0000
  C   C41       1.0  0.57302  0.3392999999999999  0.07677  1.0000
  C   C42       1.0  0.63017  0.30858  0.10202000000000001  1.0000
  C   C43       1.0  0.81086  0.3447799999999999  0.23309  1.0000
  C   C44       1.0  0.8614199999999997  0.39321999999999996  0.19154000000000004  1.0000
  C   C45       1.0  0.83915  0.45258000000000004  0.15927  1.0000
  C   C46       1.0  0.93081  0.37794000000000005  0.18195000000000006  1.0000
  C   C47       1.0  0.97898  0.42011999999999994  0.13871  1.0000
  C   C48       1.0  0.88761  0.49414  0.1174  1.0000
  C   C49       1.0  0.95753  0.4790899999999999  0.10529000000000002  1.0000
  C   C50       1.0  0.9988  0.52894  0.05597000000000001  1.0000
  C   C51       1.0  0.06916  0.52873  0.029460000000000007  1.0000
  C   C52       1.0  0.9595800000000001  0.58187  0.03227  1.0000
  C   C53       1.0  0.09854999999999997  0.58052  0.98047  1.0000
  C   C54       1.0  0.98773  0.63353  0.9840300000000001  1.0000
  C   C55       1.0  0.05839000000000005  0.63277  0.95765  1.0000
  C   C56       1.0  0.08865  0.68708  0.90352  1.0000
  C   C57       1.0  0.0622299999999999  0.91663  0.8426000000000001  1.0000
  C   C58       1.0  0.01799000000000001  0.94815  0.8860200000000001  1.0000
  C   C59       1.0  0.98441  0.91165  0.94607  1.0000
  C   C60       1.0  0.010869999999999994  0.013470000000000013  0.86743  1.0000
  C   C61       1.0  0.94392  0.93887  0.98858  1.0000
  C   C62       1.0  0.9699700000000001  0.03973999999999998  0.9101  1.0000
  C   C63       1.0  0.9363899999999998  0.0038599999999999585  0.9706000000000001  1.0000
  C   C64       1.0  0.8976300000000001  0.04177  0.007770000000000002  1.0000
  C   C65       1.0  0.8593100000000001  0.021210000000000003  0.06935  1.0000
  C   C66       1.0  0.9019900000000001  0.10630999999999999  0.9755  1.0000
  C   C67       1.0  0.87053  0.15057  0.00247  1.0000
  C   C68       1.0  0.82723  0.06505  0.09709000000000002  1.0000
  C   C69       1.0  0.83272  0.12933999999999998  0.06449  1.0000
  C   C70       1.0  0.799  0.17411  0.09772000000000002  1.0000
  C   C71       1.0  0.64059  0.23151  0.34804  1.0000
  C   C72       1.0  0.59963  0.18358  0.40336  1.0000
  C   C73       1.0  0.63214  0.12946999999999992  0.43390000000000006  1.0000
  C   C74       1.0  0.5287  0.19081999999999993  0.42304  1.0000
  C   C75       1.0  0.59545  0.0817  0.4829  1.0000
  C   C76       1.0  0.4931099999999998  0.14291000000000004  0.47195  1.0000
  C   C77       1.0  0.5249  0.08780999999999999  0.50222  1.0000
  C   C78       1.0  0.47703999999999996  0.042829999999999986  0.55123  1.0000
  C   C79       1.0  0.49070999999999976  0.9825699999999999  0.58828  1.0000
  C   C80       1.0  0.40934  0.06516999999999998  0.55909  1.0000
  C   C81       1.0  0.43711  0.94712  0.6325  1.0000
  C   C82       1.0  0.35561  0.03117  0.60342  1.0000
  C   C83       1.0  0.3699799999999999  0.9712299999999999  0.64092  1.0000
  C   C84       1.0  0.3130900000000002  0.93258  0.68814  1.0000
  C   C85       1.0  0.16824  0.9277600000000001  0.61293  1.0000
  C   C86       1.0  0.14932  0.96256  0.55664  1.0000
  C   C87       1.0  0.10177  0.012979999999999986  0.5567  1.0000
  C   C88       1.0  0.17652000000000007  0.94404  0.50519  1.0000
  C   C89       1.0  0.15598999999999996  0.9742899999999999  0.45380000000000004  1.0000
  C   C90       1.0  0.08217999999999996  0.04246000000000001  0.50534  1.0000
  C   C91       1.0  0.10733999999999999  0.023780000000000006  0.45379  1.0000
  C   C92       1.0  0.07484999999999997  0.05897999999999994  0.4073100000000001  1.0000
  C   C93       1.0  0.08503999999999995  0.05164999999999999  0.3516000000000001  1.0000
  C   C94       1.0  0.025969999999999993  0.10419000000000002  0.42399  1.0000
  C   C95       1.0  0.99721  0.13265000000000005  0.33275  1.0000
  C   C96       1.0  0.9512200000000001  0.16801  0.29605  1.0000
  C   C97       1.0  0.98687  0.14077  0.38830000000000003  1.0000
  C   C98       1.0  0.046679999999999985  0.08882999999999998  0.31455000000000005  1.0000
  C   C99       1.0  0.6752499999999999  0.41835999999999995  0.12600000000000003  1.0000
  C   C100      1.0  0.6408500000000003  0.4675500000000001  0.08455  1.0000
  C   C101      1.0  0.57213  0.48394  0.10786  1.0000
  C   C102      1.0  0.6755500000000001  0.49406  0.02213  1.0000
  C   C103      1.0  0.54039  0.5253  0.06757  1.0000
  C   C104      1.0  0.6428999999999999  0.5360199999999999  0.9822100000000002  1.0000
  C   C105      1.0  0.57412  0.55205  0.00475  1.0000
  C   C106      1.0  0.52967  0.59312  0.97109  1.0000
  C   C107      1.0  0.5451300000000001  0.6257299999999999  0.9083500000000001  1.0000
  C   C108      1.0  0.46248  0.59695  0.00878  1.0000
  C   C109      1.0  0.4938799999999998  0.65933  0.8847900000000001  1.0000
  C   C110      1.0  0.41097000000000006  0.63048  0.98658  1.0000
  C   C111      1.0  0.42697999999999997  0.6607000000000001  0.92323  1.0000
  C   C112      1.0  0.36983000000000005  0.69142  0.89798  1.0000
  C   C113      1.0  0.18913999999999995  0.65522  0.76691  1.0000
  C   C114      1.0  0.13857999999999995  0.60679  0.80846  1.0000
  C   C115      1.0  0.16084999999999994  0.5474199999999999  0.8407300000000002  1.0000
  C   C116      1.0  0.06918999999999995  0.6220699999999999  0.8180500000000002  1.0000
  C   C117      1.0  0.021019999999999987  0.57988  0.86129  1.0000
  C   C118      1.0  0.11239000000000003  0.50587  0.8826  1.0000
  C   C119      1.0  0.042459999999999894  0.5209099999999999  0.8947100000000002  1.0000
  C   C120      1.0  0.0011999999999999919  0.47106000000000003  0.9440400000000001  1.0000
  C   C121      1.0  0.9308400000000001  0.47128  0.97054  1.0000
  C   C122      1.0  0.04041999999999997  0.41812999999999995  0.9677300000000001  1.0000
  C   C123      1.0  0.9014500000000001  0.41948  0.01953  1.0000
  C   C124      1.0  0.01227000000000001  0.36646999999999996  0.015970000000000005  1.0000
  C   C125      1.0  0.9416000000000001  0.36723  0.042350000000000006  1.0000
  C   C126      1.0  0.91135  0.31292  0.09649  1.0000
  C   C127      1.0  0.9377700000000004  0.08337  0.15740000000000004  1.0000
  C   C128      1.0  0.9820100000000003  0.05186000000000001  0.11398  1.0000
  C   C129      1.0  0.015579999999999995  0.08835  0.05393  1.0000
  C   C130      1.0  0.98913  0.98653  0.13257  1.0000
  C   C131      1.0  0.056079999999999984  0.06114000000000001  0.011420000000000001  1.0000
  C   C132      1.0  0.03002999999999999  0.96026  0.08990000000000001  1.0000
  C   C133      1.0  0.06359999999999996  0.9961400000000001  0.02941  1.0000
  C   C134      1.0  0.10236999999999999  0.95823  0.99223  1.0000
  C   C135      1.0  0.14068999999999998  0.9787899999999999  0.9306500000000002  1.0000
  C   C136      1.0  0.09801  0.8936900000000001  0.024500000000000004  1.0000
  C   C137      1.0  0.12946  0.84944  0.9975300000000002  1.0000
  C   C138      1.0  0.17277  0.93495  0.9029100000000001  1.0000
  C   C139      1.0  0.16727  0.8706600000000001  0.93551  1.0000
  C   C140      1.0  0.20098999999999997  0.8258899999999999  0.9022800000000001  1.0000
  S   S1        1.0  0.59664  0.86005  0.49659000000000003  1.0000
  S   S2        1.0  0.9777300000000001  0.89348  0.5044  1.0000
  S   S3        1.0  0.5465999999999999  0.44943  0.9136100000000003  1.0000
  S   S4        1.0  0.87153  0.57135  0.07095  1.0000
  S   S5        1.0  0.9539900000000001  0.12091000000000003  0.89821  1.0000
  S   S6        1.0  0.40335999999999994  0.13995  0.50341  1.0000
  S   S7        1.0  0.022269999999999995  0.10652000000000002  0.49561  1.0000
  S   S8        1.0  0.45340000000000014  0.55057  0.08639  1.0000
  S   S9        1.0  0.12846999999999997  0.4286500000000001  0.92905  1.0000
  S   S10       1.0  0.04600999999999998  0.8791  0.10179000000000002  1.0000
  O   O1        1.0  0.39087  0.72317  0.6826900000000001  1.0000
  O   O2        1.0  0.29529000000000005  0.77432  0.6685100000000002  1.0000
  O   O3        1.0  0.74553  0.04014999999999999  0.30113000000000006  1.0000
  O   O4        1.0  0.6724200000000001  0.12479000000000001  0.28629  1.0000
  O   O5        1.0  0.6244900000000001  0.86616  0.53991  1.0000
  O   O6        1.0  0.6254  0.81268  0.46854000000000007  1.0000
  O   O7        1.0  0.79031  0.1192  0.38626  1.0000
  O   O8        1.0  0.86061  0.05169000000000001  0.34288  1.0000
  O   O9        1.0  0.10178999999999998  0.80633  0.67681  1.0000
  O   O10       1.0  0.031769999999999986  0.83177  0.75853  1.0000
  O   O11       1.0  0.04345999999999997  0.91075  0.4588100000000001  1.0000
  O   O12       1.0  0.94912  0.83672  0.51323  1.0000
  O   O13       1.0  0.26438999999999996  0.59992  0.8967000000000002  1.0000
  O   O14       1.0  0.3612400000000001  0.60286  0.81802  1.0000
  O   O15       1.0  0.68941  0.32044  0.06474000000000002  1.0000
  O   O16       1.0  0.6142099999999999  0.27435  0.15783  1.0000
  O   O17       1.0  0.58942  0.50115  0.89412  1.0000
  O   O18       1.0  0.5614900000000003  0.41067999999999993  0.87608  1.0000
  O   O19       1.0  0.7488100000000001  0.36284  0.24066  1.0000
  O   O20       1.0  0.8346200000000001  0.29056  0.25627  1.0000
  O   O21       1.0  0.047639999999999995  0.7258699999999998  0.8784300000000002  1.0000
  O   O22       1.0  0.15191000000000002  0.6932999999999999  0.88206  1.0000
  O   O23       1.0  0.83779  0.57111  0.029120000000000004  1.0000
  O   O24       1.0  0.84395  0.61138  0.10761  1.0000
  O   O25       1.0  0.09848000000000004  0.9515899999999999  0.79097  1.0000
  O   O26       1.0  0.060559999999999954  0.8577299999999998  0.8608200000000001  1.0000
  O   O27       1.0  0.7651000000000001  0.14862999999999998  0.15362000000000003  1.0000
  O   O28       1.0  0.80691  0.23202  0.06899  1.0000
  O   O29       1.0  0.01629000000000002  0.14884  0.88663  1.0000
  O   O30       1.0  0.91406  0.14939999999999998  0.8569900000000001  1.0000
  O   O31       1.0  0.81926  0.17173000000000002  0.24294000000000002  1.0000
  O   O32       1.0  0.7047100000000002  0.26825  0.18913  1.0000
  O   O33       1.0  0.6091299999999997  0.27683  0.31731000000000004  1.0000
  O   O34       1.0  0.7047100000000001  0.22567999999999996  0.3315  1.0000
  O   O35       1.0  0.25447  0.95985  0.6988700000000001  1.0000
  O   O36       1.0  0.32758000000000004  0.8752200000000001  0.71371  1.0000
  O   O37       1.0  0.37551  0.13384  0.4601  1.0000
  O   O38       1.0  0.3746  0.18731999999999993  0.53146  1.0000
  O   O39       1.0  0.20969000000000002  0.8807999999999998  0.61374  1.0000
  O   O40       1.0  0.13938999999999996  0.9483099999999999  0.6571200000000001  1.0000
  O   O41       1.0  0.8982100000000001  0.19367  0.32319000000000003  1.0000
  O   O42       1.0  0.96822  0.16823  0.24147000000000005  1.0000
  O   O43       1.0  0.9565400000000001  0.08926000000000002  0.54119  1.0000
  O   O44       1.0  0.05088000000000007  0.16328  0.48678  1.0000
  O   O45       1.0  0.7356099999999999  0.40008999999999995  0.1033  1.0000
  O   O46       1.0  0.63876  0.39715000000000006  0.18199  1.0000
  O   O47       1.0  0.3105899999999999  0.67957  0.9352600000000002  1.0000
  O   O48       1.0  0.3857900000000001  0.7256599999999997  0.8421700000000001  1.0000
  O   O49       1.0  0.41057000000000005  0.49885  0.10588  1.0000
  O   O50       1.0  0.43851  0.58933  0.12392000000000002  1.0000
  O   O51       1.0  0.2511900000000001  0.63717  0.75934  1.0000
  O   O52       1.0  0.16537999999999992  0.70944  0.7437300000000001  1.0000
  O   O53       1.0  0.95236  0.27413  0.12157000000000003  1.0000
  O   O54       1.0  0.84809  0.3067  0.11794  1.0000
  O   O55       1.0  0.1622  0.4288899999999999  0.9708900000000003  1.0000
  O   O56       1.0  0.15604999999999997  0.3886199999999999  0.8924000000000001  1.0000
  O   O57       1.0  0.9015200000000001  0.04840999999999999  0.20903000000000005  1.0000
  O   O58       1.0  0.93944  0.14227  0.13919  1.0000
  O   O59       1.0  0.23489999999999986  0.8513700000000001  0.8463800000000001  1.0000
  O   O60       1.0  0.19309  0.76799  0.9310100000000001  1.0000
  O   O61       1.0  0.98371  0.85116  0.11338000000000001  1.0000
  O   O62       1.0  0.08594  0.8506  0.14301  1.0000
  O   O63       1.0  0.18074  0.82828  0.75706  1.0000
  O   O64       1.0  0.29529000000000005  0.7317499999999998  0.8108700000000001  1.0000
