data_image0
_chemical_formula_structural       Cu4H96C120N24O24
_chemical_formula_sum              "Cu4 H96 C120 N24 O24"
_cell_length_a       20.43363
_cell_length_b       20.43182
_cell_length_c       20.43178
_cell_angle_alpha    109.54161999999998
_cell_angle_beta     109.55403000000001
_cell_angle_gamma    109.55399

_symmetry_space_group_name_H-M    'P 1'
_symmetry_Int_Tables_number       1

loop_
  _symmetry_equiv_pos_as_xyz
  'x,y,z'

loop_
  _atom_site_type_symbol
  _atom_site_label
  _atom_site_symmetry_multiplicity
  _atom_site_fract_x
  _atom_site_fract_y
  _atom_site_fract_z
  _atom_site_occupancy
  Cu  Cu1       1.0  0.5  0.0  0.0  1.0000
  Cu  Cu2       1.0  0.5  0.5  0.5  1.0000
  Cu  Cu3       1.0  0.0  0.0  0.5  1.0000
  Cu  Cu4       1.0  0.0  0.5  0.0  1.0000
  H   H1        1.0  0.66872  0.03775000000000004  0.92886  1.0000
  H   H2        1.0  0.67517  0.9372500000000001  0.82453  1.0000
  H   H3        1.0  0.4143  0.80184  0.69738  1.0000
  H   H4        1.0  0.42046  0.90765  0.80894  1.0000
  H   H5        1.0  0.33154  0.25952000000000003  0.36838  1.0000
  H   H6        1.0  0.32505  0.14862  0.26137  1.0000
  H   H7        1.0  0.58595  0.28389  0.38839  1.0000
  H   H8        1.0  0.57976  0.38924  0.48796999999999996  1.0000
  H   H9        1.0  0.89113  0.96282  0.63106  1.0000
  H   H10       1.0  0.8872799999999998  0.06338999999999999  0.73806  1.0000
  H   H11       1.0  0.89554  0.19766000000000006  0.61222  1.0000
  H   H12       1.0  0.90134  0.09188  0.51258  1.0000
  H   H13       1.0  0.10888000000000009  0.73993  0.07175  1.0000
  H   H14       1.0  0.11271  0.8508200000000001  0.17616  1.0000
  H   H15       1.0  0.10447999999999999  0.71674  0.3022  1.0000
  H   H16       1.0  0.09876000000000001  0.61129  0.19064  1.0000
  H   H17       1.0  0.73988  0.07172000000000002  0.10888  1.0000
  H   H18       1.0  0.8508  0.17612999999999998  0.11272  1.0000
  H   H19       1.0  0.7167399999999999  0.30219  0.10448  1.0000
  H   H20       1.0  0.61129  0.19060000000000002  0.09876  1.0000
  H   H21       1.0  0.9628300000000001  0.6310300000000002  0.89114  1.0000
  H   H22       1.0  0.06338000000000002  0.73804  0.88728  1.0000
  H   H23       1.0  0.19762999999999997  0.61219  0.89553  1.0000
  H   H24       1.0  0.09184000000000003  0.5125600000000001  0.90134  1.0000
  H   H25       1.0  0.25956  0.36841  0.33154  1.0000
  H   H26       1.0  0.14864  0.2614  0.32503  1.0000
  H   H27       1.0  0.28391000000000005  0.38841  0.58595  1.0000
  H   H28       1.0  0.38925  0.48798  0.57975  1.0000
  H   H29       1.0  0.037759999999999995  0.92887  0.66871  1.0000
  H   H30       1.0  0.93728  0.8245400000000002  0.67518  1.0000
  H   H31       1.0  0.8018699999999999  0.6974000000000001  0.41428  1.0000
  H   H32       1.0  0.9076899999999999  0.80897  0.42046  1.0000
  H   H33       1.0  0.6310200000000001  0.8911300000000003  0.9628000000000001  1.0000
  H   H34       1.0  0.7380300000000001  0.88727  0.06336  1.0000
  H   H35       1.0  0.6122199999999999  0.89553  0.19765  1.0000
  H   H36       1.0  0.51258  0.90134  0.09186  1.0000
  H   H37       1.0  0.07174000000000001  0.10888  0.73989  1.0000
  H   H38       1.0  0.17615999999999998  0.11271999999999995  0.85081  1.0000
  H   H39       1.0  0.30218  0.10449000000000001  0.71672  1.0000
  H   H40       1.0  0.19060000000000002  0.09875000000000003  0.61126  1.0000
  H   H41       1.0  0.92888  0.6687  0.03776  1.0000
  H   H42       1.0  0.82455  0.67517  0.93728  1.0000
  H   H43       1.0  0.69741  0.41428  0.80187  1.0000
  H   H44       1.0  0.80898  0.42046  0.90767  1.0000
  H   H45       1.0  0.36842  0.33155  0.25956  1.0000
  H   H46       1.0  0.2614  0.32503000000000004  0.14864  1.0000
  H   H47       1.0  0.38841  0.58595  0.2839  1.0000
  H   H48       1.0  0.48798  0.57976  0.38925  1.0000
  H   H49       1.0  0.33129  0.96225  0.07114  1.0000
  H   H50       1.0  0.3248400000000001  0.06275000000000001  0.17547  1.0000
  H   H51       1.0  0.58571  0.19816000000000003  0.30262  1.0000
  H   H52       1.0  0.57955  0.09235  0.19106  1.0000
  H   H53       1.0  0.66847  0.74049  0.63163  1.0000
  H   H54       1.0  0.6749600000000001  0.8513800000000001  0.73863  1.0000
  H   H55       1.0  0.41406  0.71611  0.61162  1.0000
  H   H56       1.0  0.42024999999999996  0.61076  0.51203  1.0000
  H   H57       1.0  0.10886999999999998  0.03718000000000003  0.36894  1.0000
  H   H58       1.0  0.11273  0.93661  0.26194  1.0000
  H   H59       1.0  0.10447000000000008  0.80234  0.38778  1.0000
  H   H60       1.0  0.09867000000000002  0.90812  0.48742  1.0000
  H   H61       1.0  0.89113  0.26007  0.92825  1.0000
  H   H62       1.0  0.8872899999999999  0.14918  0.82384  1.0000
  H   H63       1.0  0.8955299999999999  0.2832600000000001  0.6978  1.0000
  H   H64       1.0  0.90125  0.38871  0.80937  1.0000
  H   H65       1.0  0.26013  0.92828  0.89113  1.0000
  H   H66       1.0  0.14920999999999984  0.82387  0.88729  1.0000
  H   H67       1.0  0.28327  0.6978100000000002  0.89552  1.0000
  H   H68       1.0  0.3887199999999999  0.8094  0.90125  1.0000
  H   H69       1.0  0.037180000000000005  0.36897  0.10887  1.0000
  H   H70       1.0  0.93663  0.26196  0.11273  1.0000
  H   H71       1.0  0.80237  0.38781  0.10447  1.0000
  H   H72       1.0  0.9081599999999999  0.48745  0.09866  1.0000
  H   H73       1.0  0.74045  0.63159  0.66846  1.0000
  H   H74       1.0  0.85136  0.7386  0.67497  1.0000
  H   H75       1.0  0.7160999999999998  0.61159  0.41405  1.0000
  H   H76       1.0  0.61075  0.51202  0.42025  1.0000
  H   H77       1.0  0.9622499999999999  0.07113000000000003  0.3313  1.0000
  H   H78       1.0  0.06273  0.17546  0.32483  1.0000
  H   H79       1.0  0.19813999999999998  0.3026  0.58572  1.0000
  H   H80       1.0  0.09232000000000001  0.19103  0.57954  1.0000
  H   H81       1.0  0.36899  0.10887  0.0372  1.0000
  H   H82       1.0  0.26197999999999994  0.11273  0.93665  1.0000
  H   H83       1.0  0.38779  0.10447  0.80236  1.0000
  H   H84       1.0  0.48743  0.09866  0.90814  1.0000
  H   H85       1.0  0.92827  0.89112  0.26011  1.0000
  H   H86       1.0  0.82385  0.8872800000000001  0.14919  1.0000
  H   H87       1.0  0.69783  0.89551  0.28328  1.0000
  H   H88       1.0  0.8094099999999999  0.9012500000000001  0.38874  1.0000
  H   H89       1.0  0.07113000000000004  0.33130000000000004  0.9622500000000002  1.0000
  H   H90       1.0  0.17546  0.32483  0.06273  1.0000
  H   H91       1.0  0.3026  0.58572  0.19814  1.0000
  H   H92       1.0  0.19102999999999998  0.57954  0.09233  1.0000
  H   H93       1.0  0.63159  0.66846  0.74044  1.0000
  H   H94       1.0  0.7386000000000001  0.6749700000000001  0.85136  1.0000
  H   H95       1.0  0.6115999999999999  0.41405  0.7161  1.0000
  H   H96       1.0  0.51203  0.42024  0.61075  1.0000
  C   C1        1.0  0.61571  0.9839700000000001  0.87558  1.0000
  C   C2        1.0  0.61667  0.9269600000000001  0.81685  1.0000
  C   C3        1.0  0.5447199999999999  0.85756  0.74871  1.0000
  C   C4        1.0  0.47278999999999993  0.8525800000000001  0.74646  1.0000
  C   C5        1.0  0.47337  0.91035  0.80588  1.0000
  C   C6        1.0  0.38451  0.2595  0.36788  1.0000
  C   C7        1.0  0.38352  0.19979000000000002  0.30992  1.0000
  C   C8        1.0  0.45543  0.20398  0.31285  1.0000
  C   C9        1.0  0.52742  0.27409  0.38025  1.0000
  C   C10       1.0  0.52685  0.33293  0.43745  1.0000
  C   C11       1.0  0.89163  0.01637999999999997  0.63179  1.0000
  C   C12       1.0  0.8899099999999999  0.07340000000000003  0.68977  1.0000
  C   C13       1.0  0.8911599999999998  0.14247999999999994  0.68712  1.0000
  C   C14       1.0  0.89389  0.14717999999999995  0.62006  1.0000
  C   C15       1.0  0.89556  0.08941000000000004  0.56286  1.0000
  C   C16       1.0  0.10845000000000002  0.7402100000000001  0.12484999999999999  1.0000
  C   C17       1.0  0.11014000000000006  0.7999200000000001  0.18357  1.0000
  C   C18       1.0  0.10888  0.79604  0.25141  1.0000
  C   C19       1.0  0.10619000000000003  0.7262500000000001  0.25339  1.0000
  C   C20       1.0  0.10459  0.66741  0.19401  1.0000
  C   C21       1.0  0.74018  0.12482  0.10845  1.0000
  C   C22       1.0  0.7999  0.18355  0.11014  1.0000
  C   C23       1.0  0.7960399999999999  0.25140000000000007  0.10888  1.0000
  C   C24       1.0  0.72626  0.25338  0.10619  1.0000
  C   C25       1.0  0.6673999999999999  0.19398  0.10459  1.0000
  C   C26       1.0  0.016370000000000027  0.6317600000000001  0.89163  1.0000
  C   C27       1.0  0.07339999999999999  0.68976  0.8899  1.0000
  C   C28       1.0  0.14248  0.68712  0.89115  1.0000
  C   C29       1.0  0.14716  0.62005  0.89388  1.0000
  C   C30       1.0  0.08938000000000001  0.56283  0.89555  1.0000
  C   C31       1.0  0.2595299999999999  0.3679  0.3845  1.0000
  C   C32       1.0  0.19979999999999998  0.30994  0.38351  1.0000
  C   C33       1.0  0.20399  0.31286  0.45543  1.0000
  C   C34       1.0  0.27409  0.38025  0.52742  1.0000
  C   C35       1.0  0.33294999999999997  0.43746  0.52685  1.0000
  C   C36       1.0  0.98399  0.87559  0.6157  1.0000
  C   C37       1.0  0.92697  0.8168499999999999  0.61667  1.0000
  C   C38       1.0  0.85757  0.74871  0.54472  1.0000
  C   C39       1.0  0.8526  0.74647  0.47278  1.0000
  C   C40       1.0  0.91038  0.8059  0.47336  1.0000
  C   C41       1.0  0.63175  0.8916200000000001  0.01636  1.0000
  C   C42       1.0  0.6897499999999999  0.8899000000000001  0.07338  1.0000
  C   C43       1.0  0.6871199999999998  0.8911500000000001  0.14247  1.0000
  C   C44       1.0  0.62006  0.89388  0.14717  1.0000
  C   C45       1.0  0.56284  0.8955500000000001  0.08939  1.0000
  C   C46       1.0  0.12483999999999999  0.10845000000000002  0.74019  1.0000
  C   C47       1.0  0.18357  0.11013999999999999  0.79991  1.0000
  C   C48       1.0  0.25141  0.10888  0.79604  1.0000
  C   C49       1.0  0.25338  0.10619  0.72624  1.0000
  C   C50       1.0  0.19398000000000004  0.10459000000000002  0.66738  1.0000
  C   C51       1.0  0.8756  0.6157  0.9839900000000001  1.0000
  C   C52       1.0  0.81686  0.6166700000000003  0.92697  1.0000
  C   C53       1.0  0.7487199999999999  0.54472  0.85757  1.0000
  C   C54       1.0  0.74647  0.47278  0.8526  1.0000
  C   C55       1.0  0.80591  0.47336000000000006  0.91037  1.0000
  C   C56       1.0  0.36791  0.3845100000000001  0.25953  1.0000
  C   C57       1.0  0.30994  0.38352  0.1998  1.0000
  C   C58       1.0  0.31286  0.45543  0.20399  1.0000
  C   C59       1.0  0.38026  0.52742  0.27409  1.0000
  C   C60       1.0  0.4374600000000001  0.5268500000000002  0.33295  1.0000
  C   C61       1.0  0.3843  0.016030000000000013  0.12442000000000002  1.0000
  C   C62       1.0  0.38334  0.07304  0.18315  1.0000
  C   C63       1.0  0.4552899999999999  0.14244  0.25129  1.0000
  C   C64       1.0  0.5272199999999999  0.14742  0.25354  1.0000
  C   C65       1.0  0.52664  0.08965  0.19412  1.0000
  C   C66       1.0  0.6155  0.7405  0.63213  1.0000
  C   C67       1.0  0.61649  0.80021  0.69008  1.0000
  C   C68       1.0  0.54458  0.79602  0.68715  1.0000
  C   C69       1.0  0.47259  0.72591  0.61975  1.0000
  C   C70       1.0  0.47315  0.66707  0.56256  1.0000
  C   C71       1.0  0.10838000000000002  0.98362  0.36821  1.0000
  C   C72       1.0  0.11010000000000005  0.9266000000000001  0.31024  1.0000
  C   C73       1.0  0.10884999999999999  0.85752  0.31288  1.0000
  C   C74       1.0  0.10611000000000002  0.85282  0.37994  1.0000
  C   C75       1.0  0.10445  0.91059  0.43715  1.0000
  C   C76       1.0  0.8915599999999999  0.2597899999999999  0.87515  1.0000
  C   C77       1.0  0.8898699999999998  0.20008999999999996  0.81644  1.0000
  C   C78       1.0  0.89113  0.20396  0.7486  1.0000
  C   C79       1.0  0.89382  0.27375  0.74661  1.0000
  C   C80       1.0  0.89542  0.33259000000000005  0.806  1.0000
  C   C81       1.0  0.25983000000000006  0.8751800000000001  0.89156  1.0000
  C   C82       1.0  0.20011  0.81645  0.88987  1.0000
  C   C83       1.0  0.20396999999999996  0.7486  0.8911199999999999  1.0000
  C   C84       1.0  0.2737499999999999  0.74662  0.89382  1.0000
  C   C85       1.0  0.33261  0.80602  0.89541  1.0000
  C   C86       1.0  0.98363  0.36824000000000007  0.10837  1.0000
  C   C87       1.0  0.9266099999999999  0.31024  0.1101  1.0000
  C   C88       1.0  0.85753  0.31288000000000005  0.10885  1.0000
  C   C89       1.0  0.85285  0.37995  0.10612  1.0000
  C   C90       1.0  0.9106299999999998  0.43717  0.10445  1.0000
  C   C91       1.0  0.74048  0.6321  0.6155  1.0000
  C   C92       1.0  0.8002  0.6900600000000001  0.61649  1.0000
  C   C93       1.0  0.79602  0.68714  0.54458  1.0000
  C   C94       1.0  0.72592  0.61975  0.47259  1.0000
  C   C95       1.0  0.66706  0.56254  0.47316  1.0000
  C   C96       1.0  0.016009999999999996  0.12441  0.3843  1.0000
  C   C97       1.0  0.07303  0.18315  0.38333  1.0000
  C   C98       1.0  0.14243999999999998  0.25129  0.45528  1.0000
  C   C99       1.0  0.14741  0.25353  0.52722  1.0000
  C   C100      1.0  0.08963  0.19410000000000002  0.52664  1.0000
  C   C101      1.0  0.36825999999999987  0.10837999999999999  0.9836499999999999  1.0000
  C   C102      1.0  0.3102599999999999  0.1100999999999999  0.92662  1.0000
  C   C103      1.0  0.3128899999999999  0.10884999999999993  0.85753  1.0000
  C   C104      1.0  0.3799499999999999  0.10611999999999998  0.85284  1.0000
  C   C105      1.0  0.43716  0.10445000000000002  0.91062  1.0000
  C   C106      1.0  0.87517  0.89155  0.25982  1.0000
  C   C107      1.0  0.81644  0.8898600000000001  0.20009  1.0000
  C   C108      1.0  0.7486  0.89112  0.20397  1.0000
  C   C109      1.0  0.74662  0.89381  0.27376  1.0000
  C   C110      1.0  0.80603  0.89541  0.33262  1.0000
  C   C111      1.0  0.12440999999999999  0.38431  0.01601  1.0000
  C   C112      1.0  0.18314999999999998  0.38333000000000006  0.07303  1.0000
  C   C113      1.0  0.25129  0.45528  0.14243  1.0000
  C   C114      1.0  0.25354  0.5272200000000001  0.14741  1.0000
  C   C115      1.0  0.1941  0.52664  0.08963  1.0000
  C   C116      1.0  0.6321000000000001  0.6154900000000001  0.74048  1.0000
  C   C117      1.0  0.69007  0.61648  0.8002  1.0000
  C   C118      1.0  0.68715  0.54457  0.79602  1.0000
  C   C119      1.0  0.6197500000000001  0.47258000000000006  0.72591  1.0000
  C   C120      1.0  0.56254  0.47315  0.66706  1.0000
  N   N1        1.0  0.5445600000000002  0.9766000000000001  0.87043  1.0000
  N   N2        1.0  0.45565  0.3259000000000001  0.43204  1.0000
  N   N3        1.0  0.8938399999999999  0.023459999999999967  0.56792  1.0000
  N   N4        1.0  0.1063  0.67417  0.12978  1.0000
  N   N5        1.0  0.67415  0.12975  0.10629  1.0000
  N   N6        1.0  0.023450000000000068  0.5679000000000001  0.89384  1.0000
  N   N7        1.0  0.32593  0.43205  0.45564  1.0000
  N   N8        1.0  0.9766199999999999  0.87044  0.54455  1.0000
  N   N9        1.0  0.5679  0.89384  0.02344  1.0000
  N   N10       1.0  0.12975999999999996  0.10629000000000001  0.67414  1.0000
  N   N11       1.0  0.87045  0.5445500000000001  0.9766200000000002  1.0000
  N   N12       1.0  0.43204999999999993  0.45565  0.32592  1.0000
  N   N13       1.0  0.45544999999999997  0.02339999999999999  0.12958  1.0000
  N   N14       1.0  0.54436  0.6741  0.5679699999999999  1.0000
  N   N15       1.0  0.10617000000000007  0.9765400000000001  0.43208  1.0000
  N   N16       1.0  0.8937099999999999  0.32583  0.87023  1.0000
  N   N17       1.0  0.32586000000000004  0.87025  0.89371  1.0000
  N   N18       1.0  0.97656  0.43210000000000004  0.10616  1.0000
  N   N19       1.0  0.67408  0.56795  0.54436  1.0000
  N   N20       1.0  0.023379999999999963  0.12956  0.45545  1.0000
  N   N21       1.0  0.4321099999999999  0.10615999999999992  0.97656  1.0000
  N   N22       1.0  0.87025  0.8937100000000001  0.32586  1.0000
  N   N23       1.0  0.12955  0.45545  0.02339  1.0000
  N   N24       1.0  0.5679500000000001  0.54435  0.67408  1.0000
  O   O1        1.0  0.5454399999999999  0.031939999999999996  0.92773  1.0000
  O   O2        1.0  0.45464000000000004  0.38231000000000004  0.4863700000000001  1.0000
  O   O3        1.0  0.8957699999999997  0.9680700000000001  0.51348  1.0000
  O   O4        1.0  0.10429000000000001  0.61771  0.07243  1.0000
  O   O5        1.0  0.61768  0.07239  0.10428  1.0000
  O   O6        1.0  0.96806  0.5134600000000001  0.89578  1.0000
  O   O7        1.0  0.38235  0.48639  0.45464  1.0000
  O   O8        1.0  0.03196000000000002  0.9277600000000001  0.54544  1.0000
  O   O9        1.0  0.51346  0.8957800000000001  0.9680500000000001  1.0000
  O   O10       1.0  0.07239000000000001  0.10427000000000002  0.61767  1.0000
  O   O11       1.0  0.9277699999999999  0.54543  0.03195  1.0000
  O   O12       1.0  0.48638999999999993  0.45464  0.38235  1.0000
  O   O13       1.0  0.45457  0.9680600000000001  0.07227  1.0000
  O   O14       1.0  0.54537  0.61769  0.51363  1.0000
  O   O15       1.0  0.10424000000000005  0.031930000000000035  0.48652000000000006  1.0000
  O   O16       1.0  0.89572  0.38229  0.92757  1.0000
  O   O17       1.0  0.38233  0.92761  0.89572  1.0000
  O   O18       1.0  0.031950000000000006  0.48655  0.10423  1.0000
  O   O19       1.0  0.6176599999999999  0.51361  0.54537  1.0000
  O   O20       1.0  0.96805  0.07223999999999996  0.45457  1.0000
  O   O21       1.0  0.48655  0.10422000000000001  0.03195  1.0000
  O   O22       1.0  0.92761  0.89573  0.38233  1.0000
  O   O23       1.0  0.07224000000000001  0.45457000000000003  0.9680500000000001  1.0000
  O   O24       1.0  0.51362  0.54536  0.61765  1.0000
