data_image0
_chemical_formula_structural       Ag12H90C96N18O36
_chemical_formula_sum              "Ag12 H90 C96 N18 O36"
_cell_length_a       12.36829
_cell_length_b       16.59961
_cell_length_c       16.59963
_cell_angle_alpha    120.03690000000002
_cell_angle_beta     90.0023
_cell_angle_gamma    89.9977

_space_group_name_H-M_alt    "P 1"
_space_group_IT_number       1

loop_
  _space_group_symop_operation_xyz
  'x, y, z'

loop_
  _atom_site_type_symbol
  _atom_site_label
  _atom_site_symmetry_multiplicity
  _atom_site_fract_x
  _atom_site_fract_y
  _atom_site_fract_z
  _atom_site_occupancy
  Ag  Ag1       1.0  0.58309  0.3484199999999999  0.6960699999999997  1.0000
  Ag  Ag2       1.0  0.58349  0.6049799999999997  0.20992999999999995  1.0000
  Ag  Ag3       1.0  0.24959  0.3478099999999998  0.6517299999999998  1.0000
  Ag  Ag4       1.0  0.25025  0.6047099999999999  0.39517999999999986  1.0000
  Ag  Ag5       1.0  0.9161100000000001  0.3039399999999998  0.6520699999999998  1.0000
  Ag  Ag6       1.0  0.9170400000000001  0.7901  0.39516  1.0000
  Ag  Ag7       1.0  0.08390000000000002  0.6520699999999999  0.30393999999999993  1.0000
  Ag  Ag8       1.0  0.08297  0.39516  0.7901  1.0000
  Ag  Ag9       1.0  0.75041  0.65173  0.34781  1.0000
  Ag  Ag10      1.0  0.74975  0.39518  0.60471  1.0000
  Ag  Ag11      1.0  0.41691  0.69607  0.34843  1.0000
  Ag  Ag12      1.0  0.41652  0.20993  0.60498  1.0000
  H   H1        1.0  0.6495700000000001  0.8511  0.20103999999999994  1.0000
  H   H2        1.0  0.43825000000000003  0.6754399999999998  0.062219999999999984  1.0000
  H   H3        1.0  0.5537  0.7059199999999998  0.01916  1.0000
  H   H4        1.0  0.562  0.7001499999999997  0.12351  1.0000
  H   H5        1.0  0.59986  0.6020799999999997  0.8424099999999998  1.0000
  H   H6        1.0  0.4621  0.61365  0.87781  1.0000
  H   H7        1.0  0.50663  0.51176  0.77491  1.0000
  H   H8        1.0  0.31627  0.34974  0.14861  1.0000
  H   H9        1.0  0.10494  0.38665999999999984  0.3246399999999999  1.0000
  H   H10       1.0  0.22027000000000002  0.313  0.29414  1.0000
  H   H11       1.0  0.22882000000000002  0.42313000000000006  0.29988  1.0000
  H   H12       1.0  0.2665  0.2402099999999999  0.3978399999999999  1.0000
  H   H13       1.0  0.1288  0.26407  0.38633  1.0000
  H   H14       1.0  0.17329000000000003  0.26305  0.4882  1.0000
  H   H15       1.0  0.98283  0.7992499999999996  0.6505499999999997  1.0000
  H   H16       1.0  0.7716500000000001  0.9379  0.61322  1.0000
  H   H17       1.0  0.8870200000000001  0.98111  0.68691  1.0000
  H   H18       1.0  0.89549  0.87669  0.57678  1.0000
  H   H19       1.0  0.93322  0.15770999999999985  0.7597199999999997  1.0000
  H   H20       1.0  0.79546  0.12242999999999994  0.7358799999999999  1.0000
  H   H21       1.0  0.84012  0.22528999999999985  0.7369299999999998  1.0000
  H   H22       1.0  0.14967  0.1489399999999999  0.79897  1.0000
  H   H23       1.0  0.9381400000000001  0.32457  0.93783  1.0000
  H   H24       1.0  0.053590000000000006  0.29417999999999994  0.98097  1.0000
  H   H25       1.0  0.062000000000000006  0.29992  0.87663  1.0000
  H   H26       1.0  0.09978000000000001  0.39803  0.15764  1.0000
  H   H27       1.0  0.9620100000000001  0.38652  0.12222999999999998  1.0000
  H   H28       1.0  0.00662  0.48837  0.22516999999999995  1.0000
  H   H29       1.0  0.81648  0.65029  0.8514  1.0000
  H   H30       1.0  0.60484  0.61339  0.6753599999999998  1.0000
  H   H31       1.0  0.72017  0.68702  0.7057599999999999  1.0000
  H   H32       1.0  0.72882  0.57693  0.70005  1.0000
  H   H33       1.0  0.76642  0.7597299999999999  0.6020599999999998  1.0000
  H   H34       1.0  0.62871  0.7357999999999998  0.6135099999999999  1.0000
  H   H35       1.0  0.67328  0.7369  0.5116799999999999  1.0000
  H   H36       1.0  0.48307000000000005  0.20083999999999996  0.34953999999999996  1.0000
  H   H37       1.0  0.27154  0.06206999999999994  0.38673999999999986  1.0000
  H   H38       1.0  0.38691  0.018770000000000012  0.31307  1.0000
  H   H39       1.0  0.39547  0.12317999999999998  0.42315  1.0000
  H   H40       1.0  0.43314  0.84224  0.24034  1.0000
  H   H41       1.0  0.29536  0.87754  0.26425  1.0000
  H   H42       1.0  0.34012  0.7746499999999998  0.2631299999999999  1.0000
  H   H43       1.0  0.01717  0.65055  0.79925  1.0000
  H   H44       1.0  0.22835  0.61322  0.93789  1.0000
  H   H45       1.0  0.11298  0.6869099999999997  0.9811099999999998  1.0000
  H   H46       1.0  0.10452000000000002  0.57678  0.87669  1.0000
  H   H47       1.0  0.06678  0.7597199999999997  0.15771  1.0000
  H   H48       1.0  0.20454  0.73588  0.12242999999999997  1.0000
  H   H49       1.0  0.15988  0.73693  0.22528999999999993  1.0000
  H   H50       1.0  0.3504300000000001  0.20102999999999988  0.8510999999999997  1.0000
  H   H51       1.0  0.56176  0.06221999999999998  0.67544  1.0000
  H   H52       1.0  0.4463  0.019159999999999983  0.70592  1.0000
  H   H53       1.0  0.438  0.12351000000000001  0.70014  1.0000
  H   H54       1.0  0.40014  0.84241  0.60208  1.0000
  H   H55       1.0  0.5379  0.8778100000000001  0.61365  1.0000
  H   H56       1.0  0.49338  0.7749099999999999  0.51176  1.0000
  H   H57       1.0  0.6837400000000001  0.14860999999999994  0.3497399999999999  1.0000
  H   H58       1.0  0.8950600000000001  0.32463999999999993  0.3866599999999999  1.0000
  H   H59       1.0  0.7797300000000001  0.29413999999999996  0.3129999999999999  1.0000
  H   H60       1.0  0.77118  0.29988  0.42313  1.0000
  H   H61       1.0  0.7335  0.39785  0.24021  1.0000
  H   H62       1.0  0.8712  0.38633  0.26407  1.0000
  H   H63       1.0  0.82671  0.4882  0.26305  1.0000
  H   H64       1.0  0.51693  0.34953999999999996  0.20083999999999996  1.0000
  H   H65       1.0  0.7284600000000001  0.38674  0.06207  1.0000
  H   H66       1.0  0.61309  0.31307  0.01876999999999999  1.0000
  H   H67       1.0  0.60453  0.42315  0.12317999999999997  1.0000
  H   H68       1.0  0.56686  0.24034000000000005  0.84224  1.0000
  H   H69       1.0  0.7046400000000002  0.26424999999999993  0.8775399999999998  1.0000
  H   H70       1.0  0.65989  0.26313  0.77464  1.0000
  H   H71       1.0  0.85033  0.79897  0.14894  1.0000
  H   H72       1.0  0.061860000000000005  0.9378299999999998  0.32457  1.0000
  H   H73       1.0  0.94641  0.98098  0.29419  1.0000
  H   H74       1.0  0.93801  0.8766299999999999  0.29992999999999986  1.0000
  H   H75       1.0  0.9002200000000001  0.15763999999999997  0.39802999999999994  1.0000
  H   H76       1.0  0.03799  0.1222299999999999  0.38651999999999986  1.0000
  H   H77       1.0  0.99338  0.22516999999999993  0.4883599999999999  1.0000
  H   H78       1.0  0.18352000000000002  0.8514000000000002  0.65029  1.0000
  H   H79       1.0  0.39516  0.67536  0.61339  1.0000
  H   H80       1.0  0.27983  0.70576  0.68702  1.0000
  H   H81       1.0  0.27118  0.70005  0.57693  1.0000
  H   H82       1.0  0.23358  0.60206  0.75973  1.0000
  H   H83       1.0  0.3713  0.61351  0.7358  1.0000
  H   H84       1.0  0.32673  0.5116799999999999  0.7368999999999999  1.0000
  H   H85       1.0  0.66674  6.0000000000003695e-05  0.50062  1.0000
  H   H86       1.0  0.33326  0.50062  6e-05  1.0000
  H   H87       1.0  0.0  0.49964999999999987  0.49964999999999987  1.0000
  H   H88       1.0  0.16673000000000002  0.9999600000000001  0.49939  1.0000
  H   H89       1.0  0.83327  0.49939000000000006  0.99996  1.0000
  H   H90       1.0  0.5  0.50046  0.50046  1.0000
  C   C1        1.0  0.6601  0.9154199999999998  0.35072  1.0000
  C   C2        1.0  0.65747  0.91584  0.26649  1.0000
  C   C3        1.0  0.65517  0.82183  0.34508  1.0000
  C   C4        1.0  0.52663  0.6678  0.05363  1.0000
  C   C5        1.0  0.52886  0.5641399999999999  0.8462699999999997  1.0000
  C   C6        1.0  0.55594  0.51796  0.90119  1.0000
  C   C7        1.0  0.55645  0.5669199999999999  0.99915  1.0000
  C   C8        1.0  0.32668  0.43521999999999994  0.08446999999999998  1.0000
  C   C9        1.0  0.32414  0.35054  0.08393  1.0000
  C   C10       1.0  0.32179  0.52319  0.17809  1.0000
  C   C11       1.0  0.19334  0.38567999999999997  0.3322499999999999  1.0000
  C   C12       1.0  0.19552  0.28204  0.43586  1.0000
  C   C13       1.0  0.22264  0.38316999999999996  0.4820799999999999  1.0000
  C   C14       1.0  0.22318  0.43212999999999996  0.4331099999999999  1.0000
  C   C15       1.0  0.9934  0.64956  0.56506  1.0000
  C   C16       1.0  0.99079  0.7338  0.6498  1.0000
  C   C17       1.0  0.98852  0.65508  0.47702  1.0000
  C   C18       1.0  0.86004  0.94655  0.61424  1.0000
  C   C19       1.0  0.8622500000000001  0.15391999999999995  0.71792  1.0000
  C   C20       1.0  0.88933  0.09889999999999984  0.6167799999999998  1.0000
  C   C21       1.0  0.88989  0.0009300000000000037  0.56781  1.0000
  C   C22       1.0  0.16025  0.08460999999999985  0.6493499999999998  1.0000
  C   C23       1.0  0.15744  0.08413999999999992  0.7335499999999998  1.0000
  C   C24       1.0  0.15545  0.17830999999999983  0.6551899999999998  1.0000
  C   C25       1.0  0.02652  0.3322799999999998  0.9464699999999998  1.0000
  C   C26       1.0  0.028800000000000003  0.43598999999999993  0.15379999999999994  1.0000
  C   C27       1.0  0.05588  0.4821599999999999  0.09887999999999997  1.0000
  C   C28       1.0  0.05627000000000001  0.43317  0.0009199999999999998  1.0000
  C   C29       1.0  0.82672  0.56484  0.91556  1.0000
  C   C30       1.0  0.82419  0.6495499999999998  0.9161099999999998  1.0000
  C   C31       1.0  0.8219800000000002  0.4769699999999999  0.8218399999999998  1.0000
  C   C32       1.0  0.69323  0.6143499999999998  0.6676899999999999  1.0000
  C   C33       1.0  0.69546  0.71791  0.5640199999999997  1.0000
  C   C34       1.0  0.72257  0.6167799999999999  0.51781  1.0000
  C   C35       1.0  0.72299  0.56785  0.5668  1.0000
  C   C36       1.0  0.49346  0.35049  0.43497999999999987  1.0000
  C   C37       1.0  0.49081  0.26626  0.35021  1.0000
  C   C38       1.0  0.48868  0.34470999999999996  0.52288  1.0000
  C   C39       1.0  0.35992  0.053360000000000005  0.38573  1.0000
  C   C40       1.0  0.36218  0.84603  0.28214  1.0000
  C   C41       1.0  0.38927  0.90105  0.38327999999999995  1.0000
  C   C42       1.0  0.38971  0.9990200000000001  0.43222  1.0000
  C   C43       1.0  0.0066  0.5650599999999999  0.6495599999999998  1.0000
  C   C44       1.0  0.00921  0.6497999999999998  0.7337999999999998  1.0000
  C   C45       1.0  0.011490000000000002  0.4770199999999999  0.65508  1.0000
  C   C46       1.0  0.13997  0.61424  0.94655  1.0000
  C   C47       1.0  0.13775  0.71792  0.15392  1.0000
  C   C48       1.0  0.11067000000000002  0.6167799999999999  0.09889999999999997  1.0000
  C   C49       1.0  0.11011000000000001  0.56782  0.0009399999999999998  1.0000
  C   C50       1.0  0.3399  0.3507199999999999  0.9154199999999998  1.0000
  C   C51       1.0  0.34253  0.2664899999999999  0.9158299999999998  1.0000
  C   C52       1.0  0.34484  0.34508  0.82183  1.0000
  C   C53       1.0  0.47337  0.05363000000000002  0.66779  1.0000
  C   C54       1.0  0.47114  0.8462800000000001  0.56414  1.0000
  C   C55       1.0  0.44407  0.90119  0.51796  1.0000
  C   C56       1.0  0.44355000000000006  0.9991499999999999  0.56692  1.0000
  C   C57       1.0  0.67332  0.08446999999999999  0.43522  1.0000
  C   C58       1.0  0.6758600000000001  0.08392999999999992  0.3505399999999999  1.0000
  C   C59       1.0  0.67821  0.17809  0.52319  1.0000
  C   C60       1.0  0.80666  0.33225  0.38568  1.0000
  C   C61       1.0  0.80448  0.43586  0.28204  1.0000
  C   C62       1.0  0.77737  0.48208  0.3831699999999999  1.0000
  C   C63       1.0  0.77682  0.43311  0.43213  1.0000
  C   C64       1.0  0.50654  0.43498  0.35049  1.0000
  C   C65       1.0  0.5092  0.35022  0.26626  1.0000
  C   C66       1.0  0.51132  0.52288  0.34469999999999995  1.0000
  C   C67       1.0  0.64009  0.38574  0.053359999999999984  1.0000
  C   C68       1.0  0.63782  0.28214000000000006  0.84602  1.0000
  C   C69       1.0  0.61073  0.38327999999999984  0.9010399999999997  1.0000
  C   C70       1.0  0.6103  0.43220999999999987  0.9990099999999998  1.0000
  C   C71       1.0  0.83975  0.64935  0.08461  1.0000
  C   C72       1.0  0.84257  0.7335499999999998  0.08414  1.0000
  C   C73       1.0  0.84455  0.65519  0.17830999999999994  1.0000
  C   C74       1.0  0.97349  0.9464699999999999  0.3322799999999999  1.0000
  C   C75       1.0  0.9712  0.15378999999999995  0.4359899999999999  1.0000
  C   C76       1.0  0.9441300000000001  0.09887999999999993  0.48215999999999987  1.0000
  C   C77       1.0  0.9437300000000002  0.0009199999999999585  0.4331699999999999  1.0000
  C   C78       1.0  0.17329000000000003  0.91556  0.56484  1.0000
  C   C79       1.0  0.17581  0.91612  0.64955  1.0000
  C   C80       1.0  0.17803000000000002  0.82184  0.47697  1.0000
  C   C81       1.0  0.30678  0.66769  0.61435  1.0000
  C   C82       1.0  0.30455  0.5640199999999997  0.7179099999999998  1.0000
  C   C83       1.0  0.27743  0.51781  0.61677  1.0000
  C   C84       1.0  0.27701  0.5668  0.56784  1.0000
  C   C85       1.0  0.66673  0.9999699999999999  0.43505  1.0000
  C   C86       1.0  0.66666  0.99988  0.26774  1.0000
  C   C87       1.0  0.33327000000000007  0.4350599999999999  0.9999699999999999  1.0000
  C   C88       1.0  0.33334  0.2677399999999999  0.9998799999999999  1.0000
  C   C89       1.0  0.0  0.56522  0.56522  1.0000
  C   C90       1.0  8.765982787317442e-21  0.7326399999999997  0.73264  1.0000
  C   C91       1.0  0.16677  4.9999999999985244e-05  0.56496  1.0000
  C   C92       1.0  0.16645  0.00011999999999990038  0.7323499999999997  1.0000
  C   C93       1.0  0.8332400000000001  0.56497  5e-05  1.0000
  C   C94       1.0  0.83355  0.73236  0.00013  1.0000
  C   C95       1.0  0.5  0.43487999999999993  0.43488  1.0000
  C   C96       1.0  0.5  0.26738  0.26739  1.0000
  N   N1        1.0  0.58336  0.42712  0.85409  1.0000
  N   N2        1.0  0.58344  0.52316  0.046229999999999986  1.0000
  N   N3        1.0  0.25004  0.42697000000000007  0.57291  1.0000
  N   N4        1.0  0.25019  0.5230199999999998  0.47691  1.0000
  N   N5        1.0  0.9167100000000001  0.14591  0.57301  1.0000
  N   N6        1.0  0.91693  0.95379  0.4769199999999999  1.0000
  N   N7        1.0  0.0833  0.57301  0.14591  1.0000
  N   N8        1.0  0.08308  0.47691999999999996  0.9537799999999999  1.0000
  N   N9        1.0  0.74997  0.57292  0.4269699999999999  1.0000
  N   N10       1.0  0.74981  0.47691  0.52302  1.0000
  N   N11       1.0  0.41664  0.8541  0.42712  1.0000
  N   N12       1.0  0.41656  0.04623000000000001  0.52315  1.0000
  N   N13       1.0  0.6667  0.9999  0.17866  1.0000
  N   N14       1.0  0.33331000000000005  0.17864999999999998  0.9999  1.0000
  N   N15       1.0  0.0  0.8218799999999999  0.8218699999999998  1.0000
  N   N16       1.0  0.16628  0.0002299999999998893  0.8215099999999997  1.0000
  N   N17       1.0  0.83373  0.82151  0.00022  1.0000
  N   N18       1.0  0.5  0.17819  0.17817999999999998  1.0000
  O   O1        1.0  0.69222  0.8134099999999999  0.4118  1.0000
  O   O2        1.0  0.61375  0.7578399999999998  0.26958  1.0000
  O   O3        1.0  0.63457  0.92851  0.10848999999999998  1.0000
  O   O4        1.0  0.35887  0.59833  0.18651  1.0000
  O   O5        1.0  0.28046  0.51173  0.24209999999999995  1.0000
  O   O6        1.0  0.30114  0.18018999999999996  0.07144999999999997  1.0000
  O   O7        1.0  0.02561  0.58832  0.40187  1.0000
  O   O8        1.0  0.94709  0.7305099999999998  0.48843  1.0000
  O   O9        1.0  0.96769  0.89196  0.82062  1.0000
  O   O10       1.0  0.19050000000000003  0.18651000000000004  0.58776  1.0000
  O   O11       1.0  0.11643000000000002  0.24278  0.73157  1.0000
  O   O12       1.0  0.13027  0.07044999999999997  0.8908  1.0000
  O   O13       1.0  0.85714  0.4013499999999999  0.8136199999999998  1.0000
  O   O14       1.0  0.78301  0.48882000000000003  0.75736  1.0000
  O   O15       1.0  0.79784  0.82096  0.9302  1.0000
  O   O16       1.0  0.52383  0.41212  0.59853  1.0000
  O   O17       1.0  0.44963  0.26835999999999993  0.5109999999999999  1.0000
  O   O18       1.0  0.46393  0.10882  0.17888  1.0000
  O   O19       1.0  0.97439  0.40187  0.58832  1.0000
  O   O20       1.0  0.052910000000000006  0.4884299999999999  0.73051  1.0000
  O   O21       1.0  0.03232  0.8206199999999999  0.8919599999999999  1.0000
  O   O22       1.0  0.30778  0.41179999999999983  0.8134099999999999  1.0000
  O   O23       1.0  0.38625  0.2695799999999999  0.7578299999999998  1.0000
  O   O24       1.0  0.36543  0.1084899999999999  0.9284999999999998  1.0000
  O   O25       1.0  0.64114  0.18650999999999998  0.59833  1.0000
  O   O26       1.0  0.71955  0.24210000000000004  0.51173  1.0000
  O   O27       1.0  0.69886  0.07144999999999999  0.18019  1.0000
  O   O28       1.0  0.47617  0.59853  0.41212  1.0000
  O   O29       1.0  0.55037  0.5109999999999999  0.26836  1.0000
  O   O30       1.0  0.53606  0.17887  0.10882999999999997  1.0000
  O   O31       1.0  0.80951  0.58777  0.18651  1.0000
  O   O32       1.0  0.88358  0.73158  0.24277999999999994  1.0000
  O   O33       1.0  0.86974  0.8908099999999999  0.07045999999999997  1.0000
  O   O34       1.0  0.14286  0.81362  0.4013499999999999  1.0000
  O   O35       1.0  0.217  0.75736  0.48881999999999987  1.0000
  O   O36       1.0  0.20217  0.93019  0.82096  1.0000
