data_image0
_chemical_formula_structural       Zn8H128C176N8O32
_chemical_formula_sum              "Zn8 H128 C176 N8 O32"
_cell_length_a       20.24532
_cell_length_b       20.25297
_cell_length_c       20.72967
_cell_angle_alpha    60.86701
_cell_angle_beta     60.87227
_cell_angle_gamma    65.53088

_symmetry_space_group_name_H-M    'P 1'
_symmetry_Int_Tables_number       1

loop_
  _symmetry_equiv_pos_as_xyz
  'x,y,z'

loop_
  _atom_site_type_symbol
  _atom_site_label
  _atom_site_symmetry_multiplicity
  _atom_site_fract_x
  _atom_site_fract_y
  _atom_site_fract_z
  _atom_site_occupancy
  Zn  Zn1       1.0  0.64389  0.17304000000000005  0.98583  1.0000
  Zn  Zn2       1.0  0.57387  0.04696999999999999  0.07948  1.0000
  Zn  Zn3       1.0  0.17306000000000005  0.64374  0.48595  1.0000
  Zn  Zn4       1.0  0.046959999999999946  0.5738700000000001  0.57943  1.0000
  Zn  Zn5       1.0  0.8269399999999999  0.35626  0.51406  1.0000
  Zn  Zn6       1.0  0.95305  0.42613000000000006  0.42057  1.0000
  Zn  Zn7       1.0  0.35611  0.82696  0.01417  1.0000
  Zn  Zn8       1.0  0.42614000000000013  0.95303  0.92052  1.0000
  H   H1        1.0  0.51281  0.3214  0.13323  1.0000
  H   H2        1.0  0.37963  0.15414  0.23132  1.0000
  H   H3        1.0  0.27322  0.22006999999999993  0.32585  1.0000
  H   H4        1.0  0.18161999999999998  0.30894  0.40791  1.0000
  H   H5        1.0  0.11877000000000003  0.40637999999999996  0.47312  1.0000
  H   H6        1.0  0.31482  0.51135  0.32904  1.0000
  H   H7        1.0  0.46272000000000013  0.4444099999999999  0.27129  1.0000
  H   H8        1.0  0.52353  0.3847400000000001  0.21348  1.0000
  H   H9        1.0  0.46883  0.34254  0.31544  1.0000
  H   H10       1.0  0.39268999999999993  0.5318400000000001  0.17289  1.0000
  H   H11       1.0  0.35023  0.49095  0.14737  1.0000
  H   H12       1.0  0.45311  0.47313000000000005  0.1139  1.0000
  H   H13       1.0  0.9064799999999998  0.6994999999999999  0.7491  1.0000
  H   H14       1.0  0.08710000000000001  0.82161  0.57594  1.0000
  H   H15       1.0  0.025920000000000002  0.92241  0.63853  1.0000
  H   H16       1.0  0.9391500000000002  0.011900000000000006  0.71874  1.0000
  H   H17       1.0  0.83701  0.07878000000000007  0.81385  1.0000
  H   H18       1.0  0.7155  0.89606  0.93866  1.0000
  H   H19       1.0  0.7568499999999999  0.7614100000000001  0.8165  1.0000
  H   H20       1.0  0.6987300000000002  0.8218399999999999  0.87354  1.0000
  H   H21       1.0  0.74436  0.8639899999999999  0.76914  1.0000
  H   H22       1.0  0.8393  0.68441  0.90458  1.0000
  H   H23       1.0  0.8834699999999999  0.73357  0.91895  1.0000
  H   H24       1.0  0.7806199999999999  0.7450700000000002  0.96159  1.0000
  H   H25       1.0  0.022189999999999967  0.43660000000000004  0.58514  1.0000
  H   H26       1.0  0.93254  0.3462299999999999  0.6747  1.0000
  H   H27       1.0  0.80788  0.48954000000000003  0.81861  1.0000
  H   H28       1.0  0.90622  0.57115  0.72456  1.0000
  H   H29       1.0  0.81378  0.33027000000000006  0.71708  1.0000
  H   H30       1.0  0.7282  0.23561999999999997  0.8148  1.0000
  H   H31       1.0  0.69964  0.27743000000000007  0.00361  1.0000
  H   H32       1.0  0.78808  0.36999  0.91606  1.0000
  H   H33       1.0  0.32137  0.51288  0.63323  1.0000
  H   H34       1.0  0.1541  0.37972000000000006  0.73124  1.0000
  H   H35       1.0  0.22004000000000007  0.27327  0.8258  1.0000
  H   H36       1.0  0.30889999999999995  0.18172000000000005  0.90784  1.0000
  H   H37       1.0  0.40637000000000006  0.11882  0.97308  1.0000
  H   H38       1.0  0.5114400000000003  0.31476  0.82909  1.0000
  H   H39       1.0  0.44443000000000005  0.4626700000000001  0.77134  1.0000
  H   H40       1.0  0.38469999999999993  0.52349  0.71352  1.0000
  H   H41       1.0  0.34254000000000007  0.4687499999999999  0.81545  1.0000
  H   H42       1.0  0.5318999999999999  0.39263000000000003  0.67289  1.0000
  H   H43       1.0  0.4909400000000002  0.35022000000000003  0.6474099999999999  1.0000
  H   H44       1.0  0.47314  0.45307000000000003  0.61389  1.0000
  H   H45       1.0  0.69945  0.9065100000000001  0.24904  1.0000
  H   H46       1.0  0.82161  0.08705999999999998  0.07602  1.0000
  H   H47       1.0  0.9225  0.02583  0.1386  1.0000
  H   H48       1.0  0.011929999999999939  0.93912  0.21875  1.0000
  H   H49       1.0  0.07886999999999995  0.8369700000000001  0.31388  1.0000
  H   H50       1.0  0.8961200000000001  0.7154499999999999  0.43869  1.0000
  H   H51       1.0  0.7614000000000002  0.75691  0.31643  1.0000
  H   H52       1.0  0.8218900000000001  0.69875  0.37351  1.0000
  H   H53       1.0  0.864  0.7444400000000002  0.26911  1.0000
  H   H54       1.0  0.6843700000000003  0.83936  0.40454  1.0000
  H   H55       1.0  0.73359  0.8834700000000001  0.41889  1.0000
  H   H56       1.0  0.74504  0.7806600000000001  0.46161  1.0000
  H   H57       1.0  0.43652  0.02218000000000001  0.08515  1.0000
  H   H58       1.0  0.3461799999999999  0.93252  0.17473  1.0000
  H   H59       1.0  0.48962999999999995  0.8079  0.31858  1.0000
  H   H60       1.0  0.5711999999999999  0.9062500000000001  0.22453  1.0000
  H   H61       1.0  0.3302299999999999  0.8137700000000002  0.21712  1.0000
  H   H62       1.0  0.23558999999999997  0.7282000000000001  0.3148  1.0000
  H   H63       1.0  0.27747999999999995  0.6995900000000002  0.5036  1.0000
  H   H64       1.0  0.36991  0.78814  0.41606  1.0000
  H   H65       1.0  0.67863  0.48712000000000005  0.36678  1.0000
  H   H66       1.0  0.8459  0.62028  0.26876  1.0000
  H   H67       1.0  0.7799600000000002  0.72672  0.1742  1.0000
  H   H68       1.0  0.69111  0.81828  0.09216  1.0000
  H   H69       1.0  0.59364  0.88118  0.02693  1.0000
  H   H70       1.0  0.48855999999999994  0.68524  0.17091  1.0000
  H   H71       1.0  0.5555700000000002  0.53733  0.22865999999999997  1.0000
  H   H72       1.0  0.6152999999999998  0.47651000000000004  0.28649  1.0000
  H   H73       1.0  0.65746  0.5312500000000001  0.18454999999999996  1.0000
  H   H74       1.0  0.4681  0.60737  0.32711  1.0000
  H   H75       1.0  0.50907  0.64978  0.3526  1.0000
  H   H76       1.0  0.52686  0.54693  0.38612  1.0000
  H   H77       1.0  0.30055  0.09349  0.75097  1.0000
  H   H78       1.0  0.17839999999999975  0.9129400000000005  0.92398  1.0000
  H   H79       1.0  0.07750999999999986  0.9741700000000001  0.8614  1.0000
  H   H80       1.0  0.9880700000000001  0.06088  0.78125  1.0000
  H   H81       1.0  0.9211300000000001  0.16303  0.68612  1.0000
  H   H82       1.0  0.10389000000000004  0.2845500000000001  0.56131  1.0000
  H   H83       1.0  0.2386  0.24308  0.68357  1.0000
  H   H84       1.0  0.17812000000000003  0.30124999999999996  0.62649  1.0000
  H   H85       1.0  0.13599999999999998  0.25556  0.73089  1.0000
  H   H86       1.0  0.31563  0.16063  0.59546  1.0000
  H   H87       1.0  0.26641  0.11652000000000003  0.58111  1.0000
  H   H88       1.0  0.25496  0.21934000000000003  0.53839  1.0000
  H   H89       1.0  0.5634900000000002  0.9778100000000001  0.91485  1.0000
  H   H90       1.0  0.65383  0.06748000000000003  0.82528  1.0000
  H   H91       1.0  0.51037  0.1921  0.68142  1.0000
  H   H92       1.0  0.42880000000000007  0.09374999999999999  0.77547  1.0000
  H   H93       1.0  0.66977  0.18623000000000003  0.78289  1.0000
  H   H94       1.0  0.7644100000000001  0.2718  0.6852  1.0000
  H   H95       1.0  0.72253  0.30039999999999994  0.49640000000000006  1.0000
  H   H96       1.0  0.6300900000000001  0.21185999999999997  0.58394  1.0000
  H   H97       1.0  0.48719000000000007  0.6786000000000002  0.86677  1.0000
  H   H98       1.0  0.62037  0.8458600000000001  0.76869  1.0000
  H   H99       1.0  0.7267800000000002  0.7799299999999999  0.67415  1.0000
  H   H100      1.0  0.81838  0.6910600000000002  0.59209  1.0000
  H   H101      1.0  0.8812399999999998  0.59362  0.52688  1.0000
  H   H102      1.0  0.6851800000000002  0.48864999999999986  0.67096  1.0000
  H   H103      1.0  0.5372800000000001  0.5555899999999999  0.72871  1.0000
  H   H104      1.0  0.47647000000000006  0.6152600000000001  0.78652  1.0000
  H   H105      1.0  0.5311700000000001  0.6574600000000004  0.68457  1.0000
  H   H106      1.0  0.6073099999999998  0.46816  0.82711  1.0000
  H   H107      1.0  0.64978  0.50905  0.85263  1.0000
  H   H108      1.0  0.5468899999999999  0.5268700000000001  0.8860999999999999  1.0000
  H   H109      1.0  0.09351999999999998  0.3005  0.2509  1.0000
  H   H110      1.0  0.91291  0.17839000000000002  0.42407  1.0000
  H   H111      1.0  0.97408  0.07759  0.36147  1.0000
  H   H112      1.0  0.06084999999999992  0.9881000000000001  0.28126  1.0000
  H   H113      1.0  0.16298999999999994  0.9212100000000001  0.18615  1.0000
  H   H114      1.0  0.2845  0.10394000000000005  0.06134  1.0000
  H   H115      1.0  0.2431599999999999  0.23859000000000008  0.18351  1.0000
  H   H116      1.0  0.3012800000000001  0.17815  0.12646  1.0000
  H   H117      1.0  0.25565  0.136  0.23086  1.0000
  H   H118      1.0  0.1607  0.31559  0.09542  1.0000
  H   H119      1.0  0.11653999999999998  0.26643  0.08106  1.0000
  H   H120      1.0  0.21937999999999996  0.2549300000000001  0.03841  1.0000
  H   H121      1.0  0.9778100000000001  0.5634  0.41487  1.0000
  H   H122      1.0  0.06745999999999999  0.6537600000000001  0.3253  1.0000
  H   H123      1.0  0.19212000000000004  0.51046  0.18139  1.0000
  H   H124      1.0  0.09377999999999993  0.4288500000000002  0.27544  1.0000
  H   H125      1.0  0.18623000000000006  0.66973  0.28293  1.0000
  H   H126      1.0  0.27179999999999993  0.76437  0.1852  1.0000
  H   H127      1.0  0.30036  0.7225700000000003  0.9963899999999999  1.0000
  H   H128      1.0  0.2119299999999999  0.63  0.08395  1.0000
  C   C1        1.0  0.46049000000000007  0.30018  0.17584  1.0000
  C   C2        1.0  0.45147  0.23392000000000002  0.17772  1.0000
  C   C3        1.0  0.38423999999999997  0.20541  0.23188  1.0000
  C   C4        1.0  0.32538000000000006  0.24201999999999996  0.28426  1.0000
  C   C5        1.0  0.21137  0.35239999999999994  0.39051  1.0000
  C   C6        1.0  0.17625999999999997  0.40672  0.42737  1.0000
  C   C7        1.0  0.21366  0.4633  0.40584  1.0000
  C   C8        1.0  0.28703  0.46698000000000006  0.3449  1.0000
  C   C9        1.0  0.39950999999999987  0.40712000000000004  0.2392  1.0000
  C   C10       1.0  0.40269  0.33614  0.22877  1.0000
  C   C11       1.0  0.33501  0.30747  0.28253  1.0000
  C   C12       1.0  0.28467000000000003  0.35594  0.33052  1.0000
  C   C13       1.0  0.3217900000000001  0.41392  0.30706  1.0000
  C   C14       1.0  0.46781  0.39366000000000007  0.26136  1.0000
  C   C15       1.0  0.39874999999999994  0.48024000000000006  0.16376  1.0000
  C   C16       1.0  0.51279  0.19333  0.12181  1.0000
  C   C17       1.0  0.1757599999999999  0.5189500000000002  0.44853  1.0000
  C   C18       1.0  0.93162  0.7482700000000001  0.72604  1.0000
  C   C19       1.0  0.00027999999999996707  0.75554  0.65864  1.0000
  C   C20       1.0  0.034080000000000055  0.8179899999999999  0.62792  1.0000
  C   C21       1.0  0.9999799999999996  0.87391  0.66265  1.0000
  C   C22       1.0  0.89035  0.98685  0.76633  1.0000
  C   C23       1.0  0.83369  0.024090000000000004  0.81899  1.0000
  C   C24       1.0  0.7708200000000002  0.99155  0.8809  1.0000
  C   C25       1.0  0.7642800000000001  0.92052  0.89036  1.0000
  C   C26       1.0  0.82397  0.80858  0.83392  1.0000
  C   C27       1.0  0.8975899999999997  0.8035400000000004  0.76131  1.0000
  C   C28       1.0  0.93138  0.8666899999999998  0.72909  1.0000
  C   C29       1.0  0.8829400000000001  0.91669  0.77566  1.0000
  C   C30       1.0  0.8197599999999998  0.8838500000000001  0.83729  1.0000
  C   C31       1.0  0.7516  0.81452  0.82243  1.0000
  C   C32       1.0  0.8325199999999998  0.7386600000000001  0.90943  1.0000
  C   C33       1.0  0.03723999999999996  0.6983500000000001  0.6176  1.0000
  C   C34       1.0  0.7105200000000002  0.033439999999999984  0.93599  1.0000
  C   C35       1.0  0.9741700000000001  0.44503999999999994  0.63804  1.0000
  C   C36       1.0  0.9233199999999998  0.39599000000000006  0.68768  1.0000
  C   C37       1.0  0.8622200000000001  0.41026  0.75475  1.0000
  C   C38       1.0  0.85518  0.47461000000000003  0.76858  1.0000
  C   C39       1.0  0.9086300000000002  0.52084  0.71649  1.0000
  C   C40       1.0  0.8083500000000001  0.35795000000000005  0.80892  1.0000
  C   C41       1.0  0.7906  0.31969999999999993  0.78014  1.0000
  C   C42       1.0  0.7424300000000007  0.2682800000000001  0.8333199999999997  1.0000
  C   C43       1.0  0.7266099999999999  0.29121  0.93987  1.0000
  C   C44       1.0  0.7749899999999998  0.34295000000000003  0.89066  1.0000
  C   C45       1.0  0.3001800000000002  0.46055  0.67583  1.0000
  C   C46       1.0  0.2339100000000001  0.45148999999999995  0.67772  1.0000
  C   C47       1.0  0.20538000000000003  0.38428  0.73186  1.0000
  C   C48       1.0  0.24198999999999996  0.32542  0.78424  1.0000
  C   C49       1.0  0.35239  0.21143000000000006  0.89047  1.0000
  C   C50       1.0  0.40671999999999997  0.17630999999999994  0.92734  1.0000
  C   C51       1.0  0.4633199999999999  0.21369000000000005  0.90582  1.0000
  C   C52       1.0  0.46702999999999995  0.28703  0.8449  1.0000
  C   C53       1.0  0.40715000000000007  0.39951  0.73921  1.0000
  C   C54       1.0  0.33613999999999994  0.40273000000000003  0.72876  1.0000
  C   C55       1.0  0.30745999999999996  0.33507  0.78251  1.0000
  C   C56       1.0  0.3559500000000001  0.28472000000000003  0.8305  1.0000
  C   C57       1.0  0.41396  0.3218  0.80706  1.0000
  C   C58       1.0  0.39368000000000003  0.4677800000000001  0.7613799999999998  1.0000
  C   C59       1.0  0.4802699999999999  0.39874  0.66376  1.0000
  C   C60       1.0  0.19332000000000005  0.51278  0.62182  1.0000
  C   C61       1.0  0.5189599999999999  0.17579000000000006  0.94854  1.0000
  C   C62       1.0  0.7482499999999999  0.9316000000000001  0.22605  1.0000
  C   C63       1.0  0.75554  0.000250000000000005  0.15868999999999997  1.0000
  C   C64       1.0  0.818  0.03405  0.12798  1.0000
  C   C65       1.0  0.8739600000000001  0.99993  0.1627  1.0000
  C   C66       1.0  0.9869100000000001  0.89031  0.26636  1.0000
  C   C67       1.0  0.024169999999999976  0.8336399999999999  0.319  1.0000
  C   C68       1.0  0.9916200000000001  0.77078  0.38091  1.0000
  C   C69       1.0  0.92056  0.76423  0.39037  1.0000
  C   C70       1.0  0.80858  0.82396  0.33392  1.0000
  C   C71       1.0  0.8035400000000001  0.89756  0.26131  1.0000
  C   C72       1.0  0.86672  0.9313300000000001  0.22911  1.0000
  C   C73       1.0  0.91672  0.88288  0.27569  1.0000
  C   C74       1.0  0.8838800000000001  0.8197200000000001  0.33731  1.0000
  C   C75       1.0  0.81452  0.75163  0.32242  1.0000
  C   C76       1.0  0.73865  0.83254  0.40942  1.0000
  C   C77       1.0  0.69838  0.03724  0.11761  1.0000
  C   C78       1.0  0.033469999999999986  0.71045  0.43603  1.0000
  C   C79       1.0  0.44500999999999996  0.9741700000000001  0.13803  1.0000
  C   C80       1.0  0.3959700000000001  0.9233200000000001  0.18768  1.0000
  C   C81       1.0  0.4102600000000001  0.86222  0.25475  1.0000
  C   C82       1.0  0.47465  0.85518  0.26857  1.0000
  C   C83       1.0  0.52086  0.90865  0.21647  1.0000
  C   C84       1.0  0.3579200000000002  0.8083499999999999  0.30892  1.0000
  C   C85       1.0  0.31966  0.79058  0.28017  1.0000
  C   C86       1.0  0.26826  0.74239  0.33335  1.0000
  C   C87       1.0  0.29121  0.72657  0.43987  1.0000
  C   C88       1.0  0.3429200000000001  0.7750000000000001  0.39067  1.0000
  C   C89       1.0  0.69983  0.53945  0.32417  1.0000
  C   C90       1.0  0.7660999999999999  0.54851  0.32228  1.0000
  C   C91       1.0  0.79463  0.61571  0.26814  1.0000
  C   C92       1.0  0.7580099999999999  0.67458  0.21576  1.0000
  C   C93       1.0  0.6476199999999998  0.7885700000000002  0.10953  1.0000
  C   C94       1.0  0.5932899999999998  0.8236900000000001  0.07265999999999999  1.0000
  C   C95       1.0  0.5366799999999999  0.78631  0.09418  1.0000
  C   C96       1.0  0.5329699999999999  0.7129700000000002  0.1551  1.0000
  C   C97       1.0  0.59285  0.60049  0.26079  1.0000
  C   C98       1.0  0.6638600000000002  0.59726  0.27124  1.0000
  C   C99       1.0  0.6925400000000002  0.66493  0.21749  1.0000
  C   C100      1.0  0.64405  0.71528  0.1695  1.0000
  C   C101      1.0  0.5860499999999998  0.67819  0.19295  1.0000
  C   C102      1.0  0.60632  0.53222  0.23862  1.0000
  C   C103      1.0  0.5197300000000002  0.60126  0.33625  1.0000
  C   C104      1.0  0.8066800000000001  0.48722  0.37818  1.0000
  C   C105      1.0  0.48103999999999997  0.8242  0.05146  1.0000
  C   C106      1.0  0.25175000000000003  0.06840000000000002  0.77395  1.0000
  C   C107      1.0  0.2444599999999998  0.9997400000000001  0.84131  1.0000
  C   C108      1.0  0.182  0.96595  0.87202  1.0000
  C   C109      1.0  0.12604000000000018  6.999999999998983e-05  0.83731  1.0000
  C   C110      1.0  0.013089999999999968  0.10969000000000001  0.73365  1.0000
  C   C111      1.0  0.97583  0.16636  0.681  1.0000
  C   C112      1.0  0.008379999999999976  0.2292200000000001  0.61909  1.0000
  C   C113      1.0  0.07944000000000001  0.23575999999999994  0.60963  1.0000
  C   C114      1.0  0.19142999999999996  0.17604000000000006  0.66608  1.0000
  C   C115      1.0  0.19646  0.10244000000000002  0.73869  1.0000
  C   C116      1.0  0.13329000000000002  0.06867  0.77089  1.0000
  C   C117      1.0  0.08328  0.11712000000000003  0.72431  1.0000
  C   C118      1.0  0.11612000000000006  0.18028000000000002  0.66269  1.0000
  C   C119      1.0  0.18548000000000003  0.24835999999999994  0.67758  1.0000
  C   C120      1.0  0.2613600000000001  0.16746000000000005  0.5905799999999999  1.0000
  C   C121      1.0  0.3016199999999999  0.9627600000000001  0.88239  1.0000
  C   C122      1.0  0.96653  0.28955  0.56397  1.0000
  C   C123      1.0  0.5549899999999999  0.02581999999999997  0.86197  1.0000
  C   C124      1.0  0.60403  0.07668  0.81232  1.0000
  C   C125      1.0  0.58974  0.13778000000000004  0.74525  1.0000
  C   C126      1.0  0.5253600000000003  0.14481999999999998  0.73144  1.0000
  C   C127      1.0  0.47914  0.09134999999999997  0.78353  1.0000
  C   C128      1.0  0.6420800000000001  0.19164000000000003  0.69108  1.0000
  C   C129      1.0  0.6803400000000002  0.20940999999999996  0.71983  1.0000
  C   C130      1.0  0.7317499999999999  0.25761000000000017  0.66665  1.0000
  C   C131      1.0  0.7087900000000001  0.27342999999999995  0.56013  1.0000
  C   C132      1.0  0.65709  0.22500000000000003  0.60934  1.0000
  C   C133      1.0  0.5395100000000002  0.6998200000000001  0.82417  1.0000
  C   C134      1.0  0.5485300000000005  0.7660799999999999  0.82229  1.0000
  C   C135      1.0  0.6157700000000003  0.79459  0.76812  1.0000
  C   C136      1.0  0.6746299999999998  0.7579800000000003  0.71574  1.0000
  C   C137      1.0  0.7886299999999999  0.6476000000000001  0.60949  1.0000
  C   C138      1.0  0.82374  0.5932800000000003  0.57263  1.0000
  C   C139      1.0  0.7863399999999999  0.5367  0.59417  1.0000
  C   C140      1.0  0.7129800000000001  0.53302  0.65511  1.0000
  C   C141      1.0  0.6004899999999999  0.59287  0.7608  1.0000
  C   C142      1.0  0.5973099999999999  0.6638600000000001  0.77124  1.0000
  C   C143      1.0  0.66499  0.6925300000000001  0.71747  1.0000
  C   C144      1.0  0.7153300000000001  0.64406  0.66948  1.0000
  C   C145      1.0  0.6782199999999999  0.58607  0.69294  1.0000
  C   C146      1.0  0.5321899999999999  0.6063300000000001  0.73864  1.0000
  C   C147      1.0  0.60125  0.51976  0.8362499999999999  1.0000
  C   C148      1.0  0.48720999999999987  0.8066700000000003  0.87819  1.0000
  C   C149      1.0  0.82425  0.48105  0.55147  1.0000
  C   C150      1.0  0.06838999999999999  0.25173  0.27396  1.0000
  C   C151      1.0  0.99972  0.24446  0.34136  1.0000
  C   C152      1.0  0.9659200000000001  0.18201  0.37208  1.0000
  C   C153      1.0  2.0000000000011748e-05  0.12608999999999998  0.33736  1.0000
  C   C154      1.0  0.10965999999999998  0.013150000000000007  0.23367  1.0000
  C   C155      1.0  0.1663199999999999  0.9759000000000001  0.18101  1.0000
  C   C156      1.0  0.22918  0.008450000000000004  0.11909999999999998  1.0000
  C   C157      1.0  0.23572  0.07948  0.10965  1.0000
  C   C158      1.0  0.17603000000000002  0.19141999999999998  0.16609  1.0000
  C   C159      1.0  0.10241000000000004  0.19645999999999997  0.23869999999999997  1.0000
  C   C160      1.0  0.06861999999999999  0.13331  0.27090999999999993  1.0000
  C   C161      1.0  0.11706  0.08330999999999998  0.22435  1.0000
  C   C162      1.0  0.18024  0.11615  0.16271  1.0000
  C   C163      1.0  0.24840000000000004  0.18547000000000002  0.17757  1.0000
  C   C164      1.0  0.16748000000000002  0.26133  0.09057  1.0000
  C   C165      1.0  0.96276  0.30165  0.3824  1.0000
  C   C166      1.0  0.28947999999999996  0.9665600000000001  0.06401  1.0000
  C   C167      1.0  0.02583  0.55496  0.36197  1.0000
  C   C168      1.0  0.07667999999999996  0.604  0.31233  1.0000
  C   C169      1.0  0.13777999999999999  0.58974  0.24524999999999997  1.0000
  C   C170      1.0  0.14483000000000004  0.52539  0.23142  1.0000
  C   C171      1.0  0.09137  0.47916000000000003  0.28352  1.0000
  C   C172      1.0  0.19165000000000001  0.64205  0.19108  1.0000
  C   C173      1.0  0.20940000000000006  0.6803  0.21986  1.0000
  C   C174      1.0  0.25758000000000003  0.73172  0.16668  1.0000
  C   C175      1.0  0.27339  0.70879  0.06013  1.0000
  C   C176      1.0  0.22501999999999994  0.65704  0.10934  1.0000
  N   N1        1.0  0.9671899999999998  0.50626  0.65235  1.0000
  N   N2        1.0  0.7108499999999998  0.25415  0.91165  1.0000
  N   N3        1.0  0.50626  0.9672000000000001  0.15234  1.0000
  N   N4        1.0  0.25415999999999994  0.71077  0.41167  1.0000
  N   N5        1.0  0.49374  0.032790000000000014  0.84766  1.0000
  N   N6        1.0  0.7458399999999998  0.28923  0.58833  1.0000
  N   N7        1.0  0.03282000000000005  0.49373  0.34765  1.0000
  N   N8        1.0  0.28915  0.74584  0.08836  1.0000
  O   O1        1.0  0.56801  0.22633  0.06652999999999999  1.0000
  O   O2        1.0  0.50486  0.1288  0.13321  1.0000
  O   O3        1.0  0.10732000000000001  0.51587  0.49983  1.0000
  O   O4        1.0  0.2146299999999999  0.5655000000000002  0.43053  1.0000
  O   O5        1.0  0.0026600000000001037  0.6452499999999999  0.64341  1.0000
  O   O6        1.0  0.10092999999999994  0.7074300000000001  0.55881  1.0000
  O   O7        1.0  0.6628000000000001  0.9960400000000001  0.9990499999999999  1.0000
  O   O8        1.0  0.7108000000000001  0.10402000000000002  0.9150599999999999  1.0000
  O   O9        1.0  0.22635999999999995  0.56798  0.5666  1.0000
  O   O10       1.0  0.12881000000000006  0.50488  0.63311  1.0000
  O   O11       1.0  0.51567  0.10746000000000001  1e-05  1.0000
  O   O12       1.0  0.5657  0.21453000000000003  0.9304  1.0000
  O   O13       1.0  0.64534  0.0025800000000000003  0.14332  1.0000
  O   O14       1.0  0.70742  0.10096  0.05892  1.0000
  O   O15       1.0  0.9959600000000001  0.66289  0.49914  1.0000
  O   O16       1.0  0.10415999999999997  0.71052  0.41506  1.0000
  O   O17       1.0  0.77364  0.43201  0.4334  1.0000
  O   O18       1.0  0.8711900000000001  0.49512  0.36689  1.0000
  O   O19       1.0  0.48434000000000027  0.89254  0.99999  1.0000
  O   O20       1.0  0.43429999999999974  0.7854700000000002  0.0696  1.0000
  O   O21       1.0  0.35467  0.99742  0.85668  1.0000
  O   O22       1.0  0.2925900000000004  0.8990399999999997  0.94108  1.0000
  O   O23       1.0  0.004040000000000026  0.33710999999999997  0.50086  1.0000
  O   O24       1.0  0.8958399999999999  0.28948  0.58494  1.0000
  O   O25       1.0  0.43200000000000016  0.7736699999999999  0.93347  1.0000
  O   O26       1.0  0.49514  0.8712000000000001  0.86679  1.0000
  O   O27       1.0  0.89268  0.48413  0.50017  1.0000
  O   O28       1.0  0.7853699999999999  0.4345  0.56947  1.0000
  O   O29       1.0  0.9973400000000002  0.35475  0.3566  1.0000
  O   O30       1.0  0.8990700000000001  0.29255999999999993  0.44119  1.0000
  O   O31       1.0  0.33720000000000006  0.003960000000000001  0.00096  1.0000
  O   O32       1.0  0.2891999999999999  0.8959800000000001  0.08495  1.0000
