data_image0
_chemical_formula_structural       Co12H64C128O64
_chemical_formula_sum              "Co12 H64 C128 O64"
_cell_length_a       11.83422
_cell_length_b       14.931359999999998
_cell_length_c       23.97652
_cell_angle_alpha    89.69866
_cell_angle_beta     89.55978
_cell_angle_gamma    90.06368

_symmetry_space_group_name_H-M    'P 1'
_symmetry_Int_Tables_number       1

loop_
  _symmetry_equiv_pos_as_xyz
  'x,y,z'

loop_
  _atom_site_type_symbol
  _atom_site_label
  _atom_site_symmetry_multiplicity
  _atom_site_fract_x
  _atom_site_fract_y
  _atom_site_fract_z
  _atom_site_occupancy
  Co  Co1       1.0  0.638  0.45655  0.37023  1.0000
  Co  Co2       1.0  0.3545  0.04658  0.87108  1.0000
  Co  Co3       1.0  0.14588  0.54526  0.12811  1.0000
  Co  Co4       1.0  0.858  0.9538599999999998  0.62847  1.0000
  Co  Co5       1.0  0.36028999999999994  0.54625  0.6286  1.0000
  Co  Co6       1.0  0.63902  0.95553  0.13108  1.0000
  Co  Co7       1.0  0.85779  0.456  0.87165  1.0000
  Co  Co8       1.0  0.14058  0.050779999999999985  0.37513  1.0000
  Co  Co9       1.0  0.4990599999999999  0.50323  0.49968000000000007  1.0000
  Co  Co10      1.0  0.50285  0.004  0.00288  1.0000
  Co  Co11      1.0  0.99433  0.50442  0.99814  1.0000
  Co  Co12      1.0  0.9962299999999998  0.99946  0.50145  1.0000
  H   H1        1.0  0.36343  0.53805  0.27968  1.0000
  H   H2        1.0  0.09829999999999998  0.7359099999999998  0.27517  1.0000
  H   H3        1.0  0.15905999999999995  0.79262  0.3681  1.0000
  H   H4        1.0  0.31603  0.7159599999999999  0.41849  1.0000
  H   H5        1.0  0.23733  0.80066  0.53966  1.0000
  H   H6        1.0  0.43982  0.95156  0.42214  1.0000
  H   H7        1.0  0.60244  0.84945  0.43968  1.0000
  H   H8        1.0  0.57449  0.71389  0.50002  1.0000
  H   H9        1.0  0.63455  0.95964  0.77847  1.0000
  H   H10       1.0  0.8966899999999999  0.76021  0.7844299999999998  1.0000
  H   H11       1.0  0.82699  0.71038  0.87847  1.0000
  H   H12       1.0  0.66824  0.79293  0.92433  1.0000
  H   H13       1.0  0.7550599999999998  0.70076  0.04053  1.0000
  H   H14       1.0  0.54859  0.55547  0.92456  1.0000
  H   H15       1.0  0.38766  0.65841  0.94468  1.0000
  H   H16       1.0  0.41994  0.7930899999999997  0.00472  1.0000
  H   H17       1.0  0.86824  0.45666  0.22197  1.0000
  H   H18       1.0  0.60213  0.26003  0.21833  1.0000
  H   H19       1.0  0.6684  0.21006999999999998  0.12401  1.0000
  H   H20       1.0  0.8287899999999999  0.29042  0.07729  1.0000
  H   H21       1.0  0.74381  0.20013  0.96025  1.0000
  H   H22       1.0  0.94853  0.05223  0.0763  1.0000
  H   H23       1.0  0.11057  0.15513  0.05636  1.0000
  H   H24       1.0  0.07924  0.2913  0.9966999999999999  1.0000
  H   H25       1.0  0.13342  0.03747  0.7201300000000002  1.0000
  H   H26       1.0  0.4013  0.23361  0.72187  1.0000
  H   H27       1.0  0.33998  0.2899  0.62842  1.0000
  H   H28       1.0  0.18116  0.21383999999999995  0.57948  1.0000
  H   H29       1.0  0.26771  0.30248  0.45812  1.0000
  H   H30       1.0  0.05571000000000001  0.44285  0.57537  1.0000
  H   H31       1.0  0.8954899999999999  0.34033  0.55331  1.0000
  H   H32       1.0  0.93023  0.20809  0.49172999999999994  1.0000
  H   H33       1.0  0.63822  0.45913  0.72102  1.0000
  H   H34       1.0  0.89898  0.25847  0.7188800000000001  1.0000
  H   H35       1.0  0.8338199999999999  0.20721  0.62513  1.0000
  H   H36       1.0  0.67658  0.28855  0.57786  1.0000
  H   H37       1.0  0.75962  0.20396  0.45998  1.0000
  H   H38       1.0  0.55293  0.05007  0.57392  1.0000
  H   H39       1.0  0.39053  0.15266  0.55587  1.0000
  H   H40       1.0  0.42228  0.29105  0.49805999999999995  1.0000
  H   H41       1.0  0.35366  0.031789999999999985  0.22206  1.0000
  H   H42       1.0  0.09027  0.23142999999999994  0.22522000000000003  1.0000
  H   H43       1.0  0.15627  0.28899  0.13253  1.0000
  H   H44       1.0  0.31626  0.21332  0.08341  1.0000
  H   H45       1.0  0.23744999999999997  0.30131  0.95913  1.0000
  H   H46       1.0  0.4380899999999999  0.44926  0.07639  1.0000
  H   H47       1.0  0.60084  0.34715  0.05847  1.0000
  H   H48       1.0  0.57334  0.21258999999999997  0.99791  1.0000
  H   H49       1.0  0.13364  0.54553  0.7781299999999999  1.0000
  H   H50       1.0  0.40249999999999997  0.74009  0.77935  1.0000
  H   H51       1.0  0.33862999999999993  0.79213  0.8736400000000001  1.0000
  H   H52       1.0  0.17751999999999998  0.71406  0.9213900000000002  1.0000
  H   H53       1.0  0.25916  0.80186  0.04054  1.0000
  H   H54       1.0  0.05863  0.9503  0.92262  1.0000
  H   H55       1.0  0.8961  0.84791  0.94114  1.0000
  H   H56       1.0  0.9233799999999999  0.7129799999999997  0.00211  1.0000
  H   H57       1.0  0.87737  0.95733  0.27657  1.0000
  H   H58       1.0  0.60553  0.76599  0.28616  1.0000
  H   H59       1.0  0.67657  0.71203  0.37868  1.0000
  H   H60       1.0  0.8400299999999999  0.78981  0.4223  1.0000
  H   H61       1.0  0.7389799999999999  0.69884  0.54014  1.0000
  H   H62       1.0  0.9438  0.55341  0.42214  1.0000
  H   H63       1.0  0.10739999999999998  0.6533  0.4428599999999999  1.0000
  H   H64       1.0  0.07718  0.78719  0.50395  1.0000
  C   C1        1.0  0.349  0.62213  0.35262999999999994  1.0000
  C   C2        1.0  0.31844  0.5929699999999999  0.2995  1.0000
  C   C3        1.0  0.2272  0.63346  0.27225  1.0000
  C   C4        1.0  0.16862  0.70495  0.29703  1.0000
  C   C5        1.0  0.20215  0.73585  0.34925  1.0000
  C   C6        1.0  0.2907  0.69382  0.37732  1.0000
  C   C7        1.0  0.44079  0.57525  0.38342  1.0000
  C   C8        1.0  0.19546  0.59881  0.21720999999999996  1.0000
  C   C9        1.0  0.40346999999999994  0.74821  0.52215  1.0000
  C   C10       1.0  0.31565  0.81033  0.51637  1.0000
  C   C11       1.0  0.32818  0.88209  0.4792  1.0000
  C   C12       1.0  0.43141999999999997  0.89554  0.45106999999999997  1.0000
  C   C13       1.0  0.52168  0.83747  0.46036  1.0000
  C   C14       1.0  0.5071  0.76237  0.49454000000000004  1.0000
  C   C15       1.0  0.38439  0.66793  0.55694  1.0000
  C   C16       1.0  0.22892  0.94019  0.46664  1.0000
  C   C17       1.0  0.64202  0.88129  0.85456  1.0000
  C   C18       1.0  0.67725  0.90607  0.8007799999999999  1.0000
  C   C19       1.0  0.7703499999999999  0.8633299999999998  0.77623  1.0000
  C   C20       1.0  0.82492  0.79296  0.80434  1.0000
  C   C21       1.0  0.78658  0.76612  0.85708  1.0000
  C   C22       1.0  0.6969999999999998  0.81123  0.88266  1.0000
  C   C23       1.0  0.54849  0.93027  0.88325  1.0000
  C   C24       1.0  0.81196  0.8938099999999998  0.7208100000000001  1.0000
  C   C25       1.0  0.5892  0.75492  0.02547  1.0000
  C   C26       1.0  0.6760599999999999  0.6924  0.01826  1.0000
  C   C27       1.0  0.6621399999999998  0.62239  0.98053  1.0000
  C   C28       1.0  0.55807  0.6105  0.95373  1.0000
  C   C29       1.0  0.46896  0.66918  0.96432  1.0000
  C   C30       1.0  0.48550999999999994  0.74328  0.99854  1.0000
  C   C31       1.0  0.60913  0.83309  0.0613  1.0000
  C   C32       1.0  0.76082  0.56551  0.9653000000000002  1.0000
  C   C33       1.0  0.8583  0.37829  0.14652  1.0000
  C   C34       1.0  0.8244699999999999  0.40321  0.20032  1.0000
  C   C35       1.0  0.73117  0.36099  0.22549  1.0000
  C   C36       1.0  0.67436  0.29167  0.19785  1.0000
  C   C37       1.0  0.71093  0.26487  0.14504  1.0000
  C   C38       1.0  0.8013  0.30894999999999995  0.119  1.0000
  C   C39       1.0  0.9514999999999999  0.42739  0.11704  1.0000
  C   C40       1.0  0.69032  0.39117  0.28077  1.0000
  C   C41       1.0  0.90964  0.25415  0.97584  1.0000
  C   C42       1.0  0.82263  0.19131  0.98261  1.0000
  C   C43       1.0  0.83602  0.12043  0.02014  1.0000
  C   C44       1.0  0.9398199999999999  0.10772  0.04705999999999999  1.0000
  C   C45       1.0  0.029459999999999997  0.16639  0.03657  1.0000
  C   C46       1.0  0.01334  0.24142  0.00259  1.0000
  C   C47       1.0  0.88837  0.33401  0.9412  1.0000
  C   C48       1.0  0.7363299999999999  0.06435  0.03552  1.0000
  C   C49       1.0  0.14783  0.12091  0.64638  1.0000
  C   C50       1.0  0.179  0.09192  0.69965  1.0000
  C   C51       1.0  0.27133  0.13204  0.72609  1.0000
  C   C52       1.0  0.3302199999999999  0.20315  0.70046  1.0000
  C   C53       1.0  0.29623  0.23376  0.6481  1.0000
  C   C54       1.0  0.20679  0.19194  0.62078  1.0000
  C   C55       1.0  0.0544  0.07464  0.61641  1.0000
  C   C56       1.0  0.30449  0.09805  0.7812  1.0000
  C   C57       1.0  0.10181  0.24624999999999994  0.47279  1.0000
  C   C58       1.0  0.18782  0.30952  0.48035  1.0000
  C   C59       1.0  0.17116  0.37877  0.51847  1.0000
  C   C60       1.0  0.06623  0.389  0.54538  1.0000
  C   C61       1.0  0.9776099999999999  0.33047  0.5337  1.0000
  C   C62       1.0  0.99603  0.25746  0.49881  1.0000
  C   C63       1.0  0.12348999999999997  0.16717  0.43868  1.0000
  C   C64       1.0  0.26794  0.43706  0.53421  1.0000
  C   C65       1.0  0.64775  0.37879  0.64611  1.0000
  C   C66       1.0  0.68125  0.40473999999999993  0.69964  1.0000
  C   C67       1.0  0.77297  0.3618599999999999  0.72514  1.0000
  C   C68       1.0  0.82842  0.29099  0.69808  1.0000
  C   C69       1.0  0.7923399999999999  0.26329  0.6456  1.0000
  C   C70       1.0  0.70377  0.30793  0.61926  1.0000
  C   C71       1.0  0.55546  0.42695  0.61639  1.0000
  C   C72       1.0  0.81297  0.39189  0.7806  1.0000
  C   C73       1.0  0.59287  0.25601  0.47648  1.0000
  C   C74       1.0  0.6802399999999998  0.19369999999999996  0.48224999999999996  1.0000
  C   C75       1.0  0.66624  0.12130999999999997  0.5187  1.0000
  C   C76       1.0  0.56181  0.10684  0.54555  1.0000
  C   C77       1.0  0.47209  0.1653  0.53616  1.0000
  C   C78       1.0  0.48851999999999995  0.24158  0.50322  1.0000
  C   C79       1.0  0.61309  0.33678  0.44255999999999995  1.0000
  C   C80       1.0  0.76521  0.06476999999999997  0.53334  1.0000
  C   C81       1.0  0.3439  0.11727999999999997  0.14924  1.0000
  C   C82       1.0  0.30959  0.08713  0.20214000000000001  1.0000
  C   C83       1.0  0.21747999999999998  0.12806  0.22901  1.0000
  C   C84       1.0  0.16127  0.20031  0.2037  1.0000
  C   C85       1.0  0.19793  0.23177  0.15168  1.0000
  C   C86       1.0  0.28777  0.18982  0.12418  1.0000
  C   C87       1.0  0.43922  0.072  0.11933999999999999  1.0000
  C   C88       1.0  0.18250999999999998  0.09648999999999998  0.2848  1.0000
  C   C89       1.0  0.40342  0.24829999999999994  0.9760500000000001  1.0000
  C   C90       1.0  0.31543  0.31018  0.98214  1.0000
  C   C91       1.0  0.32748  0.3807499999999999  0.01973  1.0000
  C   C92       1.0  0.43026999999999993  0.39374  0.047479999999999994  1.0000
  C   C93       1.0  0.52062  0.33578  0.03786  1.0000
  C   C94       1.0  0.50631  0.26146  0.00362  1.0000
  C   C95       1.0  0.387  0.16762  0.94182  1.0000
  C   C96       1.0  0.22791999999999998  0.43799  0.03347  1.0000
  C   C97       1.0  0.14602  0.62498  0.85318  1.0000
  C   C98       1.0  0.17852999999999997  0.59885  0.79939  1.0000
  C   C99       1.0  0.27179  0.64014  0.77357  1.0000
  C   C100      1.0  0.33026  0.7094  0.80042  1.0000
  C   C101      1.0  0.29488  0.7374499999999999  0.85314  1.0000
  C   C102      1.0  0.20437  0.69449  0.8797900000000001  1.0000
  C   C103      1.0  0.05258  0.57742  0.88309  1.0000
  C   C104      1.0  0.31032  0.60927  0.71817  1.0000
  C   C105      1.0  0.09355  0.7487  0.02376  1.0000
  C   C106      1.0  0.18121  0.8111  0.01755  1.0000
  C   C107      1.0  0.16915000000000005  0.88229  0.98  1.0000
  C   C108      1.0  0.06649  0.89498  0.95203  1.0000
  C   C109      1.0  0.9761899999999999  0.83668  0.96192  1.0000
  C   C110      1.0  0.99042  0.76204  0.9964  1.0000
  C   C111      1.0  0.11195999999999999  0.66751  0.05782  1.0000
  C   C112      1.0  0.26917  0.93965  0.96654  1.0000
  C   C113      1.0  0.8687199999999999  0.87809  0.35257  1.0000
  C   C114      1.0  0.83321  0.90453  0.29936  1.0000
  C   C115      1.0  0.73695  0.86456  0.27639  1.0000
  C   C116      1.0  0.67995  0.79562  0.30507  1.0000
  C   C117      1.0  0.71878  0.76684  0.35691  1.0000
  C   C118      1.0  0.8112299999999998  0.80918  0.38110000000000005  1.0000
  C   C119      1.0  0.96248  0.92548  0.38163  1.0000
  C   C120      1.0  0.69223  0.89581  0.22217  1.0000
  C   C121      1.0  0.90606  0.7514  0.52456  1.0000
  C   C122      1.0  0.81819  0.68976  0.51759  1.0000
  C   C123      1.0  0.83187  0.62025  0.47942999999999997  1.0000
  C   C124      1.0  0.93573  0.60769  0.45199999999999996  1.0000
  C   C125      1.0  0.02617  0.66475  0.46295  1.0000
  C   C126      1.0  0.010310000000000001  0.73853  0.49762  1.0000
  C   C127      1.0  0.8853699999999999  0.83047  0.55955  1.0000
  C   C128      1.0  0.73257  0.56517  0.46373999999999993  1.0000
  O   O1        1.0  0.44656  0.58509  0.4357  1.0000
  O   O2        1.0  0.50853  0.52723  0.3532  1.0000
  O   O3        1.0  0.10541  0.62394  0.19127  1.0000
  O   O4        1.0  0.25676  0.54042  0.19164000000000003  1.0000
  O   O5        1.0  0.45753  0.60246  0.55804  1.0000
  O   O6        1.0  0.29846  0.6608  0.58873  1.0000
  O   O7        1.0  0.15502  0.95099  0.50459  1.0000
  O   O8        1.0  0.22879  0.97041  0.41648  1.0000
  O   O9        1.0  0.543  0.92599  0.93593  1.0000
  O   O10       1.0  0.4801499999999999  0.97273  0.85048  1.0000
  O   O11       1.0  0.9038599999999999  0.86625  0.69979  1.0000
  O   O12       1.0  0.75231  0.95123  0.6922999999999999  1.0000
  O   O13       1.0  0.54154  0.9020099999999998  0.0609  1.0000
  O   O14       1.0  0.69103  0.8346299999999999  0.09502  1.0000
  O   O15       1.0  0.83998  0.55767  0.0008  1.0000
  O   O16       1.0  0.75948  0.53237  0.91643  1.0000
  O   O17       1.0  0.95436  0.42434  0.06426  1.0000
  O   O18       1.0  0.021619999999999986  0.46875  0.14915  1.0000
  O   O19       1.0  0.59973  0.36182  0.30277  1.0000
  O   O20       1.0  0.74808  0.45108  0.30801  1.0000
  O   O21       1.0  0.95964  0.40088  0.93926  1.0000
  O   O22       1.0  0.80138  0.33889  0.9108199999999999  1.0000
  O   O23       1.0  0.65697  0.05784999999999999  2e-05  1.0000
  O   O24       1.0  0.73714  0.03117  0.08462  1.0000
  O   O25       1.0  0.05111  0.08159999999999999  0.56365  1.0000
  O   O26       1.0  0.9832999999999998  0.031189999999999985  0.64714  1.0000
  O   O27       1.0  0.39468  0.12428  0.80649  1.0000
  O   O28       1.0  0.24440999999999996  0.03965  0.80791  1.0000
  O   O29       1.0  0.050679999999999996  0.10125  0.43564  1.0000
  O   O30       1.0  0.21159999999999995  0.15687  0.4081  1.0000
  O   O31       1.0  0.34331999999999996  0.45198  0.49720999999999993  1.0000
  O   O32       1.0  0.26809  0.46349  0.58478  1.0000
  O   O33       1.0  0.54885  0.4198  0.56393  1.0000
  O   O34       1.0  0.48632999999999993  0.47295  0.64716  1.0000
  O   O35       1.0  0.9027  0.36243  0.80249  1.0000
  O   O36       1.0  0.75395  0.45117  0.80794  1.0000
  O   O37       1.0  0.54096  0.40262  0.44168  1.0000
  O   O38       1.0  0.6989  0.34338  0.4107  1.0000
  O   O39       1.0  0.84775  0.061930000000000006  0.49864  1.0000
  O   O40       1.0  0.76033  0.026990000000000004  0.58096  1.0000
  O   O41       1.0  0.44604999999999995  0.08111  0.06674  1.0000
  O   O42       1.0  0.50868  0.02753  0.14995  1.0000
  O   O43       1.0  0.09698  0.12845  0.31184  1.0000
  O   O44       1.0  0.23822  0.03546  0.31125  1.0000
  O   O45       1.0  0.45817  0.10238  0.9432  1.0000
  O   O46       1.0  0.30328  0.16126  0.9085800000000002  1.0000
  O   O47       1.0  0.1542  0.4513899999999999  0.9967799999999999  1.0000
  O   O48       1.0  0.22841  0.46509  0.08458  1.0000
  O   O49       1.0  0.04603  0.5851  0.9358300000000002  1.0000
  O   O50       1.0  0.9841499999999999  0.53195  0.85277  1.0000
  O   O51       1.0  0.39992999999999995  0.63858  0.6948999999999999  1.0000
  O   O52       1.0  0.25174  0.54908  0.69169  1.0000
  O   O53       1.0  0.04  0.60238  0.05831  1.0000
  O   O54       1.0  0.19882999999999998  0.66046  0.08898000000000002  1.0000
  O   O55       1.0  0.34326  0.9510899999999998  0.00335  1.0000
  O   O56       1.0  0.26908  0.96885  0.91579  1.0000
  O   O57       1.0  0.96065  0.9234999999999998  0.43472  1.0000
  O   O58       1.0  0.03672  0.96376  0.34988  1.0000
  O   O59       1.0  0.6  0.86651  0.20274  1.0000
  O   O60       1.0  0.74859  0.95521  0.19332  1.0000
  O   O61       1.0  0.95561  0.89793  0.559  1.0000
  O   O62       1.0  0.8011199999999999  0.83437  0.59232  1.0000
  O   O63       1.0  0.65644  0.55167  0.50061  1.0000
  O   O64       1.0  0.7306999999999999  0.53988  0.4129  1.0000
