data_image0
_chemical_formula_structural       Zn12H48C120O48
_chemical_formula_sum              "Zn12 H48 C120 O48"
_cell_length_a       18.99949
_cell_length_b       19.00346
_cell_length_c       19.00212
_cell_angle_alpha    74.8663
_cell_angle_beta     74.82854
_cell_angle_gamma    74.82731999999999

_space_group_name_H-M_alt    "P 1"
_space_group_IT_number       1

loop_
  _space_group_symop_operation_xyz
  'x, y, z'

loop_
  _atom_site_type_symbol
  _atom_site_label
  _atom_site_symmetry_multiplicity
  _atom_site_fract_x
  _atom_site_fract_y
  _atom_site_fract_z
  _atom_site_occupancy
  Zn  Zn1       1.0  0.6862599999999996  0.46199  0.9735200000000002  1.0000
  Zn  Zn2       1.0  0.74972  0.3811  0.10635  1.0000
  Zn  Zn3       1.0  0.46190000000000003  0.9731099999999999  0.68618  1.0000
  Zn  Zn4       1.0  0.38088  0.10629999999999999  0.74963  1.0000
  Zn  Zn5       1.0  0.9732999999999999  0.68633  0.46204999999999996  1.0000
  Zn  Zn6       1.0  0.10621000000000004  0.75108  0.3808  1.0000
  Zn  Zn7       1.0  0.9620299999999999  0.1863  0.47329  1.0000
  Zn  Zn8       1.0  0.8809499999999999  0.24916999999999997  0.6064800000000001  1.0000
  Zn  Zn9       1.0  0.4728099999999999  0.9619700000000001  0.1862  1.0000
  Zn  Zn10      1.0  0.60625  0.8806299999999999  0.25119  1.0000
  Zn  Zn11      1.0  0.18629000000000004  0.47363999999999995  0.9621100000000001  1.0000
  Zn  Zn12      1.0  0.25103  0.60626  0.8807200000000001  1.0000
  H   H1        1.0  0.44668  0.50445  0.97433  1.0000
  H   H2        1.0  0.27646999999999994  0.43256999999999995  0.15861  1.0000
  H   H3        1.0  0.50377  0.38922999999999996  0.18551  1.0000
  H   H4        1.0  0.25838000000000005  0.45405999999999996  0.27830000000000005  1.0000
  H   H5        1.0  0.8018899999999999  0.32032000000000005  0.82733  1.0000
  H   H6        1.0  0.9576999999999999  0.11188999999999998  0.8215900000000002  1.0000
  H   H7        1.0  0.8737699999999999  0.19046  0.028050000000000002  1.0000
  H   H8        1.0  0.87656  0.05963000000000001  0.06626  1.0000
  H   H9        1.0  0.5041700000000001  0.97398  0.44623  1.0000
  H   H10       1.0  0.43222  0.15866  0.27651  1.0000
  H   H11       1.0  0.3886200000000001  0.18473999999999993  0.50418  1.0000
  H   H12       1.0  0.45349  0.27797  0.25902  1.0000
  H   H13       1.0  0.32027  0.82736  0.80177  1.0000
  H   H14       1.0  0.11191999999999992  0.82145  0.9578  1.0000
  H   H15       1.0  0.19035999999999997  0.02792000000000001  0.874  1.0000
  H   H16       1.0  0.05963999999999998  0.06604999999999998  0.87689  1.0000
  H   H17       1.0  0.97334  0.44608  0.50499  1.0000
  H   H18       1.0  0.15830000000000008  0.27681  0.43244  1.0000
  H   H19       1.0  0.18419999999999992  0.50434  0.39015  1.0000
  H   H20       1.0  0.27759  0.25906  0.45421000000000006  1.0000
  H   H21       1.0  0.8272800000000001  0.80184  0.32045000000000007  1.0000
  H   H22       1.0  0.8214099999999999  0.9576499999999999  0.11208  1.0000
  H   H23       1.0  0.02790999999999999  0.87384  0.19053  1.0000
  H   H24       1.0  0.06612999999999997  0.8767000000000001  0.05975  1.0000
  H   H25       1.0  0.0042199999999999955  0.94642  0.47408  1.0000
  H   H26       1.0  0.93245  0.7766399999999999  0.6587700000000001  1.0000
  H   H27       1.0  0.8886299999999999  0.004329999999999978  0.68487  1.0000
  H   H28       1.0  0.9536500000000002  0.7590599999999998  0.77797  1.0000
  H   H29       1.0  0.8203999999999997  0.30183  0.32734  1.0000
  H   H30       1.0  0.61188  0.45771  0.32159  1.0000
  H   H31       1.0  0.6903999999999999  0.3737899999999999  0.5280000000000001  1.0000
  H   H32       1.0  0.55967  0.37667999999999996  0.56619  1.0000
  H   H33       1.0  0.47277999999999987  0.0034599999999999666  0.9461300000000001  1.0000
  H   H34       1.0  0.6586799999999998  0.93284  0.77667  1.0000
  H   H35       1.0  0.68353  0.8892799999999998  0.00476  1.0000
  H   H36       1.0  0.77758  0.9541499999999999  0.75942  1.0000
  H   H37       1.0  0.3274000000000001  0.82022  0.3019  1.0000
  H   H38       1.0  0.32139  0.61193  0.45777  1.0000
  H   H39       1.0  0.52797  0.69023  0.37398  1.0000
  H   H40       1.0  0.56609  0.55959  0.37686  1.0000
  H   H41       1.0  0.9465099999999999  0.47402  0.00439  1.0000
  H   H42       1.0  0.7764499999999998  0.6585499999999999  0.93261  1.0000
  H   H43       1.0  0.004039999999999964  0.68487  0.88895  1.0000
  H   H44       1.0  0.7586599999999999  0.7778899999999999  0.9541700000000001  1.0000
  H   H45       1.0  0.30194000000000004  0.32716999999999996  0.82045  1.0000
  H   H46       1.0  0.4577000000000001  0.32138000000000005  0.61191  1.0000
  H   H47       1.0  0.37375  0.52782  0.6905300000000002  1.0000
  H   H48       1.0  0.37655000000000005  0.5660199999999999  0.55979  1.0000
  C   C1        1.0  0.56234  0.44873  0.04275  1.0000
  C   C2        1.0  0.48287  0.44629  0.07681  1.0000
  C   C3        1.0  0.42967  0.47784999999999994  0.03226  1.0000
  C   C4        1.0  0.3553200000000001  0.4724499999999999  0.06233  1.0000
  C   C5        1.0  0.33413  0.43807999999999997  0.13699  1.0000
  C   C6        1.0  0.38632999999999995  0.4089400000000001  0.18307  1.0000
  C   C7        1.0  0.46139  0.41223999999999994  0.15191  1.0000
  C   C8        1.0  0.29941000000000006  0.49946999999999997  0.01395  1.0000
  C   C9        1.0  0.36033  0.37147  0.26103  1.0000
  C   C10       1.0  0.29076  0.40095  0.30216  1.0000
  C   C11       1.0  0.7859300000000001  0.3202  0.97255  1.0000
  C   C12       1.0  0.8333800000000001  0.26122999999999996  0.9320999999999999  1.0000
  C   C13       1.0  0.83541  0.27119999999999994  0.85604  1.0000
  C   C14       1.0  0.8806899999999999  0.21726999999999994  0.8166800000000001  1.0000
  C   C15       1.0  0.92393  0.15364  0.8532500000000001  1.0000
  C   C16       1.0  0.9216399999999999  0.14223999999999998  0.92991  1.0000
  C   C17       1.0  0.87597  0.19687999999999997  0.9689400000000001  1.0000
  C   C18       1.0  0.9640799999999998  0.07180999999999994  0.9680700000000001  1.0000
  C   C19       1.0  0.9316599999999999  0.034539999999999994  0.03838  1.0000
  C   C20       1.0  0.88025  0.22779  0.7365  1.0000
  C   C21       1.0  0.44762  0.04249999999999999  0.5624200000000001  1.0000
  C   C22       1.0  0.44566000000000006  0.07631000000000002  0.48285999999999996  1.0000
  C   C23       1.0  0.47744  0.03193  0.42952  1.0000
  C   C24       1.0  0.47210999999999986  0.06219999999999998  0.3551800000000001  1.0000
  C   C25       1.0  0.43766999999999995  0.13686999999999996  0.33417  1.0000
  C   C26       1.0  0.4084400000000001  0.18278999999999998  0.38656  1.0000
  C   C27       1.0  0.41164999999999996  0.15142  0.46155  1.0000
  C   C28       1.0  0.49931  0.013880000000000002  0.29919  1.0000
  C   C29       1.0  0.37095000000000006  0.26080999999999993  0.3609  1.0000
  C   C30       1.0  0.4003700000000001  0.3019  0.29137  1.0000
  C   C31       1.0  0.32011  0.97249  0.78606  1.0000
  C   C32       1.0  0.2611400000000001  0.93203  0.83344  1.0000
  C   C33       1.0  0.27112  0.856  0.83536  1.0000
  C   C34       1.0  0.21722999999999998  0.8166199999999999  0.88062  1.0000
  C   C35       1.0  0.15363000000000002  0.8531200000000001  0.9239899999999999  1.0000
  C   C36       1.0  0.14224000000000003  0.92976  0.92182  1.0000
  C   C37       1.0  0.19681000000000007  0.9688299999999999  0.87615  1.0000
  C   C38       1.0  0.07180999999999992  0.96789  0.96432  1.0000
  C   C39       1.0  0.03451999999999995  0.038189999999999995  0.9319400000000001  1.0000
  C   C40       1.0  0.22794999999999999  0.7363899999999999  0.8803200000000001  1.0000
  C   C41       1.0  0.04160000000000009  0.5623399999999998  0.44894999999999996  1.0000
  C   C42       1.0  0.07570000000000003  0.4828699999999999  0.4468500000000001  1.0000
  C   C43       1.0  0.03135999999999999  0.4295  0.4783  1.0000
  C   C44       1.0  0.061750000000000034  0.35525999999999985  0.47267  1.0000
  C   C45       1.0  0.13646  0.33436999999999995  0.4382100000000001  1.0000
  C   C46       1.0  0.18236  0.38674  0.40933  1.0000
  C   C47       1.0  0.15092999999999995  0.46167  0.41291  1.0000
  C   C48       1.0  0.013569999999999976  0.29921  0.49965000000000004  1.0000
  C   C49       1.0  0.26039  0.36094  0.37174  1.0000
  C   C50       1.0  0.30147  0.29133  0.40105  1.0000
  C   C51       1.0  0.9723999999999999  0.7861999999999999  0.3203600000000001  1.0000
  C   C52       1.0  0.93197  0.83343  0.26132  1.0000
  C   C53       1.0  0.85592  0.83538  0.27129  1.0000
  C   C54       1.0  0.81657  0.88059  0.21737  1.0000
  C   C55       1.0  0.85309  0.9238799999999999  0.15378  1.0000
  C   C56       1.0  0.92975  0.9216899999999999  0.14239  1.0000
  C   C57       1.0  0.9688  0.87604  0.19698  1.0000
  C   C58       1.0  0.9678500000000001  0.9641599999999999  0.07198  1.0000
  C   C59       1.0  0.038209999999999994  0.9317600000000001  0.03469  1.0000
  C   C60       1.0  0.7363399999999999  0.8803  0.22803  1.0000
  C   C61       1.0  0.9478599999999999  0.06252000000000002  0.54252  1.0000
  C   C62       1.0  0.9457799999999998  0.9830299999999998  0.57645  1.0000
  C   C63       1.0  0.97754  0.9297  0.53206  1.0000
  C   C64       1.0  0.9722199999999999  0.85537  0.56232  1.0000
  C   C65       1.0  0.9378  0.83433  0.637  1.0000
  C   C66       1.0  0.9085  0.8867  0.68294  1.0000
  C   C67       1.0  0.91173  0.9616999999999999  0.65157  1.0000
  C   C68       1.0  0.9994099999999999  0.79938  0.514  1.0000
  C   C69       1.0  0.871  0.86092  0.76098  1.0000
  C   C70       1.0  0.9004899999999999  0.7913299999999999  0.80195  1.0000
  C   C71       1.0  0.8202900000000001  0.2860699999999999  0.47247000000000006  1.0000
  C   C72       1.0  0.76127  0.33341  0.43203  1.0000
  C   C73       1.0  0.7712100000000001  0.33537  0.35599  1.0000
  C   C74       1.0  0.71724  0.38061  0.31667  1.0000
  C   C75       1.0  0.65362  0.42392  0.35323  1.0000
  C   C76       1.0  0.64227  0.42168  0.42987  1.0000
  C   C77       1.0  0.6968900000000001  0.3760299999999999  0.46888  1.0000
  C   C78       1.0  0.57182  0.46412999999999993  0.46803000000000006  1.0000
  C   C79       1.0  0.53453  0.43173  0.53833  1.0000
  C   C80       1.0  0.7278799999999999  0.38031  0.23645  1.0000
  C   C81       1.0  0.54055  0.94832  0.06239000000000001  1.0000
  C   C82       1.0  0.57503  0.9456899999999999  0.98307  1.0000
  C   C83       1.0  0.5309100000000001  0.9771099999999999  0.92955  1.0000
  C   C84       1.0  0.5617  0.97217  0.8552100000000001  1.0000
  C   C85       1.0  0.6365499999999998  0.9381  0.83437  1.0000
  C   C86       1.0  0.6822299999999998  0.90893  0.88696  1.0000
  C   C87       1.0  0.65041  0.9120899999999998  0.9619600000000001  1.0000
  C   C88       1.0  0.51363  0.99944  0.79908  1.0000
  C   C89       1.0  0.7603900000000001  0.8715199999999997  0.86119  1.0000
  C   C90       1.0  0.8014899999999999  0.9009599999999999  0.7916100000000001  1.0000
  C   C91       1.0  0.47246999999999983  0.82004  0.28621  1.0000
  C   C92       1.0  0.43205  0.76105  0.33355000000000007  1.0000
  C   C93       1.0  0.3559999999999998  0.77105  0.33545  1.0000
  C   C94       1.0  0.31661  0.7171599999999998  0.38064  1.0000
  C   C95       1.0  0.35309999999999997  0.6536  0.424  1.0000
  C   C96       1.0  0.42974  0.64219  0.42185  1.0000
  C   C97       1.0  0.46884  0.69674  0.3762  1.0000
  C   C98       1.0  0.4678399999999998  0.5717800000000001  0.46432  1.0000
  C   C99       1.0  0.53819  0.5345100000000002  0.43192  1.0000
  C   C100      1.0  0.23637  0.72787  0.3803  1.0000
  C   C101      1.0  0.06242  0.54245  0.94863  1.0000
  C   C102      1.0  0.9829200000000001  0.5764099999999998  0.9461700000000001  1.0000
  C   C103      1.0  0.92964  0.53196  0.97776  1.0000
  C   C104      1.0  0.85528  0.5621299999999999  0.9723600000000001  1.0000
  C   C105      1.0  0.8341399999999999  0.6368199999999998  0.9380200000000001  1.0000
  C   C106      1.0  0.88643  0.6828000000000001  0.9088499999999999  1.0000
  C   C107      1.0  0.96149  0.6515  0.91209  1.0000
  C   C108      1.0  0.79931  0.51382  0.9994899999999999  1.0000
  C   C109      1.0  0.86049  0.7608499999999997  0.87148  1.0000
  C   C110      1.0  0.7908999999999996  0.8019100000000001  0.90105  1.0000
  C   C111      1.0  0.28617999999999993  0.47234999999999994  0.8204  1.0000
  C   C112      1.0  0.3334500000000001  0.43187  0.76137  1.0000
  C   C113      1.0  0.33542999999999984  0.35584  0.77128  1.0000
  C   C114      1.0  0.38063  0.3165199999999999  0.71726  1.0000
  C   C115      1.0  0.42393  0.35305000000000003  0.65367  1.0000
  C   C116      1.0  0.42166  0.42968999999999996  0.64234  1.0000
  C   C117      1.0  0.37602  0.46871  0.69699  1.0000
  C   C118      1.0  0.46409  0.46786  0.57193  1.0000
  C   C119      1.0  0.43166  0.53817  0.53469  1.0000
  C   C120      1.0  0.38024  0.23633  0.72781  1.0000
  O   O1        1.0  0.61406  0.41468  0.07843000000000001  1.0000
  O   O2        1.0  0.5784  0.48585999999999996  0.9750200000000001  1.0000
  O   O3        1.0  0.3143299999999999  0.5464  0.95363  1.0000
  O   O4        1.0  0.24009999999999984  0.47213  0.03622000000000001  1.0000
  O   O5        1.0  0.83462  0.28303  0.70662  1.0000
  O   O6        1.0  0.9247699999999999  0.18238999999999994  0.6968600000000003  1.0000
  O   O7        1.0  0.77841  0.30705  0.04336  1.0000
  O   O8        1.0  0.7559199999999999  0.3805799999999999  0.9325200000000001  1.0000
  O   O9        1.0  0.41229999999999983  0.07803999999999998  0.6139400000000002  1.0000
  O   O10       1.0  0.48585000000000006  0.97519  0.57853  1.0000
  O   O11       1.0  0.5463599999999998  0.9536499999999999  0.31423000000000006  1.0000
  O   O12       1.0  0.4719499999999999  0.036049999999999985  0.23989  1.0000
  O   O13       1.0  0.28351000000000004  0.7065399999999998  0.83479  1.0000
  O   O14       1.0  0.18266000000000004  0.6967299999999998  0.92473  1.0000
  O   O15       1.0  0.30693999999999994  0.043289999999999974  0.7785  1.0000
  O   O16       1.0  0.3805999999999999  0.93241  0.75619  1.0000
  O   O17       1.0  0.07740000000000001  0.61393  0.4147  1.0000
  O   O18       1.0  0.9738899999999999  0.57858  0.48607  1.0000
  O   O19       1.0  0.9532099999999999  0.3139899999999999  0.54658  1.0000
  O   O20       1.0  0.03611000000000003  0.23989999999999997  0.4722199999999999  1.0000
  O   O21       1.0  0.70653  0.8348699999999999  0.28367  1.0000
  O   O22       1.0  0.6966500000000001  0.9245499999999999  0.18269  1.0000
  O   O23       1.0  0.04326999999999998  0.77844  0.30701  1.0000
  O   O24       1.0  0.9323499999999999  0.75666  0.38101  1.0000
  O   O25       1.0  0.9129800000000001  0.11412  0.57811  1.0000
  O   O26       1.0  0.98582  0.07856  0.47511  1.0000
  O   O27       1.0  0.046400000000000094  0.8143599999999998  0.45369999999999994  1.0000
  O   O28       1.0  0.97216  0.74004  0.53621  1.0000
  O   O29       1.0  0.7832099999999999  0.3346999999999999  0.20657  1.0000
  O   O30       1.0  0.6825399999999999  0.42483  0.19683  1.0000
  O   O31       1.0  0.8069999999999997  0.27838999999999997  0.5433  1.0000
  O   O32       1.0  0.8809100000000001  0.25638999999999995  0.43239000000000005  1.0000
  O   O33       1.0  0.57729  0.9173699999999999  0.11387  1.0000
  O   O34       1.0  0.47177  0.98286  0.07872  1.0000
  O   O35       1.0  0.45336  0.046480000000000014  0.81398  1.0000
  O   O36       1.0  0.5360399999999996  0.97211  0.7397200000000003  1.0000
  O   O37       1.0  0.20658999999999997  0.78342  0.33478  1.0000
  O   O38       1.0  0.19661999999999996  0.68264  0.42466000000000004  1.0000
  O   O39       1.0  0.5433499999999999  0.8068299999999998  0.27844  1.0000
  O   O40       1.0  0.43235999999999997  0.88052  0.25658  1.0000
  O   O41       1.0  0.11409999999999994  0.57822  0.9147400000000001  1.0000
  O   O42       1.0  0.07848999999999998  0.4747499999999999  0.9858200000000001  1.0000
  O   O43       1.0  0.8141599999999997  0.45354  0.046460000000000015  1.0000
  O   O44       1.0  0.7399799999999999  0.53615  0.97212  1.0000
  O   O45       1.0  0.33454  0.2065499999999999  0.7830600000000001  1.0000
  O   O46       1.0  0.42478000000000005  0.19664999999999996  0.68247  1.0000
  O   O47       1.0  0.27842000000000006  0.5432099999999999  0.80697  1.0000
  O   O48       1.0  0.25661  0.43240999999999985  0.88111  1.0000
