data_image0
_chemical_formula_structural       Zn12H96C168S12O72
_chemical_formula_sum              "Zn12 H96 C168 S12 O72"
_cell_length_a       16.28876
_cell_length_b       17.12101
_cell_length_c       20.71494
_cell_angle_alpha    90.0
_cell_angle_beta     90.0
_cell_angle_gamma    100.83932999999999

_symmetry_space_group_name_H-M    'P 1'
_symmetry_Int_Tables_number       1

loop_
  _symmetry_equiv_pos_as_xyz
  'x,y,z'

loop_
  _atom_site_type_symbol
  _atom_site_label
  _atom_site_symmetry_multiplicity
  _atom_site_fract_x
  _atom_site_fract_y
  _atom_site_fract_z
  _atom_site_occupancy
  Zn  Zn1       1.0  0.08684000000000003  0.92055  0.84615  1.0000
  Zn  Zn2       1.0  0.98111  0.74817  0.82578  1.0000
  Zn  Zn3       1.0  0.39779  0.07196  0.64038  1.0000
  Zn  Zn4       1.0  0.41316  0.57945  0.34615  1.0000
  Zn  Zn5       1.0  0.51888  0.75182  0.32578  1.0000
  Zn  Zn6       1.0  0.1022  0.42804  0.14038  1.0000
  Zn  Zn7       1.0  0.9131599999999997  0.07945  0.15385  1.0000
  Zn  Zn8       1.0  0.018879999999999997  0.25183  0.17422  1.0000
  Zn  Zn9       1.0  0.6022  0.92804  0.35962000000000005  1.0000
  Zn  Zn10      1.0  0.58684  0.42055  0.65385  1.0000
  Zn  Zn11      1.0  0.4811199999999999  0.24817  0.67423  1.0000
  Zn  Zn12      1.0  0.89779  0.57196  0.85963  1.0000
  H   H1        1.0  0.31478  0.87028  0.92182  1.0000
  H   H2        1.0  0.43691  0.80908  0.9500400000000001  1.0000
  H   H3        1.0  0.30584  0.58219  0.88042  1.0000
  H   H4        1.0  0.1811  0.64432  0.85429  1.0000
  H   H5        1.0  0.53761  0.75433  0.03593  1.0000
  H   H6        1.0  0.53401  0.739  0.15609  1.0000
  H   H7        1.0  0.38047  0.50628  0.13645  1.0000
  H   H8        1.0  0.38748999999999995  0.51948  0.01649  1.0000
  H   H9        1.0  0.57644  0.17196  0.8477000000000001  1.0000
  H   H10       1.0  0.62473  0.11748  0.9502300000000001  1.0000
  H   H11       1.0  0.5315  0.8788  0.88197  1.0000
  H   H12       1.0  0.4795  0.93334  0.78303  1.0000
  H   H13       1.0  0.9141199999999998  0.04358  0.9637  1.0000
  H   H14       1.0  0.81579  0.80135  0.9109399999999999  1.0000
  H   H15       1.0  0.67206  0.81763  0.94623  1.0000
  H   H16       1.0  0.7528999999999999  0.81594  0.79416  1.0000
  H   H17       1.0  0.6139099999999997  0.84483  0.76079  1.0000
  H   H18       1.0  0.51562  0.59317  0.74847  1.0000
  H   H19       1.0  0.65439  0.56498  0.7830600000000001  1.0000
  H   H20       1.0  0.5016299999999999  0.90163  0.68234  1.0000
  H   H21       1.0  0.54049  0.95655  0.57238  1.0000
  H   H22       1.0  0.4951999999999999  0.71967  0.49381  1.0000
  H   H23       1.0  0.45919  0.66354  0.60506  1.0000
  H   H24       1.0  0.77288  0.05929  0.0037099999999999998  1.0000
  H   H25       1.0  0.18522  0.62972  0.42182  1.0000
  H   H26       1.0  0.06309  0.69091  0.45004  1.0000
  H   H27       1.0  0.19416  0.9178  0.38042  1.0000
  H   H28       1.0  0.3188899999999999  0.85567  0.35428  1.0000
  H   H29       1.0  0.96239  0.74567  0.53593  1.0000
  H   H30       1.0  0.96599  0.761  0.6561  1.0000
  H   H31       1.0  0.11952000000000002  0.9937200000000002  0.63645  1.0000
  H   H32       1.0  0.11251000000000003  0.98051  0.51649  1.0000
  H   H33       1.0  0.92355  0.32804  0.3477  1.0000
  H   H34       1.0  0.87526  0.38252  0.45022999999999996  1.0000
  H   H35       1.0  0.9684899999999996  0.6212  0.38197  1.0000
  H   H36       1.0  0.020499999999999994  0.56666  0.28303  1.0000
  H   H37       1.0  0.58587  0.45642  0.46370000000000006  1.0000
  H   H38       1.0  0.68421  0.69864  0.41093  1.0000
  H   H39       1.0  0.82793  0.68237  0.44623  1.0000
  H   H40       1.0  0.74709  0.68406  0.29416  1.0000
  H   H41       1.0  0.8860799999999999  0.65516  0.26079  1.0000
  H   H42       1.0  0.9843699999999999  0.90682  0.24847000000000002  1.0000
  H   H43       1.0  0.8456  0.93501  0.28306  1.0000
  H   H44       1.0  0.9983600000000001  0.59837  0.18233  1.0000
  H   H45       1.0  0.9595  0.54345  0.07238  1.0000
  H   H46       1.0  0.004800000000000004  0.78033  0.99381  1.0000
  H   H47       1.0  0.0408  0.83646  0.10506  1.0000
  H   H48       1.0  0.7271099999999998  0.44071  0.50371  1.0000
  H   H49       1.0  0.68522  0.12972  0.07818  1.0000
  H   H50       1.0  0.56309  0.19091  0.04995999999999999  1.0000
  H   H51       1.0  0.6941499999999998  0.41781  0.11958  1.0000
  H   H52       1.0  0.81889  0.35567  0.14572  1.0000
  H   H53       1.0  0.46239  0.24567000000000003  0.96408  1.0000
  H   H54       1.0  0.46599  0.261  0.8439099999999999  1.0000
  H   H55       1.0  0.61952  0.49372  0.8635500000000002  1.0000
  H   H56       1.0  0.61251  0.48051  0.98351  1.0000
  H   H57       1.0  0.4235499999999998  0.82804  0.1523  1.0000
  H   H58       1.0  0.3752699999999999  0.88252  0.04978  1.0000
  H   H59       1.0  0.4685  0.1212  0.11803  1.0000
  H   H60       1.0  0.52049  0.06666  0.21696999999999997  1.0000
  H   H61       1.0  0.08586999999999997  0.95641  0.0363  1.0000
  H   H62       1.0  0.18421  0.19865  0.08907  1.0000
  H   H63       1.0  0.32793  0.18237  0.05377  1.0000
  H   H64       1.0  0.24709  0.18406  0.20584  1.0000
  H   H65       1.0  0.38608  0.15516  0.23922  1.0000
  H   H66       1.0  0.48437  0.40682  0.25153  1.0000
  H   H67       1.0  0.3456  0.43501  0.21694  1.0000
  H   H68       1.0  0.49837000000000004  0.09837  0.31767  1.0000
  H   H69       1.0  0.4595  0.04345  0.42762  1.0000
  H   H70       1.0  0.50479  0.28033  0.50619  1.0000
  H   H71       1.0  0.5407999999999997  0.33646  0.39494999999999997  1.0000
  H   H72       1.0  0.22711  0.94071  0.9962900000000001  1.0000
  H   H73       1.0  0.81477  0.37028  0.57818  1.0000
  H   H74       1.0  0.9369099999999998  0.30909  0.54997  1.0000
  H   H75       1.0  0.80584  0.08219  0.61958  1.0000
  H   H76       1.0  0.6811  0.14432  0.64572  1.0000
  H   H77       1.0  0.03761  0.25433  0.46407000000000004  1.0000
  H   H78       1.0  0.03401  0.239  0.34391  1.0000
  H   H79       1.0  0.88047  0.00628  0.36355  1.0000
  H   H80       1.0  0.8874899999999998  0.01949  0.48351  1.0000
  H   H81       1.0  0.07644  0.67196  0.6523  1.0000
  H   H82       1.0  0.12473000000000001  0.61748  0.54978  1.0000
  H   H83       1.0  0.0315  0.3788  0.6180400000000001  1.0000
  H   H84       1.0  0.9795  0.43334  0.71697  1.0000
  H   H85       1.0  0.41413  0.54358  0.5363  1.0000
  H   H86       1.0  0.31579  0.30135  0.58907  1.0000
  H   H87       1.0  0.17207  0.31763  0.55377  1.0000
  H   H88       1.0  0.25291  0.31594  0.70584  1.0000
  H   H89       1.0  0.11390999999999997  0.34483  0.73922  1.0000
  H   H90       1.0  0.015619999999999998  0.09318  0.75154  1.0000
  H   H91       1.0  0.15439  0.06499  0.71694  1.0000
  H   H92       1.0  0.0016300000000000036  0.40163  0.8176700000000001  1.0000
  H   H93       1.0  0.0405  0.45655  0.9276300000000001  1.0000
  H   H94       1.0  0.9952  0.21967  0.00619  1.0000
  H   H95       1.0  0.95919  0.16354  0.89495  1.0000
  H   H96       1.0  0.27289  0.55929  0.4963000000000001  1.0000
  C   C1        1.0  0.16711  0.79704  0.87033  1.0000
  C   C2        1.0  0.2401699999999999  0.7603  0.8875800000000001  1.0000
  C   C3        1.0  0.31215  0.80708  0.9142400000000002  1.0000
  C   C4        1.0  0.38087  0.77301  0.92947  1.0000
  C   C5        1.0  0.37715  0.69207  0.91701  1.0000
  C   C6        1.0  0.30598  0.6446  0.89022  1.0000
  C   C7        1.0  0.23725  0.67912  0.87558  1.0000
  C   C8        1.0  0.46222  0.63778  0.02001  1.0000
  C   C9        1.0  0.50394  0.70023  0.05823  1.0000
  C   C10       1.0  0.50173  0.69179  0.12506  1.0000
  C   C11       1.0  0.45684999999999987  0.62212  0.15344  1.0000
  C   C12       1.0  0.41461  0.56033  0.11445  1.0000
  C   C13       1.0  0.41785  0.56768  0.0474  1.0000
  C   C14       1.0  0.45642999999999995  0.61649  0.22511  1.0000
  C   C15       1.0  0.49293  0.08738  0.74882  1.0000
  C   C16       1.0  0.52619  0.05612  0.80868  1.0000
  C   C17       1.0  0.56732  0.10817  0.85575  1.0000
  C   C18       1.0  0.59483  0.07784  0.9126  1.0000
  C   C19       1.0  0.5813699999999998  0.99535  0.9214400000000001  1.0000
  C   C20       1.0  0.5417399999999998  0.94275  0.8745000000000002  1.0000
  C   C21       1.0  0.51345  0.9736399999999998  0.8184399999999998  1.0000
  C   C22       1.0  0.71516  0.93982  0.97551  1.0000
  C   C23       1.0  0.8610000000000001  0.99469  0.9606100000000001  1.0000
  C   C24       1.0  0.8723299999999998  0.9218  0.93437  1.0000
  C   C25       1.0  0.8051  0.85724  0.9310100000000001  1.0000
  C   C26       1.0  0.72552  0.86629  0.95062  1.0000
  C   C27       1.0  0.95438  0.9132600000000001  0.90704  1.0000
  C   C28       1.0  0.7927899999999999  0.67215  0.81495  1.0000
  C   C29       1.0  0.7109299999999997  0.68886  0.79215  1.0000
  C   C30       1.0  0.70038  0.76796  0.78466  1.0000
  C   C31       1.0  0.62326  0.78386  0.76564  1.0000
  C   C32       1.0  0.5576399999999998  0.72015  0.75295  1.0000
  C   C33       1.0  0.56778  0.64124  0.75872  1.0000
  C   C34       1.0  0.64486  0.62587  0.77875  1.0000
  C   C35       1.0  0.47972  0.7795  0.64947  1.0000
  C   C36       1.0  0.5016099999999999  0.86196  0.64138  1.0000
  C   C37       1.0  0.52267  0.89275  0.58004  1.0000
  C   C38       1.0  0.52045  0.84107  0.52721  1.0000
  C   C39       1.0  0.49646999999999997  0.75841  0.53563  1.0000
  C   C40       1.0  0.47673  0.72733  0.5971  1.0000
  C   C41       1.0  0.54576  0.87319  0.46233  1.0000
  C   C42       1.0  0.78236  0.00374  0.98213  1.0000
  C   C43       1.0  0.33289  0.70296  0.37033  1.0000
  C   C44       1.0  0.25982  0.7397  0.38757  1.0000
  C   C45       1.0  0.18784999999999993  0.69291  0.41424000000000005  1.0000
  C   C46       1.0  0.11913  0.72699  0.4294700000000001  1.0000
  C   C47       1.0  0.12284000000000002  0.80793  0.41701000000000005  1.0000
  C   C48       1.0  0.19402  0.8554  0.39022  1.0000
  C   C49       1.0  0.26273999999999986  0.82088  0.37558  1.0000
  C   C50       1.0  0.03777999999999999  0.86221  0.52001  1.0000
  C   C51       1.0  0.9960600000000001  0.79977  0.55823  1.0000
  C   C52       1.0  0.9982699999999999  0.8082  0.62506  1.0000
  C   C53       1.0  0.043150000000000015  0.87788  0.65344  1.0000
  C   C54       1.0  0.08539000000000002  0.93966  0.61446  1.0000
  C   C55       1.0  0.08215  0.93232  0.5474  1.0000
  C   C56       1.0  0.04356999999999999  0.8835  0.72511  1.0000
  C   C57       1.0  0.007060000000000004  0.41262  0.24882000000000004  1.0000
  C   C58       1.0  0.9738  0.44388  0.30867  1.0000
  C   C59       1.0  0.93268  0.39182  0.35575  1.0000
  C   C60       1.0  0.90516  0.42216  0.41259999999999997  1.0000
  C   C61       1.0  0.91862  0.50464  0.42144  1.0000
  C   C62       1.0  0.95826  0.55724  0.3745  1.0000
  C   C63       1.0  0.98654  0.52635  0.31844  1.0000
  C   C64       1.0  0.78483  0.56018  0.47551  1.0000
  C   C65       1.0  0.63899  0.5053  0.4606100000000001  1.0000
  C   C66       1.0  0.62766  0.5782  0.43437  1.0000
  C   C67       1.0  0.6948899999999997  0.64276  0.43101000000000006  1.0000
  C   C68       1.0  0.77448  0.63371  0.45062  1.0000
  C   C69       1.0  0.54562  0.58673  0.40704  1.0000
  C   C70       1.0  0.70721  0.82785  0.31495  1.0000
  C   C71       1.0  0.7890700000000002  0.81114  0.29215  1.0000
  C   C72       1.0  0.7996199999999998  0.73203  0.28466  1.0000
  C   C73       1.0  0.8767300000000001  0.71614  0.26564  1.0000
  C   C74       1.0  0.94235  0.77985  0.25295  1.0000
  C   C75       1.0  0.93221  0.85875  0.25872  1.0000
  C   C76       1.0  0.85514  0.87412  0.27875  1.0000
  C   C77       1.0  0.020280000000000006  0.7205  0.14947  1.0000
  C   C78       1.0  0.9983800000000002  0.63803  0.14138  1.0000
  C   C79       1.0  0.97733  0.60724  0.08004  1.0000
  C   C80       1.0  0.97954  0.65892  0.027210000000000005  1.0000
  C   C81       1.0  0.003520000000000019  0.74159  0.03563  1.0000
  C   C82       1.0  0.023270000000000006  0.77267  0.0971  1.0000
  C   C83       1.0  0.95424  0.6268  0.9623300000000001  1.0000
  C   C84       1.0  0.7176399999999998  0.49626000000000003  0.48213  1.0000
  C   C85       1.0  0.83289  0.20296  0.12967  1.0000
  C   C86       1.0  0.75982  0.2397  0.11243  1.0000
  C   C87       1.0  0.68785  0.19292  0.08576  1.0000
  C   C88       1.0  0.61913  0.22699  0.07053  1.0000
  C   C89       1.0  0.6228399999999998  0.30793  0.08299  1.0000
  C   C90       1.0  0.6940199999999999  0.3554  0.10978000000000002  1.0000
  C   C91       1.0  0.76274  0.32088  0.12442000000000002  1.0000
  C   C92       1.0  0.53778  0.36222  0.97999  1.0000
  C   C93       1.0  0.49606  0.29977  0.9417700000000001  1.0000
  C   C94       1.0  0.49827000000000005  0.3082  0.87494  1.0000
  C   C95       1.0  0.54315  0.37788000000000005  0.84656  1.0000
  C   C96       1.0  0.58539  0.43966000000000005  0.88555  1.0000
  C   C97       1.0  0.58214  0.43232  0.9526  1.0000
  C   C98       1.0  0.54357  0.3835  0.77489  1.0000
  C   C99       1.0  0.50706  0.91262  0.25118  1.0000
  C   C100      1.0  0.47380000000000005  0.94388  0.19133  1.0000
  C   C101      1.0  0.4326799999999999  0.89182  0.14425  1.0000
  C   C102      1.0  0.40516  0.92216  0.0874  1.0000
  C   C103      1.0  0.41863  0.00464  0.07856  1.0000
  C   C104      1.0  0.45826  0.05725  0.1255  1.0000
  C   C105      1.0  0.48654  0.02635  0.18157  1.0000
  C   C106      1.0  0.28483  0.060180000000000004  0.02449  1.0000
  C   C107      1.0  0.13899  0.0053  0.03939  1.0000
  C   C108      1.0  0.12766  0.0782  0.06563  1.0000
  C   C109      1.0  0.19489  0.14276  0.06899  1.0000
  C   C110      1.0  0.27448  0.13371  0.04939  1.0000
  C   C111      1.0  0.04562  0.08673  0.09296  1.0000
  C   C112      1.0  0.20721  0.32785  0.18505  1.0000
  C   C113      1.0  0.28907  0.31114  0.20785000000000003  1.0000
  C   C114      1.0  0.29962  0.23204  0.21534  1.0000
  C   C115      1.0  0.37674  0.21614  0.23437  1.0000
  C   C116      1.0  0.44235  0.27985  0.24705000000000002  1.0000
  C   C117      1.0  0.4322199999999999  0.35875  0.24128  1.0000
  C   C118      1.0  0.35514  0.37412  0.22126000000000004  1.0000
  C   C119      1.0  0.52028  0.2205  0.35054  1.0000
  C   C120      1.0  0.49839000000000006  0.13803  0.35862  1.0000
  C   C121      1.0  0.47733  0.10724  0.41997000000000007  1.0000
  C   C122      1.0  0.47954  0.15892  0.47279  1.0000
  C   C123      1.0  0.50352  0.24159  0.46438  1.0000
  C   C124      1.0  0.52327  0.27267  0.40291  1.0000
  C   C125      1.0  0.45424  0.12681  0.53768  1.0000
  C   C126      1.0  0.21764000000000003  0.9962600000000001  0.01787  1.0000
  C   C127      1.0  0.66711  0.29704  0.62967  1.0000
  C   C128      1.0  0.74017  0.2603  0.61243  1.0000
  C   C129      1.0  0.8121499999999999  0.30708  0.58576  1.0000
  C   C130      1.0  0.88087  0.27301  0.57053  1.0000
  C   C131      1.0  0.87715  0.19207  0.58299  1.0000
  C   C132      1.0  0.80598  0.1446  0.60979  1.0000
  C   C133      1.0  0.73725  0.17912  0.62442  1.0000
  C   C134      1.0  0.9622199999999997  0.13778  0.4799900000000001  1.0000
  C   C135      1.0  0.003939999999999998  0.20023  0.44177  1.0000
  C   C136      1.0  0.0017300000000000004  0.1918  0.37494  1.0000
  C   C137      1.0  0.95684  0.12212  0.34656  1.0000
  C   C138      1.0  0.91461  0.06033000000000001  0.38555  1.0000
  C   C139      1.0  0.91785  0.06768  0.4526  1.0000
  C   C140      1.0  0.95643  0.11649  0.27489  1.0000
  C   C141      1.0  0.9929299999999999  0.58738  0.75118  1.0000
  C   C142      1.0  0.0262  0.55611  0.69133  1.0000
  C   C143      1.0  0.06732  0.60817  0.64425  1.0000
  C   C144      1.0  0.09483  0.57784  0.58741  1.0000
  C   C145      1.0  0.08137000000000001  0.49535000000000007  0.57856  1.0000
  C   C146      1.0  0.04174  0.44275  0.6255  1.0000
  C   C147      1.0  0.013449999999999998  0.47364  0.68157  1.0000
  C   C148      1.0  0.21517  0.43982  0.5245  1.0000
  C   C149      1.0  0.36101000000000005  0.4946900000000001  0.53939  1.0000
  C   C150      1.0  0.37233  0.4218  0.56563  1.0000
  C   C151      1.0  0.30511  0.35724  0.56899  1.0000
  C   C152      1.0  0.22552  0.36629  0.54939  1.0000
  C   C153      1.0  0.45438  0.41327  0.59296  1.0000
  C   C154      1.0  0.29279  0.17215  0.68505  1.0000
  C   C155      1.0  0.21093  0.18886  0.70786  1.0000
  C   C156      1.0  0.20038  0.26796  0.71534  1.0000
  C   C157      1.0  0.12326  0.28386  0.73437  1.0000
  C   C158      1.0  0.05765  0.22015  0.74705  1.0000
  C   C159      1.0  0.06777999999999999  0.14125  0.74128  1.0000
  C   C160      1.0  0.14486  0.12587  0.72126  1.0000
  C   C161      1.0  0.97972  0.2795  0.85054  1.0000
  C   C162      1.0  0.0016099999999999975  0.36196  0.85862  1.0000
  C   C163      1.0  0.02267  0.39275  0.91997  1.0000
  C   C164      1.0  0.02045999999999999  0.34108  0.97279  1.0000
  C   C165      1.0  0.9964699999999999  0.25841  0.96438  1.0000
  C   C166      1.0  0.97673  0.22733  0.9029100000000001  1.0000
  C   C167      1.0  0.04576  0.37319  0.03767  1.0000
  C   C168      1.0  0.28236  0.50374  0.51787  1.0000
  S   S1        1.0  0.46627  0.64877  0.93425  1.0000
  S   S2        1.0  0.61262  0.9548999999999999  0.99461  1.0000
  S   S3        1.0  0.45837999999999995  0.73983  0.72896  1.0000
  S   S4        1.0  0.03372999999999999  0.85123  0.4342500000000001  1.0000
  S   S5        1.0  0.8873699999999998  0.54509  0.49461000000000005  1.0000
  S   S6        1.0  0.04160999999999997  0.76017  0.22895999999999997  1.0000
  S   S7        1.0  0.5337299999999998  0.35123  0.06575  1.0000
  S   S8        1.0  0.38737  0.04509  0.00539  1.0000
  S   S9        1.0  0.54161  0.26017  0.27104  1.0000
  S   S10       1.0  0.96627  0.14877  0.56575  1.0000
  S   S11       1.0  0.11262  0.4549  0.50539  1.0000
  S   S12       1.0  0.95838  0.23983  0.77104  1.0000
  O   O1        1.0  0.17115  0.87093  0.88602  1.0000
  O   O2        1.0  0.10659  0.75452  0.8407099999999998  1.0000
  O   O3        1.0  0.54103  0.70753  0.91873  1.0000
  O   O4        1.0  0.45215  0.56943  0.90561  1.0000
  O   O5        1.0  0.51123  0.66413  0.25654  1.0000
  O   O6        1.0  0.40083  0.56295  0.25285  1.0000
  O   O7        1.0  0.49188000000000004  0.16076  0.74404  1.0000
  O   O8        1.0  0.4649999999999999  0.03462  0.7051  1.0000
  O   O9        1.0  0.61912  0.01533  0.04501  1.0000
  O   O10       1.0  0.55947  0.87669  0.0034099999999999994  1.0000
  O   O11       1.0  0.007929999999999965  0.97667  0.8927900000000001  1.0000
  O   O12       1.0  0.97167  0.84454  0.89682  1.0000
  O   O13       1.0  0.85382  0.73012  0.8181800000000001  1.0000
  O   O14       1.0  0.79409  0.59937  0.8309199999999999  1.0000
  O   O15       1.0  0.4397499999999999  0.80423  0.76947  1.0000
  O   O16       1.0  0.40046999999999994  0.66404  0.72392  1.0000
  O   O17       1.0  0.58351  0.9457  0.45505  1.0000
  O   O18       1.0  0.53181  0.82795  0.41254  1.0000
  O   O19       1.0  0.32885  0.62907  0.38602  1.0000
  O   O20       1.0  0.39341  0.74548  0.34071  1.0000
  O   O21       1.0  0.95897  0.79246  0.41873  1.0000
  O   O22       1.0  0.04783999999999999  0.93056  0.40561  1.0000
  O   O23       1.0  0.98876  0.83587  0.75654  1.0000
  O   O24       1.0  0.09916999999999997  0.93705  0.75285  1.0000
  O   O25       1.0  0.008119999999999995  0.33924  0.24404  1.0000
  O   O26       1.0  0.035  0.46538  0.20510000000000003  1.0000
  O   O27       1.0  0.8808799999999999  0.48467  0.54502  1.0000
  O   O28       1.0  0.94053  0.62331  0.50341  1.0000
  O   O29       1.0  0.49206  0.52333  0.39279  1.0000
  O   O30       1.0  0.52832  0.65545  0.39682000000000006  1.0000
  O   O31       1.0  0.6461699999999998  0.76987  0.31818  1.0000
  O   O32       1.0  0.7059  0.90063  0.33092  1.0000
  O   O33       1.0  0.06025000000000002  0.69577  0.26947  1.0000
  O   O34       1.0  0.09953  0.83596  0.22392  1.0000
  O   O35       1.0  0.91649  0.55429  0.95505  1.0000
  O   O36       1.0  0.96818  0.67205  0.91255  1.0000
  O   O37       1.0  0.82884  0.12907  0.11398  1.0000
  O   O38       1.0  0.89341  0.24548  0.15929  1.0000
  O   O39       1.0  0.45897  0.29246  0.08127  1.0000
  O   O40       1.0  0.54784  0.43056  0.09439  1.0000
  O   O41       1.0  0.48875999999999986  0.33587  0.74346  1.0000
  O   O42       1.0  0.59917  0.43705  0.74715  1.0000
  O   O43       1.0  0.50811  0.83924  0.25596  1.0000
  O   O44       1.0  0.535  0.96538  0.2949  1.0000
  O   O45       1.0  0.38087999999999994  0.9846699999999999  0.9549900000000001  1.0000
  O   O46       1.0  0.44052999999999987  0.12331  0.99659  1.0000
  O   O47       1.0  0.9920599999999999  0.02333  0.10721000000000001  1.0000
  O   O48       1.0  0.028329999999999994  0.15545  0.10318999999999999  1.0000
  O   O49       1.0  0.14617  0.26987  0.18182  1.0000
  O   O50       1.0  0.2059  0.40063  0.16909  1.0000
  O   O51       1.0  0.56025  0.19577  0.23053  1.0000
  O   O52       1.0  0.59953  0.33596000000000004  0.27609  1.0000
  O   O53       1.0  0.4164899999999999  0.05430000000000001  0.54495  1.0000
  O   O54       1.0  0.46819  0.17205  0.58746  1.0000
  O   O55       1.0  0.67115  0.37093  0.61399  1.0000
  O   O56       1.0  0.60659  0.25452  0.65929  1.0000
  O   O57       1.0  0.04103  0.20754  0.58127  1.0000
  O   O58       1.0  0.9521499999999998  0.06944  0.59439  1.0000
  O   O59       1.0  0.011239999999999995  0.16413  0.24346000000000004  1.0000
  O   O60       1.0  0.90083  0.06295  0.24715  1.0000
  O   O61       1.0  0.99188  0.66076  0.75596  1.0000
  O   O62       1.0  0.965  0.53461  0.7949000000000002  1.0000
  O   O63       1.0  0.11912  0.51532  0.45499000000000006  1.0000
  O   O64       1.0  0.05946999999999999  0.37669  0.49659000000000003  1.0000
  O   O65       1.0  0.5079399999999997  0.47667000000000004  0.60721  1.0000
  O   O66       1.0  0.47167  0.34455  0.60319  1.0000
  O   O67       1.0  0.35382  0.23012  0.68182  1.0000
  O   O68       1.0  0.29409  0.09937  0.66909  1.0000
  O   O69       1.0  0.93975  0.30423  0.73053  1.0000
  O   O70       1.0  0.90046  0.16404  0.77609  1.0000
  O   O71       1.0  0.08351  0.4457  0.04495  1.0000
  O   O72       1.0  0.03180999999999998  0.32795  0.08746  1.0000
