data_image0
_chemical_formula_structural       Cu8H120C192Br8N24O48
_chemical_formula_sum              "Cu8 H120 C192 Br8 N24 O48"
_cell_length_a       7.67495
_cell_length_b       30.67465
_cell_length_c       32.42269
_cell_angle_alpha    116.1168
_cell_angle_beta     90.0
_cell_angle_gamma    90.0

_space_group_name_H-M_alt    "P 1"
_space_group_IT_number       1

loop_
  _space_group_symop_operation_xyz
  'x, y, z'

loop_
  _atom_site_type_symbol
  _atom_site_label
  _atom_site_symmetry_multiplicity
  _atom_site_fract_x
  _atom_site_fract_y
  _atom_site_fract_z
  _atom_site_occupancy
  Cu  Cu1       1.0  0.27636  0.37617  0.24154999999999993  1.0000
  Cu  Cu2       1.0  0.71646  0.8804099999999998  0.7414  1.0000
  Cu  Cu3       1.0  0.22364  0.8761699999999998  0.24154999999999993  1.0000
  Cu  Cu4       1.0  0.78354  0.38041  0.7414  1.0000
  Cu  Cu5       1.0  0.77636  0.12382999999999994  0.75846  1.0000
  Cu  Cu6       1.0  0.21645999999999996  0.6195899999999998  0.2586  1.0000
  Cu  Cu7       1.0  0.72364  0.6238299999999998  0.75846  1.0000
  Cu  Cu8       1.0  0.28354  0.11959999999999997  0.2586  1.0000
  H   H1        1.0  0.15112  0.4787499999999999  0.28942  1.0000
  H   H2        1.0  0.28873  0.5611199999999997  0.33123  1.0000
  H   H3        1.0  0.79012  0.4893  0.30293  1.0000
  H   H4        1.0  0.63727  0.41216  0.25939  1.0000
  H   H5        1.0  0.69758  0.6648999999999998  0.32240999999999986  1.0000
  H   H6        1.0  0.8300999999999997  0.7904199999999998  0.44892  1.0000
  H   H7        1.0  0.56063  0.6685299999999997  0.45263  1.0000
  H   H8        1.0  0.6861999999999998  0.79933  0.27141  1.0000
  H   H9        1.0  0.8793199999999998  0.83448  0.23248999999999995  1.0000
  H   H10       1.0  0.31347  0.8270299999999998  0.3049499999999999  1.0000
  H   H11       1.0  0.14057999999999995  0.7864899999999997  0.3443199999999999  1.0000
  H   H12       1.0  0.5601299999999998  0.82589  0.57217  1.0000
  H   H13       1.0  0.54855  0.8794899999999999  0.6559599999999998  1.0000
  H   H14       1.0  0.8775099999999998  0.7886299999999999  0.6846099999999998  1.0000
  H   H15       1.0  0.89608  0.7298799999999998  0.60153  1.0000
  H   H16       1.0  0.36614  0.9177299999999996  0.73675  1.0000
  H   H17       1.0  0.20254999999999995  0.9941999999999998  0.778  1.0000
  H   H18       1.0  0.6930799999999998  0.06514999999999997  0.83351  1.0000
  H   H19       1.0  0.83736  0.9833499999999997  0.7931499999999998  1.0000
  H   H20       1.0  0.28382  0.17081999999999983  0.8224399999999997  1.0000
  H   H21       1.0  0.15302999999999994  0.2924799999999999  0.9518999999999997  1.0000
  H   H22       1.0  0.41576  0.16700999999999996  0.9498  1.0000
  H   H23       1.0  0.32340999999999986  0.31860999999999995  0.7869099999999998  1.0000
  H   H24       1.0  0.14318  0.35552  0.74812  1.0000
  H   H25       1.0  0.6843299999999998  0.33052999999999993  0.8022599999999998  1.0000
  H   H26       1.0  0.8476499999999998  0.28877999999999976  0.8418399999999998  1.0000
  H   H27       1.0  0.08778  0.22705999999999996  0.1014  1.0000
  H   H28       1.0  0.11175  0.2852699999999999  0.18447  1.0000
  H   H29       1.0  0.43606  0.37646999999999997  0.15543999999999994  1.0000
  H   H30       1.0  0.4184099999999999  0.32346  0.07126  1.0000
  H   H31       1.0  0.34887999999999997  0.9787500000000001  0.28942  1.0000
  H   H32       1.0  0.21127  0.061119999999999994  0.33123  1.0000
  H   H33       1.0  0.70988  0.9892999999999997  0.30293  1.0000
  H   H34       1.0  0.86273  0.9121599999999997  0.25939  1.0000
  H   H35       1.0  0.8024299999999998  0.16489999999999994  0.32240999999999986  1.0000
  H   H36       1.0  0.6698999999999998  0.2904199999999999  0.44892  1.0000
  H   H37       1.0  0.93937  0.16853  0.45263  1.0000
  H   H38       1.0  0.8138  0.2993399999999999  0.27141  1.0000
  H   H39       1.0  0.62068  0.3344799999999999  0.23248999999999995  1.0000
  H   H40       1.0  0.18652999999999995  0.32703  0.3049499999999999  1.0000
  H   H41       1.0  0.35942999999999997  0.28648999999999997  0.3443199999999999  1.0000
  H   H42       1.0  0.9398699999999998  0.3258899999999999  0.57217  1.0000
  H   H43       1.0  0.95146  0.3794899999999999  0.6559599999999998  1.0000
  H   H44       1.0  0.6224899999999998  0.28862999999999983  0.6846099999999998  1.0000
  H   H45       1.0  0.60392  0.22988  0.60153  1.0000
  H   H46       1.0  0.13386  0.4177299999999999  0.73675  1.0000
  H   H47       1.0  0.29746  0.49421  0.778  1.0000
  H   H48       1.0  0.8069199999999997  0.5651499999999998  0.83351  1.0000
  H   H49       1.0  0.6626499999999997  0.4833599999999998  0.7931499999999998  1.0000
  H   H50       1.0  0.21618  0.6708199999999996  0.8224399999999997  1.0000
  H   H51       1.0  0.34697  0.7924799999999996  0.9518999999999997  1.0000
  H   H52       1.0  0.08424  0.6670099999999998  0.9498  1.0000
  H   H53       1.0  0.1766  0.8186099999999996  0.7869099999999998  1.0000
  H   H54       1.0  0.35682  0.8555199999999998  0.74812  1.0000
  H   H55       1.0  0.8156699999999998  0.8305299999999998  0.8022599999999998  1.0000
  H   H56       1.0  0.65235  0.7887699999999996  0.8418399999999998  1.0000
  H   H57       1.0  0.41223  0.72706  0.1014  1.0000
  H   H58       1.0  0.38825  0.7852699999999998  0.18447  1.0000
  H   H59       1.0  0.06394  0.8764699999999997  0.15543999999999994  1.0000
  H   H60       1.0  0.08159  0.8234599999999997  0.07126  1.0000
  H   H61       1.0  0.65112  0.021250000000000012  0.71058  1.0000
  H   H62       1.0  0.7887299999999998  0.9388799999999999  0.66877  1.0000
  H   H63       1.0  0.2901199999999999  0.010699999999999883  0.6970799999999998  1.0000
  H   H64       1.0  0.13726999999999995  0.08783999999999995  0.74061  1.0000
  H   H65       1.0  0.19757  0.8350999999999997  0.6775899999999999  1.0000
  H   H66       1.0  0.3300999999999999  0.70958  0.55108  1.0000
  H   H67       1.0  0.06062999999999999  0.8314699999999997  0.5473699999999998  1.0000
  H   H68       1.0  0.1862  0.7006599999999997  0.7286  1.0000
  H   H69       1.0  0.37932  0.6655199999999998  0.76751  1.0000
  H   H70       1.0  0.8134699999999998  0.67297  0.69505  1.0000
  H   H71       1.0  0.64058  0.71351  0.65568  1.0000
  H   H72       1.0  0.06013  0.6741099999999998  0.4278299999999999  1.0000
  H   H73       1.0  0.048539999999999986  0.6205099999999998  0.34404  1.0000
  H   H74       1.0  0.3775099999999999  0.71137  0.3154  1.0000
  H   H75       1.0  0.39607999999999993  0.7701199999999999  0.3984699999999999  1.0000
  H   H76       1.0  0.8661399999999998  0.5822699999999997  0.26325  1.0000
  H   H77       1.0  0.70255  0.5058  0.22199999999999995  1.0000
  H   H78       1.0  0.19307999999999995  0.4348499999999999  0.16649  1.0000
  H   H79       1.0  0.33736  0.5166399999999998  0.20685  1.0000
  H   H80       1.0  0.78382  0.32918999999999987  0.17755999999999994  1.0000
  H   H81       1.0  0.65303  0.20751999999999993  0.04809999999999998  1.0000
  H   H82       1.0  0.91576  0.3329899999999999  0.05019999999999999  1.0000
  H   H83       1.0  0.82341  0.18138999999999994  0.21309  1.0000
  H   H84       1.0  0.64318  0.14449  0.25189  1.0000
  H   H85       1.0  0.18433  0.16946999999999998  0.19774999999999995  1.0000
  H   H86       1.0  0.34765  0.2112299999999999  0.15816  1.0000
  H   H87       1.0  0.58778  0.27293999999999985  0.8985999999999997  1.0000
  H   H88       1.0  0.6117499999999998  0.21473  0.81553  1.0000
  H   H89       1.0  0.9360599999999998  0.12353  0.84456  1.0000
  H   H90       1.0  0.91842  0.17653999999999984  0.9287499999999997  1.0000
  H   H91       1.0  0.84888  0.52125  0.71058  1.0000
  H   H92       1.0  0.71128  0.4388799999999999  0.66877  1.0000
  H   H93       1.0  0.20987999999999996  0.5106999999999998  0.6970799999999998  1.0000
  H   H94       1.0  0.36273  0.5878399999999998  0.74061  1.0000
  H   H95       1.0  0.30243  0.33509999999999995  0.6775899999999999  1.0000
  H   H96       1.0  0.1699  0.20957999999999993  0.55108  1.0000
  H   H97       1.0  0.43937  0.3314699999999999  0.5473699999999998  1.0000
  H   H98       1.0  0.3138  0.20066999999999993  0.7286  1.0000
  H   H99       1.0  0.12067999999999997  0.16551999999999994  0.76751  1.0000
  H   H100      1.0  0.68654  0.1729699999999999  0.69505  1.0000
  H   H101      1.0  0.8594299999999998  0.21350999999999995  0.65568  1.0000
  H   H102      1.0  0.43986999999999987  0.17410999999999993  0.4278299999999999  1.0000
  H   H103      1.0  0.4514599999999999  0.12051999999999999  0.34404  1.0000
  H   H104      1.0  0.12248999999999997  0.21136999999999997  0.3154  1.0000
  H   H105      1.0  0.10392  0.2701199999999998  0.3984699999999999  1.0000
  H   H106      1.0  0.63386  0.08227  0.26325  1.0000
  H   H107      1.0  0.79746  0.005799999999999983  0.22199999999999995  1.0000
  H   H108      1.0  0.3069199999999999  0.9348499999999997  0.16649  1.0000
  H   H109      1.0  0.16265  0.01665000000000001  0.20685  1.0000
  H   H110      1.0  0.71618  0.8291799999999998  0.17755999999999994  1.0000
  H   H111      1.0  0.8469699999999998  0.70752  0.04809999999999998  1.0000
  H   H112      1.0  0.5842499999999998  0.8329899999999998  0.05019999999999999  1.0000
  H   H113      1.0  0.6766  0.68139  0.21309  1.0000
  H   H114      1.0  0.8568199999999998  0.64448  0.25189  1.0000
  H   H115      1.0  0.3156699999999999  0.66947  0.19774999999999995  1.0000
  H   H116      1.0  0.15235  0.7112299999999998  0.15816  1.0000
  H   H117      1.0  0.91223  0.7729399999999996  0.8985999999999997  1.0000
  H   H118      1.0  0.88826  0.7147299999999998  0.81553  1.0000
  H   H119      1.0  0.56394  0.6235299999999998  0.84456  1.0000
  H   H120      1.0  0.5815899999999998  0.67654  0.9287499999999997  1.0000
  C   C1        1.0  0.2922799999999999  0.48326999999999987  0.2927799999999999  1.0000
  C   C2        1.0  0.36913  0.52866  0.3164899999999999  1.0000
  C   C3        1.0  0.55151  0.5318399999999996  0.3204299999999999  1.0000
  C   C4        1.0  0.64862  0.48889  0.30047  1.0000
  C   C5        1.0  0.56259  0.4453299999999999  0.27626  1.0000
  C   C6        1.0  0.64976  0.57772  0.3438599999999999  1.0000
  C   C7        1.0  0.6256699999999997  0.66289  0.38585  1.0000
  C   C8        1.0  0.7018299999999997  0.6837699999999997  0.3597599999999999  1.0000
  C   C9        1.0  0.77646  0.7295799999999998  0.38343  1.0000
  C   C10       1.0  0.7723699999999998  0.7545999999999997  0.4312199999999999  1.0000
  C   C11       1.0  0.69408  0.73231  0.4557299999999999  1.0000
  C   C12       1.0  0.6206099999999998  0.6861299999999998  0.4336299999999999  1.0000
  C   C13       1.0  0.78042  0.7673699999999997  0.3326399999999999  1.0000
  C   C14       1.0  0.89858  0.78953  0.3108499999999999  1.0000
  C   C15       1.0  0.8247799999999997  0.8037899999999997  0.2792599999999999  1.0000
  C   C16       1.0  0.93187  0.8242699999999997  0.25805  1.0000
  C   C17       1.0  0.17471  0.8193599999999999  0.29825  1.0000
  C   C18       1.0  0.07780999999999999  0.7972099999999998  0.3201499999999999  1.0000
  C   C19       1.0  0.75292  0.7396399999999999  0.5309799999999999  1.0000
  C   C20       1.0  0.73102  0.7734899999999998  0.58019  1.0000
  C   C21       1.0  0.63226  0.8162299999999998  0.59583  1.0000
  C   C22       1.0  0.62586  0.8463999999999999  0.64277  1.0000
  C   C23       1.0  0.80663  0.7949999999999998  0.65872  1.0000
  C   C24       1.0  0.8172699999999999  0.76256  0.61258  1.0000
  C   C25       1.0  0.43442  0.9505699999999997  0.7592399999999998  1.0000
  C   C26       1.0  0.34324  0.9936399999999997  0.78169  1.0000
  C   C27       1.0  0.43536999999999987  0.03600999999999989  0.8087699999999998  1.0000
  C   C28       1.0  0.61654  0.03296999999999999  0.81316  1.0000
  C   C29       1.0  0.69738  0.9880299999999996  0.7905999999999997  1.0000
  C   C30       1.0  0.33326  0.08131999999999989  0.8312399999999998  1.0000
  C   C31       1.0  0.35212  0.16478999999999988  0.8840999999999998  1.0000
  C   C32       1.0  0.2784  0.18798000000000006  0.85976  1.0000
  C   C33       1.0  0.20511  0.23361999999999994  0.88501  1.0000
  C   C34       1.0  0.20913  0.25664  0.93285  1.0000
  C   C35       1.0  0.28649999999999987  0.23235999999999987  0.9556299999999998  1.0000
  C   C36       1.0  0.3574799999999999  0.18606000000000006  0.93191  1.0000
  C   C37       1.0  0.21201999999999993  0.27691  0.8394399999999997  1.0000
  C   C38       1.0  0.09991999999999997  0.3002299999999999  0.8175899999999998  1.0000
  C   C39       1.0  0.18238  0.31968999999999986  0.79095  1.0000
  C   C40       1.0  0.08116  0.3408299999999998  0.7693099999999998  1.0000
  C   C41       1.0  0.82575  0.3263099999999999  0.79944  1.0000
  C   C42       1.0  0.91737  0.3034999999999998  0.8215899999999998  1.0000
  C   C43       1.0  0.22593999999999995  0.2377999999999999  0.030239999999999993  1.0000
  C   C44       1.0  0.24987  0.27095  0.07959999999999998  1.0000
  C   C45       1.0  0.16641  0.25971999999999995  0.11213999999999998  1.0000
  C   C46       1.0  0.17994999999999994  0.29188999999999987  0.15834999999999994  1.0000
  C   C47       1.0  0.35768  0.3436099999999999  0.14210999999999993  1.0000
  C   C48       1.0  0.34843  0.31371  0.09515999999999997  1.0000
  C   C49       1.0  0.20771999999999993  0.9832699999999998  0.2927799999999999  1.0000
  C   C50       1.0  0.13087  0.028659999999999953  0.3164899999999999  1.0000
  C   C51       1.0  0.94849  0.03184999999999994  0.3204299999999999  1.0000
  C   C52       1.0  0.85138  0.9888899999999999  0.30047  1.0000
  C   C53       1.0  0.9374199999999998  0.9453299999999998  0.27626  1.0000
  C   C54       1.0  0.8502499999999998  0.07771999999999994  0.3438599999999999  1.0000
  C   C55       1.0  0.8743299999999998  0.16289  0.38585  1.0000
  C   C56       1.0  0.79817  0.1837799999999999  0.3597599999999999  1.0000
  C   C57       1.0  0.72354  0.22958  0.38343  1.0000
  C   C58       1.0  0.72763  0.2545999999999999  0.4312199999999999  1.0000
  C   C59       1.0  0.8059299999999998  0.23230999999999988  0.4557299999999999  1.0000
  C   C60       1.0  0.8793899999999998  0.18613999999999992  0.4336299999999999  1.0000
  C   C61       1.0  0.7195899999999998  0.2673699999999998  0.3326399999999999  1.0000
  C   C62       1.0  0.60142  0.28953  0.3108499999999999  1.0000
  C   C63       1.0  0.67522  0.3038  0.2792599999999999  1.0000
  C   C64       1.0  0.56813  0.32427  0.25805  1.0000
  C   C65       1.0  0.32529  0.31935999999999987  0.29825  1.0000
  C   C66       1.0  0.4222  0.29720999999999975  0.3201499999999999  1.0000
  C   C67       1.0  0.74708  0.23963999999999988  0.5309799999999999  1.0000
  C   C68       1.0  0.7689799999999998  0.27349  0.58019  1.0000
  C   C69       1.0  0.86774  0.31623  0.59583  1.0000
  C   C70       1.0  0.87414  0.3463999999999999  0.64277  1.0000
  C   C71       1.0  0.69337  0.29499999999999993  0.65872  1.0000
  C   C72       1.0  0.68274  0.2625599999999999  0.61258  1.0000
  C   C73       1.0  0.06558  0.4505799999999998  0.7592399999999998  1.0000
  C   C74       1.0  0.15676  0.4936400000000001  0.78169  1.0000
  C   C75       1.0  0.06463  0.5360099999999998  0.8087699999999998  1.0000
  C   C76       1.0  0.88346  0.53297  0.81316  1.0000
  C   C77       1.0  0.80262  0.48803999999999986  0.7905999999999997  1.0000
  C   C78       1.0  0.16674  0.5813199999999997  0.8312399999999998  1.0000
  C   C79       1.0  0.14788  0.6647899999999998  0.8840999999999998  1.0000
  C   C80       1.0  0.2216  0.68798  0.85976  1.0000
  C   C81       1.0  0.29489  0.7336199999999998  0.88501  1.0000
  C   C82       1.0  0.29088  0.75664  0.93285  1.0000
  C   C83       1.0  0.21349999999999997  0.7323599999999997  0.9556299999999998  1.0000
  C   C84       1.0  0.14251999999999995  0.6860599999999998  0.93191  1.0000
  C   C85       1.0  0.2879799999999999  0.7769099999999997  0.8394399999999997  1.0000
  C   C86       1.0  0.40008  0.8002299999999996  0.8175899999999998  1.0000
  C   C87       1.0  0.31762  0.8196899999999996  0.7909599999999998  1.0000
  C   C88       1.0  0.4188499999999999  0.8408299999999999  0.7693099999999998  1.0000
  C   C89       1.0  0.67426  0.82631  0.79944  1.0000
  C   C90       1.0  0.5826299999999998  0.8034999999999999  0.8215899999999998  1.0000
  C   C91       1.0  0.27406  0.7377999999999998  0.030239999999999993  1.0000
  C   C92       1.0  0.25013  0.7709499999999998  0.07959999999999998  1.0000
  C   C93       1.0  0.33358999999999994  0.75971  0.11213999999999998  1.0000
  C   C94       1.0  0.3200499999999999  0.79189  0.15834999999999994  1.0000
  C   C95       1.0  0.14232  0.84361  0.14210999999999993  1.0000
  C   C96       1.0  0.15156999999999995  0.8137099999999998  0.09515999999999997  1.0000
  C   C97       1.0  0.7922799999999998  0.016729999999999898  0.7072199999999998  1.0000
  C   C98       1.0  0.86913  0.9713399999999998  0.6835099999999998  1.0000
  C   C99       1.0  0.051509999999999986  0.9681499999999998  0.67958  1.0000
  C   C100      1.0  0.14862  0.011109999999999988  0.69953  1.0000
  C   C101      1.0  0.06258  0.05467000000000002  0.72374  1.0000
  C   C102      1.0  0.14975999999999995  0.9222799999999998  0.65614  1.0000
  C   C103      1.0  0.12567  0.8371099999999997  0.6141499999999998  1.0000
  C   C104      1.0  0.20182999999999998  0.81622  0.6402399999999998  1.0000
  C   C105      1.0  0.27646  0.77042  0.6165699999999997  1.0000
  C   C106      1.0  0.27237  0.7453999999999997  0.5687799999999998  1.0000
  C   C107      1.0  0.19408  0.7676899999999998  0.54428  1.0000
  C   C108      1.0  0.12060999999999997  0.8138699999999996  0.5663799999999998  1.0000
  C   C109      1.0  0.28041  0.73263  0.66736  1.0000
  C   C110      1.0  0.39858  0.7104699999999999  0.68915  1.0000
  C   C111      1.0  0.32478  0.69621  0.7207499999999998  1.0000
  C   C112      1.0  0.43187  0.6757299999999998  0.74195  1.0000
  C   C113      1.0  0.67471  0.6806399999999996  0.7017499999999998  1.0000
  C   C114      1.0  0.57781  0.7027899999999999  0.6798599999999998  1.0000
  C   C115      1.0  0.25292  0.7603599999999996  0.46902  1.0000
  C   C116      1.0  0.23101999999999995  0.72651  0.41981  1.0000
  C   C117      1.0  0.13226  0.6837699999999998  0.40417  1.0000
  C   C118      1.0  0.12586  0.6535999999999997  0.35724  1.0000
  C   C119      1.0  0.30662999999999996  0.7049999999999996  0.34128  1.0000
  C   C120      1.0  0.3172599999999999  0.7374399999999997  0.3874299999999999  1.0000
  C   C121      1.0  0.93442  0.5494299999999998  0.24076  1.0000
  C   C122      1.0  0.84324  0.5063599999999998  0.21830999999999995  1.0000
  C   C123      1.0  0.93537  0.4639899999999999  0.19123999999999997  1.0000
  C   C124      1.0  0.11653999999999998  0.4670299999999999  0.18683999999999995  1.0000
  C   C125      1.0  0.19737999999999994  0.5119699999999999  0.20939999999999995  1.0000
  C   C126      1.0  0.83326  0.4186799999999999  0.16875999999999994  1.0000
  C   C127      1.0  0.85212  0.3352099999999999  0.1159  1.0000
  C   C128      1.0  0.7784  0.31202  0.14023999999999995  1.0000
  C   C129      1.0  0.7051099999999998  0.26638  0.11499  1.0000
  C   C130      1.0  0.7091299999999998  0.2433599999999999  0.06715  1.0000
  C   C131      1.0  0.7865  0.2676399999999999  0.04437  1.0000
  C   C132      1.0  0.85748  0.3139399999999999  0.06808999999999997  1.0000
  C   C133      1.0  0.71202  0.22308999999999993  0.16055999999999995  1.0000
  C   C134      1.0  0.59992  0.19976999999999995  0.18241  1.0000
  C   C135      1.0  0.68238  0.18031  0.20905  1.0000
  C   C136      1.0  0.58116  0.15917  0.2307  1.0000
  C   C137      1.0  0.32574  0.17369999999999994  0.20055999999999993  1.0000
  C   C138      1.0  0.4173699999999999  0.19649999999999992  0.17840999999999996  1.0000
  C   C139      1.0  0.72594  0.26219999999999977  0.9697599999999997  1.0000
  C   C140      1.0  0.7498699999999998  0.22905000000000006  0.9204  1.0000
  C   C141      1.0  0.6664099999999997  0.2402899999999999  0.88787  1.0000
  C   C142      1.0  0.6799499999999998  0.20810999999999985  0.8416499999999998  1.0000
  C   C143      1.0  0.85768  0.15639  0.8578999999999999  1.0000
  C   C144      1.0  0.8484299999999998  0.1862899999999999  0.90484  1.0000
  C   C145      1.0  0.70773  0.5167299999999998  0.7072199999999998  1.0000
  C   C146      1.0  0.6308699999999998  0.4713499999999998  0.6835099999999998  1.0000
  C   C147      1.0  0.44848999999999994  0.4681599999999999  0.67958  1.0000
  C   C148      1.0  0.35138  0.5111099999999997  0.69953  1.0000
  C   C149      1.0  0.4374199999999999  0.55467  0.72374  1.0000
  C   C150      1.0  0.35025  0.4222799999999999  0.65614  1.0000
  C   C151      1.0  0.37432999999999994  0.3371199999999999  0.6141499999999998  1.0000
  C   C152      1.0  0.2981699999999999  0.31622999999999996  0.6402399999999998  1.0000
  C   C153      1.0  0.22354  0.27041999999999977  0.6165699999999997  1.0000
  C   C154      1.0  0.22763  0.2453999999999999  0.5687799999999998  1.0000
  C   C155      1.0  0.30592999999999987  0.26769  0.54428  1.0000
  C   C156      1.0  0.3793899999999999  0.31386999999999987  0.5663799999999998  1.0000
  C   C157      1.0  0.21959  0.2326299999999999  0.66736  1.0000
  C   C158      1.0  0.10142  0.21046999999999988  0.68915  1.0000
  C   C159      1.0  0.17522  0.1962099999999998  0.7207499999999998  1.0000
  C   C160      1.0  0.06813  0.17573  0.74195  1.0000
  C   C161      1.0  0.82529  0.18063999999999983  0.7017499999999998  1.0000
  C   C162      1.0  0.9221999999999998  0.20278999999999978  0.6798599999999998  1.0000
  C   C163      1.0  0.24707999999999994  0.26036  0.46902  1.0000
  C   C164      1.0  0.26898  0.22651  0.41981  1.0000
  C   C165      1.0  0.3677399999999999  0.18377999999999994  0.40417  1.0000
  C   C166      1.0  0.37414  0.15359999999999993  0.35724  1.0000
  C   C167      1.0  0.19337  0.20499999999999993  0.34128  1.0000
  C   C168      1.0  0.18273999999999996  0.2374399999999999  0.3874299999999999  1.0000
  C   C169      1.0  0.56558  0.04943  0.24076  1.0000
  C   C170      1.0  0.6567599999999999  0.006359999999999973  0.21830999999999995  1.0000
  C   C171      1.0  0.56463  0.96399  0.19123999999999997  1.0000
  C   C172      1.0  0.38346  0.9670299999999997  0.18683999999999995  1.0000
  C   C173      1.0  0.3026199999999999  0.011969999999999963  0.20939999999999995  1.0000
  C   C174      1.0  0.66674  0.91868  0.16875999999999994  1.0000
  C   C175      1.0  0.64788  0.83521  0.1159  1.0000
  C   C176      1.0  0.7216  0.8120199999999997  0.14023999999999995  1.0000
  C   C177      1.0  0.79489  0.76638  0.11499  1.0000
  C   C178      1.0  0.79088  0.7433599999999998  0.06715  1.0000
  C   C179      1.0  0.7134999999999998  0.76764  0.04437  1.0000
  C   C180      1.0  0.64252  0.8139399999999998  0.06808999999999997  1.0000
  C   C181      1.0  0.78798  0.7230899999999998  0.16055999999999995  1.0000
  C   C182      1.0  0.90008  0.69977  0.18241  1.0000
  C   C183      1.0  0.81762  0.68031  0.20905  1.0000
  C   C184      1.0  0.91885  0.6591699999999998  0.2307  1.0000
  C   C185      1.0  0.17425999999999994  0.6736899999999997  0.20055999999999993  1.0000
  C   C186      1.0  0.08262999999999997  0.6965  0.17840999999999996  1.0000
  C   C187      1.0  0.77406  0.7621999999999999  0.9697599999999997  1.0000
  C   C188      1.0  0.7501299999999997  0.72905  0.9204  1.0000
  C   C189      1.0  0.8335899999999998  0.7402899999999999  0.88787  1.0000
  C   C190      1.0  0.8200499999999997  0.7081099999999999  0.8416499999999998  1.0000
  C   C191      1.0  0.64232  0.6563899999999998  0.8578999999999999  1.0000
  C   C192      1.0  0.65157  0.68629  0.90484  1.0000
  Br  Br1       1.0  0.96766  0.38400999999999985  0.2646  1.0000
  Br  Br2       1.0  0.02587  0.8949499999999997  0.7636999999999998  1.0000
  Br  Br3       1.0  0.53234  0.8840099999999999  0.2646  1.0000
  Br  Br4       1.0  0.4741299999999999  0.3949499999999999  0.7636999999999998  1.0000
  Br  Br5       1.0  0.46766  0.11599  0.7354  1.0000
  Br  Br6       1.0  0.52587  0.60505  0.23629999999999995  1.0000
  Br  Br7       1.0  0.03234  0.61599  0.7354  1.0000
  Br  Br8       1.0  0.97413  0.10504999999999996  0.23629999999999995  1.0000
  N   N1        1.0  0.3862099999999999  0.4416699999999999  0.27207  1.0000
  N   N2        1.0  0.1037  0.8330099999999998  0.26751  1.0000
  N   N3        1.0  0.71312  0.8366499999999999  0.6740399999999998  1.0000
  N   N4        1.0  0.60897  0.9469399999999998  0.7637299999999999  1.0000
  N   N5        1.0  0.90524  0.34499999999999986  0.77343  1.0000
  N   N6        1.0  0.27333  0.33356  0.17361  1.0000
  N   N7        1.0  0.11378999999999997  0.94167  0.27207  1.0000
  N   N8        1.0  0.3963  0.33301  0.26751  1.0000
  N   N9        1.0  0.78689  0.3366499999999998  0.6740399999999998  1.0000
  N   N10       1.0  0.8910399999999999  0.44694999999999985  0.7637299999999999  1.0000
  N   N11       1.0  0.59476  0.845  0.77343  1.0000
  N   N12       1.0  0.22666999999999995  0.8335599999999997  0.17361  1.0000
  N   N13       1.0  0.8862099999999998  0.05833000000000001  0.72793  1.0000
  N   N14       1.0  0.6037  0.6669899999999999  0.7324899999999998  1.0000
  N   N15       1.0  0.21312  0.66335  0.32595999999999997  1.0000
  N   N16       1.0  0.10897  0.5530599999999998  0.23626999999999995  1.0000
  N   N17       1.0  0.40524  0.15500999999999998  0.22657  1.0000
  N   N18       1.0  0.77333  0.16643999999999995  0.8264  1.0000
  N   N19       1.0  0.6137899999999997  0.5583299999999998  0.72793  1.0000
  N   N20       1.0  0.8963  0.16698999999999992  0.7324899999999998  1.0000
  N   N21       1.0  0.28688999999999987  0.1633499999999999  0.32595999999999997  1.0000
  N   N22       1.0  0.3910299999999999  0.053059999999999954  0.23627999999999993  1.0000
  N   N23       1.0  0.09476  0.6549999999999998  0.22657  1.0000
  N   N24       1.0  0.72667  0.66644  0.8264  1.0000
  O   O1        1.0  0.5419399999999999  0.61776  0.36386  1.0000
  O   O2        1.0  0.8084799999999998  0.58038  0.3460699999999999  1.0000
  O   O3        1.0  0.87085  0.7511699999999996  0.36011  1.0000
  O   O4        1.0  0.62297  0.7639299999999998  0.32735  1.0000
  O   O5        1.0  0.68363  0.7594999999999997  0.50342  1.0000
  O   O6        1.0  0.8242599999999998  0.7002399999999998  0.51615  1.0000
  O   O7        1.0  0.43418  0.11970999999999997  0.8608  1.0000
  O   O8        1.0  0.17735999999999993  0.08440999999999986  0.8256599999999997  1.0000
  O   O9        1.0  0.11460999999999999  0.2570699999999999  0.8627799999999999  1.0000
  O   O10       1.0  0.3707  0.27513999999999983  0.83749  1.0000
  O   O11       1.0  0.2997  0.25785  0.0033799999999999993  1.0000
  O   O12       1.0  0.15052999999999994  0.19894999999999993  0.014669999999999997  1.0000
  O   O13       1.0  0.95807  0.11775999999999996  0.36386  1.0000
  O   O14       1.0  0.6915199999999998  0.08037999999999994  0.3460699999999999  1.0000
  O   O15       1.0  0.6291599999999998  0.2511699999999999  0.36011  1.0000
  O   O16       1.0  0.8770399999999998  0.26393  0.32735  1.0000
  O   O17       1.0  0.81637  0.2594999999999999  0.50342  1.0000
  O   O18       1.0  0.67574  0.20023999999999997  0.51615  1.0000
  O   O19       1.0  0.06582  0.6197099999999998  0.8608  1.0000
  O   O20       1.0  0.32264  0.5843999999999996  0.8256599999999997  1.0000
  O   O21       1.0  0.38539  0.7570699999999997  0.8627799999999999  1.0000
  O   O22       1.0  0.1293  0.77514  0.83749  1.0000
  O   O23       1.0  0.2003  0.75785  0.0033799999999999993  1.0000
  O   O24       1.0  0.34947  0.6989499999999997  0.014669999999999997  1.0000
  O   O25       1.0  0.04192999999999999  0.8822399999999997  0.63614  1.0000
  O   O26       1.0  0.3084799999999999  0.9196199999999998  0.65393  1.0000
  O   O27       1.0  0.3708399999999999  0.74883  0.63989  1.0000
  O   O28       1.0  0.12297  0.73607  0.67265  1.0000
  O   O29       1.0  0.18363  0.7404999999999997  0.49658999999999986  1.0000
  O   O30       1.0  0.32426  0.79976  0.4838599999999999  1.0000
  O   O31       1.0  0.9341799999999998  0.3802899999999999  0.1392  1.0000
  O   O32       1.0  0.67736  0.41559999999999986  0.17434999999999998  1.0000
  O   O33       1.0  0.61461  0.24292999999999998  0.13722  1.0000
  O   O34       1.0  0.8707  0.22486  0.16250999999999993  1.0000
  O   O35       1.0  0.7997  0.2421499999999998  0.9966199999999997  1.0000
  O   O36       1.0  0.65053  0.3010499999999998  0.9853399999999998  1.0000
  O   O37       1.0  0.45807  0.3822399999999999  0.63614  1.0000
  O   O38       1.0  0.19152  0.4196199999999999  0.65393  1.0000
  O   O39       1.0  0.12916  0.2488299999999999  0.63989  1.0000
  O   O40       1.0  0.37703  0.23606999999999995  0.67265  1.0000
  O   O41       1.0  0.31637  0.24049999999999988  0.49658999999999986  1.0000
  O   O42       1.0  0.17574  0.29975999999999986  0.4838599999999999  1.0000
  O   O43       1.0  0.56582  0.8802899999999998  0.1392  1.0000
  O   O44       1.0  0.8226399999999998  0.9156  0.17434999999999998  1.0000
  O   O45       1.0  0.88539  0.7429299999999998  0.13722  1.0000
  O   O46       1.0  0.6293  0.7248599999999997  0.16250999999999993  1.0000
  O   O47       1.0  0.7003  0.7421499999999996  0.9966199999999997  1.0000
  O   O48       1.0  0.8494699999999997  0.8010499999999996  0.9853399999999998  1.0000
