data_image0
_chemical_formula_structural       Cd4H90C90N36Cl2O12
_chemical_formula_sum              "Cd4 H90 C90 N36 Cl2 O12"
_cell_length_a       9.62639
_cell_length_b       13.05483
_cell_length_c       21.12209
_cell_angle_alpha    102.73295999999999
_cell_angle_beta     101.6552
_cell_angle_gamma    99.90247

_symmetry_space_group_name_H-M    'P 1'
_symmetry_Int_Tables_number       1

loop_
  _symmetry_equiv_pos_as_xyz
  'x,y,z'

loop_
  _atom_site_type_symbol
  _atom_site_label
  _atom_site_symmetry_multiplicity
  _atom_site_fract_x
  _atom_site_fract_y
  _atom_site_fract_z
  _atom_site_occupancy
  Cd  Cd1       1.0  0.08879999999999998  0.8361699999999999  0.10134  1.0000
  Cd  Cd2       1.0  0.83351  0.10842999999999997  0.54511  1.0000
  Cd  Cd3       1.0  0.91121  0.16382999999999992  0.89866  1.0000
  Cd  Cd4       1.0  0.16649999999999993  0.8915799999999998  0.45489  1.0000
  H   H1        1.0  0.52732  0.72577  0.16276  1.0000
  H   H2        1.0  0.7548099999999999  0.70985  0.23938999999999996  1.0000
  H   H3        1.0  0.4602399999999999  0.9620699999999998  0.32277  1.0000
  H   H4        1.0  0.74881  0.64932  0.10951000000000001  1.0000
  H   H5        1.0  0.18225999999999998  0.62478  0.17168  1.0000
  H   H6        1.0  0.07032  0.39891  0.17294  1.0000
  H   H7        1.0  0.10944999999999995  0.49073999999999995  0.2517  1.0000
  H   H8        1.0  0.012909999999999956  0.5728099999999999  0.31184  1.0000
  H   H9        1.0  0.84838  0.5785  0.33441  1.0000
  H   H10       1.0  0.97801  0.52449  0.38046  1.0000
  H   H11       1.0  0.94429  0.1996  0.11324  1.0000
  H   H12       1.0  0.76399  0.19404000000000002  0.07313  1.0000
  H   H13       1.0  0.89445  0.31557  0.09391  1.0000
  H   H14       1.0  0.53685  0.20409999999999995  0.32121  1.0000
  H   H15       1.0  0.49268  0.11546999999999999  0.24122  1.0000
  H   H16       1.0  0.6416899999999999  0.1073  0.30219  1.0000
  H   H17       1.0  0.5957800000000001  0.35875  0.36217  1.0000
  H   H18       1.0  0.7390499999999999  0.47455  0.38366  1.0000
  H   H19       1.0  0.61568  0.24453999999999998  0.44268  1.0000
  H   H20       1.0  0.07000999999999998  0.31783  0.51647  1.0000
  H   H21       1.0  0.63735  0.08970999999999997  0.10277999999999998  1.0000
  H   H22       1.0  0.56701  0.05411  0.1677  1.0000
  H   H23       1.0  0.81066  0.9813899999999998  0.06688  1.0000
  H   H24       1.0  0.97704  0.9159599999999999  0.25138  1.0000
  H   H25       1.0  0.91336  0.56988  0.9856  1.0000
  H   H26       1.0  0.8525899999999997  0.87377  0.9629899999999999  1.0000
  H   H27       1.0  0.53409  0.6950399999999999  0.85784  1.0000
  H   H28       1.0  0.6560299999999999  0.8136199999999999  0.8593199999999999  1.0000
  H   H29       1.0  0.51543  0.4210199999999999  0.78129  1.0000
  H   H30       1.0  0.51253  0.53801  0.83975  1.0000
  H   H31       1.0  0.37129999999999985  0.4880599999999999  0.76559  1.0000
  H   H32       1.0  0.7796199999999999  0.9000799999999998  0.7611  1.0000
  H   H33       1.0  0.83977  0.8679399999999999  0.83699  1.0000
  H   H34       1.0  0.94128  0.85304  0.77628  1.0000
  H   H35       1.0  0.77443  0.48902  0.57998  1.0000
  H   H36       1.0  0.5823799999999999  0.45509999999999995  0.5545  1.0000
  H   H37       1.0  0.67869  0.58138  0.55163  1.0000
  H   H38       1.0  0.43427000000000004  0.39376  0.59914  1.0000
  H   H39       1.0  0.41493  0.37649999999999995  0.67714  1.0000
  H   H40       1.0  0.5011  0.21778  0.54801  1.0000
  H   H41       1.0  0.8578600000000003  0.23576  0.70508  1.0000
  H   H42       1.0  0.8891199999999999  0.6742599999999997  0.61508  1.0000
  H   H43       1.0  0.9632299999999999  0.776  0.69008  1.0000
  H   H44       1.0  0.9969799999999999  0.92196  0.61923  1.0000
  H   H45       1.0  0.55136  0.9162299999999995  0.56013  1.0000
  H   H46       1.0  0.47268000000000016  0.27423  0.83724  1.0000
  H   H47       1.0  0.24520000000000006  0.29015  0.76061  1.0000
  H   H48       1.0  0.53976  0.03793000000000001  0.67723  1.0000
  H   H49       1.0  0.2512  0.35068999999999995  0.89049  1.0000
  H   H50       1.0  0.81775  0.37522  0.82832  1.0000
  H   H51       1.0  0.9296899999999999  0.60109  0.82706  1.0000
  H   H52       1.0  0.8905500000000001  0.5092599999999999  0.74831  1.0000
  H   H53       1.0  0.98709  0.42718999999999996  0.68817  1.0000
  H   H54       1.0  0.15163  0.4215099999999999  0.66559  1.0000
  H   H55       1.0  0.021999999999999985  0.4755199999999999  0.61954  1.0000
  H   H56       1.0  0.055719999999999964  0.8003999999999998  0.88676  1.0000
  H   H57       1.0  0.23601  0.80596  0.92688  1.0000
  H   H58       1.0  0.10555999999999999  0.68443  0.90609  1.0000
  H   H59       1.0  0.46314999999999995  0.7958999999999998  0.67879  1.0000
  H   H60       1.0  0.50732  0.88453  0.75878  1.0000
  H   H61       1.0  0.35832  0.8926999999999999  0.69781  1.0000
  H   H62       1.0  0.40423  0.64125  0.63783  1.0000
  H   H63       1.0  0.26095999999999997  0.5254499999999999  0.61634  1.0000
  H   H64       1.0  0.38431999999999994  0.7554599999999998  0.55732  1.0000
  H   H65       1.0  0.92999  0.6821699999999999  0.4835400000000001  1.0000
  H   H66       1.0  0.36265000000000003  0.91029  0.8972200000000001  1.0000
  H   H67       1.0  0.43299  0.94589  0.8323099999999999  1.0000
  H   H68       1.0  0.18933999999999998  0.01860999999999997  0.93312  1.0000
  H   H69       1.0  0.022960000000000008  0.08404000000000002  0.74863  1.0000
  H   H70       1.0  0.08663999999999998  0.43013  0.0144  1.0000
  H   H71       1.0  0.14741  0.12623  0.03701  1.0000
  H   H72       1.0  0.46591  0.30496  0.14217  1.0000
  H   H73       1.0  0.34398  0.18637999999999993  0.14068  1.0000
  H   H74       1.0  0.48456999999999995  0.57898  0.21871  1.0000
  H   H75       1.0  0.48747  0.46199  0.16026  1.0000
  H   H76       1.0  0.6287  0.51194  0.23441  1.0000
  H   H77       1.0  0.22039  0.09992  0.2389  1.0000
  H   H78       1.0  0.16023  0.13206  0.16301  1.0000
  H   H79       1.0  0.05873  0.14695999999999995  0.22372  1.0000
  H   H80       1.0  0.22557000000000002  0.51098  0.42002  1.0000
  H   H81       1.0  0.41761999999999994  0.5448999999999999  0.4455  1.0000
  H   H82       1.0  0.32131000000000004  0.4186199999999999  0.44837000000000005  1.0000
  H   H83       1.0  0.56573  0.60624  0.40086  1.0000
  H   H84       1.0  0.58507  0.6234999999999998  0.32286  1.0000
  H   H85       1.0  0.49889999999999995  0.7822199999999999  0.45199  1.0000
  H   H86       1.0  0.14215  0.76424  0.29492  1.0000
  H   H87       1.0  0.11089  0.32574  0.38492  1.0000
  H   H88       1.0  0.036770000000000004  0.224  0.30992  1.0000
  H   H89       1.0  0.0030299999999999906  0.07804999999999998  0.38077  1.0000
  H   H90       1.0  0.44864  0.08377000000000002  0.43987  1.0000
  C   C1        1.0  0.33945  0.84641  0.19396  1.0000
  C   C2        1.0  0.48020999999999986  0.8438999999999998  0.23832000000000003  1.0000
  C   C3        1.0  0.56494  0.77419  0.21454  1.0000
  C   C4        1.0  0.69077  0.76586  0.25729  1.0000
  C   C5        1.0  0.73502  0.82823  0.3239  1.0000
  C   C6        1.0  0.65483  0.9030599999999998  0.34701  1.0000
  C   C7        1.0  0.52632  0.90822  0.30443  1.0000
  C   C8        1.0  0.8625699999999998  0.81148  0.37152  1.0000
  C   C9        1.0  0.70923  0.98003  0.41552999999999995  1.0000
  C   C10       1.0  0.8440299999999998  0.6219  0.12984  1.0000
  C   C11       1.0  0.06471999999999999  0.61161  0.16078  1.0000
  C   C12       1.0  0.021380000000000003  0.44861999999999996  0.20688999999999996  1.0000
  C   C13       1.0  0.89792  0.3805899999999999  0.22359  1.0000
  C   C14       1.0  0.85913  0.4168199999999999  0.28406  1.0000
  C   C15       1.0  0.75243  0.34745  0.30153  1.0000
  C   C16       1.0  0.68802  0.24191999999999994  0.26074  1.0000
  C   C17       1.0  0.7256999999999999  0.20842  0.19947  1.0000
  C   C18       1.0  0.82646  0.27874  0.1795  1.0000
  C   C19       1.0  0.9286399999999999  0.52838  0.32964  1.0000
  C   C20       1.0  0.85874  0.24561  0.11199  1.0000
  C   C21       1.0  0.58473  0.16438  0.2826  1.0000
  C   C22       1.0  0.71229  0.38643999999999995  0.36687  1.0000
  C   C23       1.0  0.73151  0.27771999999999997  0.45275  1.0000
  C   C24       1.0  0.96282  0.31863  0.48832  1.0000
  C   C25       1.0  0.6651  0.09390999999999997  0.15635  1.0000
  C   C26       1.0  0.8324999999999999  0.9760799999999998  0.11859  1.0000
  C   C27       1.0  0.91594  0.9459899999999999  0.21309999999999998  1.0000
  C   C28       1.0  0.8732699999999999  0.6324699999999998  0.9663799999999999  1.0000
  C   C29       1.0  0.84575  0.7876999999999998  0.9571000000000001  1.0000
  C   C30       1.0  0.64151  0.72611  0.85086  1.0000
  C   C31       1.0  0.65448  0.6717999999999998  0.78198  1.0000
  C   C32       1.0  0.57654  0.56474  0.75058  1.0000
  C   C33       1.0  0.58228  0.5166  0.68474  1.0000
  C   C34       1.0  0.67096  0.5720599999999999  0.65182  1.0000
  C   C35       1.0  0.75597  0.67625  0.68598  1.0000
  C   C36       1.0  0.74578  0.72801  0.75037  1.0000
  C   C37       1.0  0.48904000000000003  0.5003600000000001  0.78611  1.0000
  C   C38       1.0  0.8303599999999999  0.84225  0.78313  1.0000
  C   C39       1.0  0.67653  0.52163  0.58095  1.0000
  C   C40       1.0  0.49506999999999995  0.40287999999999996  0.65064  1.0000
  C   C41       1.0  0.58458  0.24252999999999994  0.59475  1.0000
  C   C42       1.0  0.76312  0.25369  0.67612  1.0000
  C   C43       1.0  0.8605299999999999  0.7323299999999998  0.65339  1.0000
  C   C44       1.0  0.87921  0.89883  0.60941  1.0000
  C   C45       1.0  0.6514899999999999  0.8915999999999997  0.57783  1.0000
  C   C46       1.0  0.6605499999999999  0.1536000000000001  0.8060400000000001  1.0000
  C   C47       1.0  0.51979  0.15610999999999994  0.76169  1.0000
  C   C48       1.0  0.43506  0.22581  0.78546  1.0000
  C   C49       1.0  0.30924  0.23413999999999993  0.74271  1.0000
  C   C50       1.0  0.26498999999999995  0.17178  0.6761  1.0000
  C   C51       1.0  0.34518  0.09693999999999998  0.65299  1.0000
  C   C52       1.0  0.47368  0.09177999999999997  0.69558  1.0000
  C   C53       1.0  0.13743000000000005  0.18852  0.62848  1.0000
  C   C54       1.0  0.29077  0.019970000000000005  0.58447  1.0000
  C   C55       1.0  0.1559799999999999  0.3781  0.8701599999999999  1.0000
  C   C56       1.0  0.9352799999999999  0.38839999999999997  0.83922  1.0000
  C   C57       1.0  0.9786200000000002  0.55138  0.79312  1.0000
  C   C58       1.0  0.10207999999999999  0.61941  0.77641  1.0000
  C   C59       1.0  0.14087  0.58318  0.71594  1.0000
  C   C60       1.0  0.24757  0.65255  0.69847  1.0000
  C   C61       1.0  0.31198  0.75808  0.73927  1.0000
  C   C62       1.0  0.2743  0.79158  0.80054  1.0000
  C   C63       1.0  0.17353999999999992  0.7212599999999998  0.8204999999999999  1.0000
  C   C64       1.0  0.07136999999999996  0.4716199999999999  0.67036  1.0000
  C   C65       1.0  0.14125999999999986  0.7543899999999998  0.8880099999999999  1.0000
  C   C66       1.0  0.4152699999999999  0.83562  0.7174  1.0000
  C   C67       1.0  0.28772  0.61357  0.63313  1.0000
  C   C68       1.0  0.26849  0.72228  0.54726  1.0000
  C   C69       1.0  0.037179999999999956  0.68137  0.51168  1.0000
  C   C70       1.0  0.3348999999999999  0.9060999999999998  0.84365  1.0000
  C   C71       1.0  0.1675  0.023920000000000028  0.88141  1.0000
  C   C72       1.0  0.08407000000000002  0.054009999999999954  0.7869  1.0000
  C   C73       1.0  0.12674  0.36753  0.03362  1.0000
  C   C74       1.0  0.15425  0.2123  0.0429  1.0000
  C   C75       1.0  0.35849  0.2738999999999999  0.14914  1.0000
  C   C76       1.0  0.34553  0.32819999999999994  0.21802  1.0000
  C   C77       1.0  0.42346  0.43527  0.24943  1.0000
  C   C78       1.0  0.4177199999999999  0.4834  0.31526  1.0000
  C   C79       1.0  0.32905  0.42794  0.34818  1.0000
  C   C80       1.0  0.24403  0.32375  0.31402  1.0000
  C   C81       1.0  0.25422  0.272  0.24963  1.0000
  C   C82       1.0  0.5109599999999997  0.4996399999999999  0.2139  1.0000
  C   C83       1.0  0.16963999999999999  0.15774999999999997  0.21687000000000003  1.0000
  C   C84       1.0  0.32347999999999993  0.4783799999999999  0.41905  1.0000
  C   C85       1.0  0.50493  0.59712  0.34936  1.0000
  C   C86       1.0  0.41542  0.75747  0.40526  1.0000
  C   C87       1.0  0.23689  0.74631  0.32388  1.0000
  C   C88       1.0  0.13947  0.26768  0.34661  1.0000
  C   C89       1.0  0.12079  0.10117  0.39059  1.0000
  C   C90       1.0  0.34851999999999994  0.10839999999999994  0.42217  1.0000
  N   N1        1.0  0.98333  0.6707099999999999  0.13219  1.0000
  N   N2        1.0  0.9769399999999999  0.5319  0.17497  1.0000
  N   N3        1.0  0.83451  0.53688  0.15527  1.0000
  N   N4        1.0  0.78864  0.34701  0.42088000000000003  1.0000
  N   N5        1.0  0.93719  0.37390999999999996  0.44289000000000006  1.0000
  N   N6        1.0  0.83936  0.25853  0.49610999999999994  1.0000
  N   N7        1.0  0.77247  0.027039999999999995  0.16508  1.0000
  N   N8        1.0  0.8249799999999998  0.009329999999999993  0.22597999999999996  1.0000
  N   N9        1.0  0.9242  0.92351  0.14749  1.0000
  N   N10       1.0  0.9235699999999998  0.7402599999999998  0.9971099999999999  1.0000
  N   N11       1.0  0.7526699999999998  0.7109099999999998  0.9052199999999999  1.0000
  N   N12       1.0  0.7694299999999998  0.6106099999999999  0.90999  1.0000
  N   N13       1.0  0.58996  0.32617  0.64636  1.0000
  N   N14       1.0  0.70356  0.3343999999999999  0.69923  1.0000
  N   N15       1.0  0.69418  0.19561  0.61186  1.0000
  N   N16       1.0  0.80301  0.81251  0.62265  1.0000
  N   N17       1.0  0.65631  0.80613  0.60239  1.0000
  N   N18       1.0  0.78563  0.94998  0.58083  1.0000
  N   N19       1.0  0.016669999999999963  0.3293  0.86781  1.0000
  N   N20       1.0  0.023060000000000046  0.46809999999999996  0.82503  1.0000
  N   N21       1.0  0.16549  0.4631199999999999  0.8447400000000002  1.0000
  N   N22       1.0  0.21135999999999988  0.6529899999999997  0.57912  1.0000
  N   N23       1.0  0.06281000000000002  0.6261  0.55711  1.0000
  N   N24       1.0  0.16065000000000002  0.74147  0.50389  1.0000
  N   N25       1.0  0.22754000000000005  0.97296  0.8349300000000001  1.0000
  N   N26       1.0  0.17502999999999996  0.9906699999999999  0.77402  1.0000
  N   N27       1.0  0.07581000000000003  0.07648999999999999  0.85251  1.0000
  N   N28       1.0  0.07643000000000001  0.25974  0.00289  1.0000
  N   N29       1.0  0.24733  0.28909  0.09478  1.0000
  N   N30       1.0  0.23056999999999997  0.38939999999999997  0.09001  1.0000
  N   N31       1.0  0.41004  0.67384  0.35364  1.0000
  N   N32       1.0  0.29645  0.6656  0.30077  1.0000
  N   N33       1.0  0.3058199999999999  0.8043899999999999  0.38814  1.0000
  N   N34       1.0  0.19699999999999995  0.18748999999999996  0.37735  1.0000
  N   N35       1.0  0.34369  0.19387  0.39761  1.0000
  N   N36       1.0  0.21437  0.05001999999999999  0.41918  1.0000
  Cl  Cl1       1.0  0.22147999999999995  0.9717299999999998  0.0476  1.0000
  Cl  Cl2       1.0  0.7785299999999998  0.028269999999999833  0.9524099999999999  1.0000
  O   O1        1.0  0.29924  0.77987  0.13524  1.0000
  O   O2        1.0  0.26413  0.91099  0.21557  1.0000
  O   O3        1.0  0.6182099999999999  0.009760000000000034  0.44770000000000004  1.0000
  O   O4        1.0  0.84737  0.01452000000000002  0.43843  1.0000
  O   O5        1.0  0.8392999999999998  0.7725799999999999  0.41878999999999994  1.0000
  O   O6        1.0  0.9867899999999998  0.83834  0.35859  1.0000
  O   O7        1.0  0.70076  0.22013999999999997  0.8647599999999999  1.0000
  O   O8        1.0  0.73587  0.08901000000000002  0.78443  1.0000
  O   O9        1.0  0.3818  0.9902399999999999  0.55231  1.0000
  O   O10       1.0  0.15263999999999994  0.9854799999999998  0.56157  1.0000
  O   O11       1.0  0.1607  0.22741999999999996  0.58122  1.0000
  O   O12       1.0  0.013219999999999987  0.16166  0.64142  1.0000
