data_image0
_chemical_formula_structural       Cd4H96C120N48
_chemical_formula_sum              "Cd4 H96 C120 N48"
_cell_length_a       16.89738
_cell_length_b       18.01433
_cell_length_c       16.83537
_cell_angle_alpha    90.0
_cell_angle_beta     90.0
_cell_angle_gamma    90.0

_symmetry_space_group_name_H-M    'P 1'
_symmetry_Int_Tables_number       1

loop_
  _symmetry_equiv_pos_as_xyz
  'x,y,z'

loop_
  _atom_site_type_symbol
  _atom_site_label
  _atom_site_symmetry_multiplicity
  _atom_site_fract_x
  _atom_site_fract_y
  _atom_site_fract_z
  _atom_site_occupancy
  Cd  Cd1       1.0  0.0  0.0  0.4999999999999999  1.0000
  Cd  Cd2       1.0  0.0  0.5  0.0  1.0000
  Cd  Cd3       1.0  0.5  0.0  0.0  1.0000
  Cd  Cd4       1.0  0.5  0.5  0.4999999999999999  1.0000
  H   H1        1.0  0.19909999999999994  0.7565399999999998  0.60232  1.0000
  H   H2        1.0  0.15555  0.87432  0.54507  1.0000
  H   H3        1.0  0.28589999999999993  0.9172699999999999  0.77038  1.0000
  H   H4        1.0  0.41771  0.7136799999999998  0.7294199999999997  1.0000
  H   H5        1.0  0.36414  0.9421  0.85948  1.0000
  H   H6        1.0  0.45541  0.6529  0.61844  1.0000
  H   H7        1.0  0.14877  0.9292999999999999  0.78952  1.0000
  H   H8        1.0  0.20799  0.63614  0.5774599999999998  1.0000
  H   H9        1.0  0.03252  0.008989999999999996  0.7085  1.0000
  H   H10       1.0  0.49345999999999995  0.742  0.82314  1.0000
  H   H11       1.0  0.56128  0.82294  0.9442199999999997  1.0000
  H   H12       1.0  0.28605  0.52159  0.50051  1.0000
  H   H13       1.0  0.8009  0.74346  0.10232  1.0000
  H   H14       1.0  0.84445  0.62568  0.04507  1.0000
  H   H15       1.0  0.7140999999999997  0.58272  0.27038  1.0000
  H   H16       1.0  0.5823  0.78631  0.22941999999999996  1.0000
  H   H17       1.0  0.6358699999999999  0.5579  0.35948  1.0000
  H   H18       1.0  0.54459  0.8470999999999999  0.11844  1.0000
  H   H19       1.0  0.8512299999999999  0.5707  0.28952  1.0000
  H   H20       1.0  0.79201  0.86386  0.07746  1.0000
  H   H21       1.0  0.9674899999999999  0.491  0.2085  1.0000
  H   H22       1.0  0.50655  0.75799  0.32314  1.0000
  H   H23       1.0  0.43872  0.6770599999999998  0.4442199999999999  1.0000
  H   H24       1.0  0.71395  0.97841  0.00051  1.0000
  H   H25       1.0  0.6991  0.24346  0.89768  1.0000
  H   H26       1.0  0.65555  0.12567999999999996  0.95493  1.0000
  H   H27       1.0  0.7859  0.08273  0.7296099999999998  1.0000
  H   H28       1.0  0.91771  0.28631  0.77058  1.0000
  H   H29       1.0  0.86414  0.0579  0.6405199999999998  1.0000
  H   H30       1.0  0.9554099999999999  0.3471  0.8815599999999998  1.0000
  H   H31       1.0  0.64877  0.0707  0.71048  1.0000
  H   H32       1.0  0.70799  0.36386  0.92254  1.0000
  H   H33       1.0  0.53252  0.9910099999999998  0.7914999999999998  1.0000
  H   H34       1.0  0.9934599999999998  0.25799  0.67686  1.0000
  H   H35       1.0  0.061279999999999994  0.17706  0.55578  1.0000
  H   H36       1.0  0.78605  0.47840999999999995  0.99949  1.0000
  H   H37       1.0  0.3009  0.25654  0.39768  1.0000
  H   H38       1.0  0.34445  0.37432  0.45493  1.0000
  H   H39       1.0  0.21409999999999996  0.41726999999999986  0.22962  1.0000
  H   H40       1.0  0.0823  0.21369  0.2705799999999999  1.0000
  H   H41       1.0  0.13587  0.4420999999999999  0.14052  1.0000
  H   H42       1.0  0.04459  0.1529  0.38156  1.0000
  H   H43       1.0  0.35123  0.4293  0.21048  1.0000
  H   H44       1.0  0.29201  0.13614  0.42253999999999997  1.0000
  H   H45       1.0  0.46749  0.50899  0.2915  1.0000
  H   H46       1.0  0.00654  0.242  0.17686  1.0000
  H   H47       1.0  0.9387199999999998  0.32294  0.05577999999999999  1.0000
  H   H48       1.0  0.21395  0.02159  0.49948999999999993  1.0000
  H   H49       1.0  0.8009  0.24346  0.39768  1.0000
  H   H50       1.0  0.84445  0.12567999999999996  0.45493  1.0000
  H   H51       1.0  0.7140999999999997  0.08273  0.22962  1.0000
  H   H52       1.0  0.5823  0.28631  0.2705799999999999  1.0000
  H   H53       1.0  0.6358699999999999  0.0579  0.14052  1.0000
  H   H54       1.0  0.54459  0.3471  0.38156  1.0000
  H   H55       1.0  0.8512299999999999  0.0707  0.21048  1.0000
  H   H56       1.0  0.79201  0.36386  0.42253999999999997  1.0000
  H   H57       1.0  0.9674899999999999  0.9910099999999998  0.2915  1.0000
  H   H58       1.0  0.50655  0.25799  0.17686  1.0000
  H   H59       1.0  0.43872  0.17706  0.05577999999999999  1.0000
  H   H60       1.0  0.71395  0.47840999999999995  0.49948999999999993  1.0000
  H   H61       1.0  0.19909999999999994  0.25654  0.89768  1.0000
  H   H62       1.0  0.15555  0.37432  0.95493  1.0000
  H   H63       1.0  0.28589999999999993  0.41726999999999986  0.7296099999999998  1.0000
  H   H64       1.0  0.41771  0.21369  0.77058  1.0000
  H   H65       1.0  0.36414  0.4420999999999999  0.6405199999999998  1.0000
  H   H66       1.0  0.45541  0.1529  0.8815599999999998  1.0000
  H   H67       1.0  0.14877  0.4293  0.71048  1.0000
  H   H68       1.0  0.20799  0.13614  0.92254  1.0000
  H   H69       1.0  0.03252  0.50899  0.7914999999999998  1.0000
  H   H70       1.0  0.49345999999999995  0.242  0.67686  1.0000
  H   H71       1.0  0.56128  0.32294  0.55578  1.0000
  H   H72       1.0  0.28605  0.02159  0.99949  1.0000
  H   H73       1.0  0.3009  0.7565399999999998  0.10232  1.0000
  H   H74       1.0  0.34445  0.87432  0.04507  1.0000
  H   H75       1.0  0.21409999999999996  0.9172699999999999  0.27038  1.0000
  H   H76       1.0  0.0823  0.7136799999999998  0.22941999999999996  1.0000
  H   H77       1.0  0.13587  0.9421  0.35948  1.0000
  H   H78       1.0  0.04459  0.6529  0.11844  1.0000
  H   H79       1.0  0.35123  0.9292999999999999  0.28952  1.0000
  H   H80       1.0  0.29201  0.63614  0.07746  1.0000
  H   H81       1.0  0.46749  0.008989999999999996  0.2085  1.0000
  H   H82       1.0  0.00654  0.742  0.32314  1.0000
  H   H83       1.0  0.9387199999999998  0.82294  0.4442199999999999  1.0000
  H   H84       1.0  0.21395  0.52159  0.00051  1.0000
  H   H85       1.0  0.6991  0.74346  0.60232  1.0000
  H   H86       1.0  0.65555  0.62568  0.54507  1.0000
  H   H87       1.0  0.7859  0.58272  0.77038  1.0000
  H   H88       1.0  0.91771  0.78631  0.7294199999999997  1.0000
  H   H89       1.0  0.86414  0.5579  0.85948  1.0000
  H   H90       1.0  0.9554099999999999  0.8470999999999999  0.61844  1.0000
  H   H91       1.0  0.64877  0.5707  0.78952  1.0000
  H   H92       1.0  0.70799  0.86386  0.5774599999999998  1.0000
  H   H93       1.0  0.53252  0.491  0.7085  1.0000
  H   H94       1.0  0.9934599999999998  0.75799  0.82314  1.0000
  H   H95       1.0  0.061279999999999994  0.6770599999999998  0.9442199999999997  1.0000
  H   H96       1.0  0.78605  0.97841  0.50051  1.0000
  C   C1        1.0  0.31371  0.72984  0.65818  1.0000
  C   C2        1.0  0.23724999999999996  0.8395  0.68695  1.0000
  C   C3        1.0  0.24461  0.77362  0.64392  1.0000
  C   C4        1.0  0.13597999999999993  0.90004  0.59984  1.0000
  C   C5        1.0  0.35802  0.8156699999999999  0.76024  1.0000
  C   C6        1.0  0.29225  0.8630799999999998  0.7433199999999998  1.0000
  C   C7        1.0  0.3681999999999999  0.75026  0.7167  1.0000
  C   C8        1.0  0.4076499999999999  0.8987799999999999  0.8668099999999997  1.0000
  C   C9        1.0  0.39926  0.6312199999999998  0.59812  1.0000
  C   C10       1.0  0.1323  0.93071  0.7275099999999998  1.0000
  C   C11       1.0  0.27015  0.62292  0.5737299999999997  1.0000
  C   C12       1.0  0.07523  0.9691799999999999  0.6864899999999998  1.0000
  C   C13       1.0  0.47663  0.79477  0.84824  1.0000
  C   C14       1.0  0.50969  0.8356  0.9086  1.0000
  C   C15       1.0  0.3099  0.56545  0.53731  1.0000
  C   C16       1.0  0.68629  0.77016  0.15818  1.0000
  C   C17       1.0  0.76275  0.66049  0.18694999999999995  1.0000
  C   C18       1.0  0.7554  0.72638  0.14392  1.0000
  C   C19       1.0  0.86402  0.59996  0.09984  1.0000
  C   C20       1.0  0.64198  0.68433  0.26023999999999997  1.0000
  C   C21       1.0  0.70775  0.63692  0.24332  1.0000
  C   C22       1.0  0.6317999999999998  0.7497399999999997  0.21669999999999995  1.0000
  C   C23       1.0  0.5923599999999998  0.60122  0.3668099999999999  1.0000
  C   C24       1.0  0.60074  0.86878  0.09812  1.0000
  C   C25       1.0  0.8676999999999999  0.56929  0.22752  1.0000
  C   C26       1.0  0.7298499999999998  0.87707  0.07372999999999999  1.0000
  C   C27       1.0  0.92478  0.53082  0.18649  1.0000
  C   C28       1.0  0.5233799999999997  0.7052299999999998  0.34824  1.0000
  C   C29       1.0  0.49030999999999997  0.6644  0.4086  1.0000
  C   C30       1.0  0.69011  0.93455  0.03731  1.0000
  C   C31       1.0  0.8137099999999998  0.27016  0.8418199999999999  1.0000
  C   C32       1.0  0.7372499999999997  0.1605  0.8130499999999998  1.0000
  C   C33       1.0  0.7446099999999998  0.22637999999999997  0.8560799999999997  1.0000
  C   C34       1.0  0.6359799999999998  0.09995999999999997  0.9001599999999997  1.0000
  C   C35       1.0  0.8580199999999998  0.18433  0.7397599999999998  1.0000
  C   C36       1.0  0.7922499999999998  0.13692  0.75668  1.0000
  C   C37       1.0  0.86821  0.24973999999999996  0.7833  1.0000
  C   C38       1.0  0.90765  0.10122  0.63319  1.0000
  C   C39       1.0  0.8992599999999997  0.36878  0.9018799999999998  1.0000
  C   C40       1.0  0.6323  0.06928999999999999  0.77248  1.0000
  C   C41       1.0  0.7701599999999997  0.37707  0.92627  1.0000
  C   C42       1.0  0.5752299999999998  0.03082  0.81351  1.0000
  C   C43       1.0  0.9766299999999999  0.20523  0.65176  1.0000
  C   C44       1.0  0.00969  0.1644  0.5914  1.0000
  C   C45       1.0  0.8099  0.43455  0.96269  1.0000
  C   C46       1.0  0.18629  0.22984  0.34181999999999996  1.0000
  C   C47       1.0  0.26275  0.33949999999999997  0.31305  1.0000
  C   C48       1.0  0.2554  0.27362  0.3560799999999999  1.0000
  C   C49       1.0  0.3640199999999999  0.40004  0.4001599999999999  1.0000
  C   C50       1.0  0.14198  0.3156699999999999  0.23975999999999997  1.0000
  C   C51       1.0  0.20774999999999993  0.3630799999999999  0.25668  1.0000
  C   C52       1.0  0.1318  0.25026  0.2833  1.0000
  C   C53       1.0  0.09234999999999997  0.39877999999999997  0.13319  1.0000
  C   C54       1.0  0.10074  0.13122  0.4018799999999999  1.0000
  C   C55       1.0  0.3676999999999999  0.43070999999999987  0.27248  1.0000
  C   C56       1.0  0.22985  0.12292999999999998  0.42626999999999987  1.0000
  C   C57       1.0  0.42477  0.46917999999999993  0.31351  1.0000
  C   C58       1.0  0.02336999999999999  0.29477  0.15176  1.0000
  C   C59       1.0  0.9903099999999999  0.3356  0.0914  1.0000
  C   C60       1.0  0.19011  0.06545  0.46269  1.0000
  C   C61       1.0  0.68629  0.27016  0.34181999999999996  1.0000
  C   C62       1.0  0.76275  0.1605  0.31305  1.0000
  C   C63       1.0  0.7554  0.22637999999999997  0.3560799999999999  1.0000
  C   C64       1.0  0.86402  0.09995999999999997  0.4001599999999999  1.0000
  C   C65       1.0  0.64198  0.18433  0.23975999999999997  1.0000
  C   C66       1.0  0.70775  0.13692  0.25668  1.0000
  C   C67       1.0  0.6317999999999998  0.24973999999999996  0.2833  1.0000
  C   C68       1.0  0.5923599999999998  0.10122  0.13319  1.0000
  C   C69       1.0  0.60074  0.36878  0.4018799999999999  1.0000
  C   C70       1.0  0.8676999999999999  0.06928999999999999  0.27248  1.0000
  C   C71       1.0  0.7298499999999998  0.37707  0.42626999999999987  1.0000
  C   C72       1.0  0.92478  0.03082  0.31351  1.0000
  C   C73       1.0  0.5233799999999997  0.20523  0.15176  1.0000
  C   C74       1.0  0.49030999999999997  0.1644  0.0914  1.0000
  C   C75       1.0  0.69011  0.43455  0.46269  1.0000
  C   C76       1.0  0.31371  0.22984  0.8418199999999999  1.0000
  C   C77       1.0  0.23724999999999996  0.33949999999999997  0.8130499999999998  1.0000
  C   C78       1.0  0.24461  0.27362  0.8560799999999997  1.0000
  C   C79       1.0  0.13597999999999993  0.40004  0.9001599999999997  1.0000
  C   C80       1.0  0.35802  0.3156699999999999  0.7397599999999998  1.0000
  C   C81       1.0  0.29225  0.3630799999999999  0.75668  1.0000
  C   C82       1.0  0.3681999999999999  0.25026  0.7833  1.0000
  C   C83       1.0  0.4076499999999999  0.39877999999999997  0.63319  1.0000
  C   C84       1.0  0.39926  0.13122  0.9018799999999998  1.0000
  C   C85       1.0  0.1323  0.43070999999999987  0.77248  1.0000
  C   C86       1.0  0.27015  0.12292999999999998  0.92627  1.0000
  C   C87       1.0  0.07523  0.46917999999999993  0.81351  1.0000
  C   C88       1.0  0.47663  0.29477  0.65176  1.0000
  C   C89       1.0  0.50969  0.3356  0.5914  1.0000
  C   C90       1.0  0.3099  0.06545  0.96269  1.0000
  C   C91       1.0  0.18629  0.72984  0.15818  1.0000
  C   C92       1.0  0.26275  0.8395  0.18694999999999995  1.0000
  C   C93       1.0  0.2554  0.77362  0.14392  1.0000
  C   C94       1.0  0.3640199999999999  0.90004  0.09984  1.0000
  C   C95       1.0  0.14198  0.8156699999999999  0.26023999999999997  1.0000
  C   C96       1.0  0.20774999999999993  0.8630799999999998  0.24332  1.0000
  C   C97       1.0  0.1318  0.75026  0.21669999999999995  1.0000
  C   C98       1.0  0.09234999999999997  0.8987799999999999  0.3668099999999999  1.0000
  C   C99       1.0  0.10074  0.6312199999999998  0.09812  1.0000
  C   C100      1.0  0.3676999999999999  0.93071  0.22752  1.0000
  C   C101      1.0  0.22985  0.62292  0.07372999999999999  1.0000
  C   C102      1.0  0.42477  0.9691799999999999  0.18649  1.0000
  C   C103      1.0  0.02336999999999999  0.79477  0.34824  1.0000
  C   C104      1.0  0.9903099999999999  0.8356  0.4086  1.0000
  C   C105      1.0  0.19011  0.56545  0.03731  1.0000
  C   C106      1.0  0.8137099999999998  0.77016  0.65818  1.0000
  C   C107      1.0  0.7372499999999997  0.66049  0.68695  1.0000
  C   C108      1.0  0.7446099999999998  0.72638  0.64392  1.0000
  C   C109      1.0  0.6359799999999998  0.59996  0.59984  1.0000
  C   C110      1.0  0.8580199999999998  0.68433  0.76024  1.0000
  C   C111      1.0  0.7922499999999998  0.63692  0.7433199999999998  1.0000
  C   C112      1.0  0.86821  0.7497399999999997  0.7167  1.0000
  C   C113      1.0  0.90765  0.60122  0.8668099999999997  1.0000
  C   C114      1.0  0.8992599999999997  0.86878  0.59812  1.0000
  C   C115      1.0  0.6323  0.56929  0.7275099999999998  1.0000
  C   C116      1.0  0.7701599999999997  0.87707  0.5737299999999997  1.0000
  C   C117      1.0  0.5752299999999998  0.53082  0.6864899999999998  1.0000
  C   C118      1.0  0.9766299999999999  0.7052299999999998  0.84824  1.0000
  C   C119      1.0  0.00969  0.6644  0.9086  1.0000
  C   C120      1.0  0.8099  0.93455  0.53731  1.0000
  N   N1        1.0  0.3274299999999999  0.66497  0.61317  1.0000
  N   N2        1.0  0.41094999999999987  0.8350199999999998  0.8210899999999998  1.0000
  N   N3        1.0  0.17084  0.88661  0.67187  1.0000
  N   N4        1.0  0.07803  0.9496599999999998  0.6071  1.0000
  N   N5        1.0  0.4668699999999999  0.89965  0.92022  1.0000
  N   N6        1.0  0.38973  0.57072  0.55288  1.0000
  N   N7        1.0  0.67258  0.8350299999999999  0.11317  1.0000
  N   N8        1.0  0.5890499999999999  0.66498  0.32109  1.0000
  N   N9        1.0  0.8291599999999998  0.6133899999999998  0.17187  1.0000
  N   N10       1.0  0.9219699999999998  0.55034  0.1071  1.0000
  N   N11       1.0  0.5331299999999999  0.60034  0.42021999999999987  1.0000
  N   N12       1.0  0.61027  0.9292799999999999  0.05288  1.0000
  N   N13       1.0  0.8274299999999999  0.33502999999999994  0.8868299999999998  1.0000
  N   N14       1.0  0.91095  0.16497999999999996  0.67891  1.0000
  N   N15       1.0  0.67084  0.11338999999999999  0.82813  1.0000
  N   N16       1.0  0.57804  0.05033999999999999  0.8929  1.0000
  N   N17       1.0  0.9668699999999999  0.10034  0.5797799999999999  1.0000
  N   N18       1.0  0.88973  0.4292799999999999  0.94712  1.0000
  N   N19       1.0  0.17257999999999996  0.16496999999999998  0.38683  1.0000
  N   N20       1.0  0.08904999999999998  0.33502  0.17890999999999999  1.0000
  N   N21       1.0  0.32916  0.38661  0.32813  1.0000
  N   N22       1.0  0.4219699999999999  0.44965999999999995  0.3929  1.0000
  N   N23       1.0  0.03313  0.39966  0.07978  1.0000
  N   N24       1.0  0.11027  0.07072  0.44712  1.0000
  N   N25       1.0  0.67258  0.33502999999999994  0.38683  1.0000
  N   N26       1.0  0.5890499999999999  0.16497999999999996  0.17890999999999999  1.0000
  N   N27       1.0  0.8291599999999998  0.11338999999999999  0.32813  1.0000
  N   N28       1.0  0.9219699999999998  0.05033999999999999  0.3929  1.0000
  N   N29       1.0  0.5331299999999999  0.10034  0.07978  1.0000
  N   N30       1.0  0.61027  0.4292799999999999  0.44712  1.0000
  N   N31       1.0  0.3274299999999999  0.16496999999999998  0.8868299999999998  1.0000
  N   N32       1.0  0.41094999999999987  0.33502  0.67891  1.0000
  N   N33       1.0  0.17084  0.38661  0.82813  1.0000
  N   N34       1.0  0.07803  0.44965999999999995  0.8929  1.0000
  N   N35       1.0  0.4668699999999999  0.39966  0.5797799999999999  1.0000
  N   N36       1.0  0.38973  0.07072  0.94712  1.0000
  N   N37       1.0  0.17257999999999996  0.66497  0.11317  1.0000
  N   N38       1.0  0.08904999999999998  0.8350199999999998  0.32109  1.0000
  N   N39       1.0  0.32916  0.88661  0.17187  1.0000
  N   N40       1.0  0.4219699999999999  0.9496599999999998  0.1071  1.0000
  N   N41       1.0  0.03313  0.89965  0.42021999999999987  1.0000
  N   N42       1.0  0.11027  0.57072  0.05288  1.0000
  N   N43       1.0  0.8274299999999999  0.8350299999999999  0.61317  1.0000
  N   N44       1.0  0.91095  0.66498  0.8210899999999998  1.0000
  N   N45       1.0  0.67084  0.6133899999999998  0.67187  1.0000
  N   N46       1.0  0.57804  0.55034  0.6071  1.0000
  N   N47       1.0  0.9668699999999999  0.60034  0.92022  1.0000
  N   N48       1.0  0.88973  0.9292799999999999  0.55288  1.0000
