data_image0
_chemical_formula_structural       Co8H112C176N24O20
_chemical_formula_sum              "Co8 H112 C176 N24 O20"
_cell_length_a       20.90352
_cell_length_b       21.22933
_cell_length_c       30.37036
_cell_angle_alpha    110.49352
_cell_angle_beta     110.2253
_cell_angle_gamma    89.51637

_symmetry_space_group_name_H-M    'P 1'
_symmetry_Int_Tables_number       1

loop_
  _symmetry_equiv_pos_as_xyz
  'x,y,z'

loop_
  _atom_site_type_symbol
  _atom_site_label
  _atom_site_symmetry_multiplicity
  _atom_site_fract_x
  _atom_site_fract_y
  _atom_site_fract_z
  _atom_site_occupancy
  Co  Co1       1.0  0.06365000000000005  0.3667400000000001  0.77599  1.0000
  Co  Co2       1.0  0.9254399999999999  0.63337  0.22204  1.0000
  Co  Co3       1.0  0.7992200000000002  0.5889299999999998  0.22196  1.0000
  Co  Co4       1.0  0.63199  0.78887  0.72311  1.0000
  Co  Co5       1.0  0.59269  0.9355399999999999  0.72363  1.0000
  Co  Co6       1.0  0.21239000000000008  0.41058  0.7781  1.0000
  Co  Co7       1.0  0.36718  0.2105  0.27536  1.0000
  Co  Co8       1.0  0.40735  0.06266  0.27349  1.0000
  H   H1        1.0  0.47313  0.9334999999999999  0.23938000000000004  1.0000
  H   H2        1.0  0.7499600000000002  0.6674900000000001  0.9923800000000002  1.0000
  H   H3        1.0  0.14331  0.7572899999999999  0.22239  1.0000
  H   H4        1.0  0.07789000000000001  0.62655  0.05316  1.0000
  H   H5        1.0  0.23126000000000002  0.7675  0.06058  1.0000
  H   H6        1.0  0.009369999999999986  0.36478  0.92704  1.0000
  H   H7        1.0  0.71119  0.7665200000000001  0.43753  1.0000
  H   H8        1.0  0.3720600000000001  0.52585  0.44891  1.0000
  H   H9        1.0  0.66267  0.7531900000000002  0.57286  1.0000
  H   H10       1.0  0.22798000000000002  0.6709100000000002  0.43803000000000003  1.0000
  H   H11       1.0  0.18379000000000006  0.36291  0.66368  1.0000
  H   H12       1.0  0.3218700000000001  0.32304  0.78313  1.0000
  H   H13       1.0  0.22813  0.28337  0.6022  1.0000
  H   H14       1.0  0.62364  0.74949  0.27191  1.0000
  H   H15       1.0  0.3535400000000001  0.03425000000000001  0.38567  1.0000
  H   H16       1.0  0.41961000000000004  0.07432  0.54795  1.0000
  H   H17       1.0  0.38496  0.57103  0.52913  1.0000
  H   H18       1.0  0.47692  0.42659  0.053939999999999995  1.0000
  H   H19       1.0  0.15112  0.52345  0.27328  1.0000
  H   H20       1.0  0.58185  0.46458999999999995  0.22356  1.0000
  H   H21       1.0  0.23916  0.85581  0.2265  1.0000
  H   H22       1.0  0.9240200000000001  0.60928  0.1222  1.0000
  H   H23       1.0  0.73003  0.69332  0.7571  1.0000
  H   H24       1.0  0.41142  0.8196199999999999  0.57116  1.0000
  H   H25       1.0  0.34142  0.25542  0.51017  1.0000
  H   H26       1.0  0.52766  0.06518  0.75767  1.0000
  H   H27       1.0  0.35789  0.3601999999999999  0.89025  1.0000
  H   H28       1.0  0.6461200000000001  0.95789  0.52812  1.0000
  H   H29       1.0  0.71777  0.12511000000000005  0.89894  1.0000
  H   H30       1.0  0.76241  0.57989  0.71699  1.0000
  H   H31       1.0  0.57223  0.64778  0.02997  1.0000
  H   H32       1.0  0.8359300000000001  0.65732  0.33859  1.0000
  H   H33       1.0  0.6405  0.019600000000000062  0.83771  1.0000
  H   H34       1.0  0.06805  0.72515  0.26185  1.0000
  H   H35       1.0  0.76614  0.32625  0.56127  1.0000
  H   H36       1.0  0.4347  0.36125  0.9741  1.0000
  H   H37       1.0  0.07723999999999998  0.39016999999999996  0.88107  1.0000
  H   H38       1.0  0.6596  0.74381  0.4878700000000001  1.0000
  H   H39       1.0  0.41980000000000006  0.56247  0.92725  1.0000
  H   H40       1.0  0.3715  0.2392  0.72585  1.0000
  H   H41       1.0  0.03277999999999998  0.52988  0.88918  1.0000
  H   H42       1.0  0.32902  0.74335  0.48696  1.0000
  H   H43       1.0  0.53031  0.35144000000000003  0.38565  1.0000
  H   H44       1.0  0.95889  0.38261  0.03012  1.0000
  H   H45       1.0  0.67474  0.71116  0.93907  1.0000
  H   H46       1.0  0.58569  0.44213  0.07772  1.0000
  H   H47       1.0  0.64863  0.64629  0.11297  1.0000
  H   H48       1.0  0.11081999999999997  0.66229  0.40052  1.0000
  H   H49       1.0  0.04282000000000001  0.5498  0.21688000000000002  1.0000
  H   H50       1.0  0.3651  0.4156  0.42519  1.0000
  H   H51       1.0  0.30599  0.49164  0.88232  1.0000
  H   H52       1.0  0.66798  0.25571  0.51101  1.0000
  H   H53       1.0  0.33791  0.24649  0.42516  1.0000
  H   H54       1.0  0.51335  0.63189  0.77466  1.0000
  H   H55       1.0  0.7648300000000001  0.22983  0.93995  1.0000
  H   H56       1.0  0.67625  0.66692  0.21608  1.0000
  H   H57       1.0  0.52931  0.5828299999999998  0.95179  1.0000
  H   H58       1.0  0.61365  0.4283799999999999  0.46873  1.0000
  H   H59       1.0  0.99224  0.63575  0.07715  1.0000
  H   H60       1.0  0.75368  0.40842  0.07871  1.0000
  H   H61       1.0  0.45447  0.13817  0.71732  1.0000
  H   H62       1.0  0.24579999999999988  0.58777  0.92541  1.0000
  H   H63       1.0  0.87365  0.32044  0.60083  1.0000
  H   H64       1.0  0.35699  0.9766399999999998  0.15945000000000004  1.0000
  H   H65       1.0  0.62703  0.4749  0.54805  1.0000
  H   H66       1.0  0.6801699999999999  0.03770999999999994  0.7182299999999999  1.0000
  H   H67       1.0  0.55729  0.006339999999999975  0.42379  1.0000
  H   H68       1.0  0.23489000000000002  0.41959  0.28095  1.0000
  H   H69       1.0  0.63352  0.58421  0.57253  1.0000
  H   H70       1.0  0.3084  0.47378  0.74284  1.0000
  H   H71       1.0  0.96614  0.46664  0.1134  1.0000
  H   H72       1.0  0.69903  0.5129900000000001  0.122  1.0000
  H   H73       1.0  0.3532000000000001  0.04107000000000001  0.46896  1.0000
  H   H74       1.0  0.53846  0.68174  0.71749  1.0000
  H   H75       1.0  0.0026000000000000007  0.67944  0.33873  1.0000
  H   H76       1.0  0.64608  0.9650900000000001  0.61171  1.0000
  H   H77       1.0  0.32317  0.23013  0.10157  1.0000
  H   H78       1.0  0.25488  0.66894  0.010360000000000001  1.0000
  H   H79       1.0  0.78864  0.73587  0.39978  1.0000
  H   H80       1.0  0.30344  0.18366  0.16085  1.0000
  H   H81       1.0  0.7617100000000001  0.14456000000000005  0.7752400000000002  1.0000
  H   H82       1.0  0.32145  0.96272  0.28156  1.0000
  H   H83       1.0  0.44135  0.99126  0.57315  1.0000
  H   H84       1.0  0.46086  0.31824  0.28307  1.0000
  H   H85       1.0  0.039790000000000006  0.61248  0.97293  1.0000
  H   H86       1.0  0.95934  0.45892  0.78215  1.0000
  H   H87       1.0  0.57784  0.9221800000000001  0.44844  1.0000
  H   H88       1.0  0.68059  0.7740400000000002  0.8982600000000001  1.0000
  H   H89       1.0  0.46868  0.64802  0.61192  1.0000
  H   H90       1.0  0.33151  0.29338  0.06228  1.0000
  H   H91       1.0  0.18120999999999998  0.33703  0.92628  1.0000
  H   H92       1.0  0.93406  0.26927  0.74245  1.0000
  H   H93       1.0  0.42200000000000004  0.54593  0.78211  1.0000
  H   H94       1.0  0.92304  0.36993  0.95175  1.0000
  H   H95       1.0  0.54591  0.86026  0.27968  1.0000
  H   H96       1.0  0.58663  0.17959  0.42621  1.0000
  H   H97       1.0  0.48912  0.37024999999999997  0.22815  1.0000
  H   H98       1.0  0.26763  0.30637  0.24064  1.0000
  H   H99       1.0  0.48696  0.07465  0.37797  1.0000
  H   H100      1.0  0.82556  0.67008  0.07703000000000002  1.0000
  H   H101      1.0  0.8612200000000001  0.23635000000000012  0.7828300000000001  1.0000
  H   H102      1.0  0.69733  0.81847  0.83695  1.0000
  H   H103      1.0  0.27887  0.87092  0.1001  1.0000
  H   H104      1.0  0.69618  0.536  0.26219  1.0000
  H   H105      1.0  0.51274  0.9235000000000001  0.61895  1.0000
  H   H106      1.0  0.25701  0.34192  0.01184  1.0000
  H   H107      1.0  0.60849  0.69794  0.61825  1.0000
  H   H108      1.0  0.74354  0.32710000000000006  0.9935300000000001  1.0000
  H   H109      1.0  0.9791700000000001  0.30157  0.66226  1.0000
  H   H110      1.0  0.29194  0.23468  0.56102  1.0000
  H   H111      1.0  0.3900600000000001  0.30184  0.37928  1.0000
  H   H112      1.0  0.8527000000000001  0.48610000000000003  0.7248100000000001  1.0000
  C   C1        1.0  0.72724  0.66398  0.01886  1.0000
  C   C2        1.0  0.55512  0.67256  0.78937  1.0000
  C   C3        1.0  0.34811  0.14900000000000005  0.49603  1.0000
  C   C4        1.0  0.8652300000000002  0.49894  0.14951  1.0000
  C   C5        1.0  0.42493  0.33692  0.12813  1.0000
  C   C6        1.0  0.8601699999999999  0.44358000000000003  0.10087  1.0000
  C   C7        1.0  0.8502200000000001  0.34975  0.0049  1.0000
  C   C8        1.0  0.79858  0.24591999999999992  0.92446  1.0000
  C   C9        1.0  0.37928000000000006  0.35708  0.96435  1.0000
  C   C10       1.0  0.49943  0.78412  0.6461  1.0000
  C   C11       1.0  0.88817  0.3228600000000001  0.9316  1.0000
  C   C12       1.0  0.33058000000000004  0.26659  0.71105  1.0000
  C   C13       1.0  0.7903000000000001  0.42187  0.62486  1.0000
  C   C14       1.0  0.60743  0.46214  0.11878  1.0000
  C   C15       1.0  0.34144  0.20193  0.43535  1.0000
  C   C16       1.0  0.72774  0.60436  0.69399  1.0000
  C   C17       1.0  0.66993  0.72891  0.2879  1.0000
  C   C18       1.0  0.34253  0.3939600000000001  0.38414000000000004  1.0000
  C   C19       1.0  0.33667  0.35563  0.91717  1.0000
  C   C20       1.0  0.20362999999999998  0.7901300000000001  0.12663  1.0000
  C   C21       1.0  0.34641  0.13989000000000001  0.40031000000000005  1.0000
  C   C22       1.0  0.6479300000000001  0.7510200000000001  0.8585600000000001  1.0000
  C   C23       1.0  0.7006800000000001  0.7486800000000001  0.34056000000000003  1.0000
  C   C24       1.0  0.38  0.32624  0.07876  1.0000
  C   C25       1.0  0.27952  0.34439  0.98499  1.0000
  C   C26       1.0  0.59519  0.6976900000000001  0.84129  1.0000
  C   C27       1.0  0.33426  0.20435  0.62552  1.0000
  C   C28       1.0  0.25141  0.2905  0.64194  1.0000
  C   C29       1.0  0.65805  0.79279  0.5152  1.0000
  C   C30       1.0  0.76992  0.66489  0.06609  1.0000
  C   C31       1.0  0.11223  0.67395  0.07243  1.0000
  C   C32       1.0  0.35157000000000005  0.35242000000000007  0.9994600000000001  1.0000
  C   C33       1.0  0.32334999999999997  0.20074000000000003  0.57633  1.0000
  C   C34       1.0  0.20502  0.57574  0.37432  1.0000
  C   C35       1.0  0.281  0.49643000000000004  0.38097  1.0000
  C   C36       1.0  0.9898299999999999  0.34258999999999995  0.8859699999999999  1.0000
  C   C37       1.0  0.67126  0.50123  0.14302  1.0000
  C   C38       1.0  0.79295  0.35648  0.01986  1.0000
  C   C39       1.0  0.44221000000000005  0.07198000000000009  0.6417  1.0000
  C   C40       1.0  0.5333  0.9072  0.30254  1.0000
  C   C41       1.0  0.85314  0.40521  0.65803  1.0000
  C   C42       1.0  0.71031  0.66763  0.71624  1.0000
  C   C43       1.0  0.73485  0.11854000000000003  0.79011  1.0000
  C   C44       1.0  0.012020000000000012  0.65645  0.11823  1.0000
  C   C45       1.0  0.71643  0.5027600000000001  0.6170400000000001  1.0000
  C   C46       1.0  0.46683  0.09109000000000002  0.69448  1.0000
  C   C47       1.0  0.50012  0.60129  0.88227  1.0000
  C   C48       1.0  0.35502  0.25229  0.1415  1.0000
  C   C49       1.0  0.39776000000000006  0.35846  0.05056  1.0000
  C   C50       1.0  0.28757  0.33202  0.28149  1.0000
  C   C51       1.0  0.65196  0.8501  0.50152  1.0000
  C   C52       1.0  0.64645  0.84584  0.45068  1.0000
  C   C53       1.0  0.57286  0.4476  0.14709  1.0000
  C   C54       1.0  0.69883  0.68348  0.257  1.0000
  C   C55       1.0  0.53963  0.98751  0.38276  1.0000
  C   C56       1.0  0.23689000000000002  0.34242999999999996  0.93749  1.0000
  C   C57       1.0  0.9729  0.64166  0.14288  1.0000
  C   C58       1.0  0.64921  0.86462  0.64701  1.0000
  C   C59       1.0  0.6084099999999999  0.64907  0.95316  1.0000
  C   C60       1.0  0.3339200000000001  0.50429  0.86168  1.0000
  C   C61       1.0  0.84547  0.3054  0.95364  1.0000
  C   C62       1.0  0.65515  0.65581  0.00432  1.0000
  C   C63       1.0  0.35391  0.15327000000000005  0.54692  1.0000
  C   C64       1.0  0.09845  0.63656  0.36013000000000006  1.0000
  C   C65       1.0  0.50038  0.02640000000000001  0.35779  1.0000
  C   C66       1.0  0.22635000000000002  0.33549  0.67611  1.0000
  C   C67       1.0  0.50474  0.40601  0.12259  1.0000
  C   C68       1.0  0.12003000000000001  0.55927  0.28897  1.0000
  C   C69       1.0  0.67005  0.65136  0.0863  1.0000
  C   C70       1.0  0.20571999999999993  0.63955  0.98361  1.0000
  C   C71       1.0  0.7612400000000002  0.7216800000000001  0.35935  1.0000
  C   C72       1.0  0.64943  0.91715  0.58426  1.0000
  C   C73       1.0  0.91322  0.38899  0.0399  1.0000
  C   C74       1.0  0.25232  0.8530900000000001  0.1586  1.0000
  C   C75       1.0  0.39801  0.5345500000000001  0.8054700000000001  1.0000
  C   C76       1.0  0.35155  0.65135  0.50159  1.0000
  C   C77       1.0  0.75096  0.37603  0.57625  1.0000
  C   C78       1.0  0.6690500000000001  0.797  0.37318  1.0000
  C   C79       1.0  0.66741  0.049579999999999916  0.82526  1.0000
  C   C80       1.0  0.5069  0.05025000000000002  0.71681  1.0000
  C   C81       1.0  0.92765  0.29868  0.85854  1.0000
  C   C82       1.0  0.40816  0.30577  0.16016  1.0000
  C   C83       1.0  0.31070000000000003  0.93974  0.24121  1.0000
  C   C84       1.0  0.34332  0.22589  0.1744  1.0000
  C   C85       1.0  0.2649599999999999  0.3489  0.9032600000000001  1.0000
  C   C86       1.0  0.60631  0.47437  0.19990000000000002  1.0000
  C   C87       1.0  0.5573400000000001  0.92607  0.3553200000000001  1.0000
  C   C88       1.0  0.30577  0.60452  0.45122  1.0000
  C   C89       1.0  0.67434  0.45947  0.56839  1.0000
  C   C90       1.0  0.56119  0.33128  0.41339  1.0000
  C   C91       1.0  0.94886  0.34113  0.67477  1.0000
  C   C92       1.0  0.9493900000000002  0.2887500000000001  0.7833300000000001  1.0000
  C   C93       1.0  0.4992900000000001  0.9717199999999999  0.6391700000000001  1.0000
  C   C94       1.0  0.053020000000000005  0.70701  0.22101  1.0000
  C   C95       1.0  0.35854  0.72211  0.51447  1.0000
  C   C96       1.0  0.24438000000000001  0.6218399999999998  0.4228  1.0000
  C   C97       1.0  0.78581  0.65066  0.14872  1.0000
  C   C98       1.0  0.6790600000000002  0.79995  0.42206  1.0000
  C   C99       1.0  0.4006800000000001  0.11591000000000004  0.6175400000000001  1.0000
  C   C100      1.0  0.39777  0.54359  0.8861900000000001  1.0000
  C   C101      1.0  0.6276  0.65116  0.03953  1.0000
  C   C102      1.0  0.3236  0.54026  0.42926  1.0000
  C   C103      1.0  0.11833  0.7158  0.12145  1.0000
  C   C104      1.0  0.4999100000000001  0.21539  0.3516  1.0000
  C   C105      1.0  0.90849  0.27103  0.80573  1.0000
  C   C106      1.0  0.14090999999999998  0.59149  0.3416  1.0000
  C   C107      1.0  0.28674  0.8882800000000001  0.14002  1.0000
  C   C108      1.0  0.30498  0.25429  0.65905  1.0000
  C   C109      1.0  0.59932  0.88263  0.37975  1.0000
  C   C110      1.0  0.65902  0.7976  0.56247  1.0000
  C   C111      1.0  0.2010800000000001  0.59366  0.93633  1.0000
  C   C112      1.0  0.91796  0.43532000000000004  0.08682  1.0000
  C   C113      1.0  0.34251  0.20649000000000003  0.4825900000000001  1.0000
  C   C114      1.0  0.93776  0.42943  0.74179  1.0000
  C   C115      1.0  0.43758  0.6682799999999999  0.58432  1.0000
  C   C116      1.0  0.06037999999999998  0.5736300000000001  0.2578  1.0000
  C   C117      1.0  0.075  0.6988  0.14622  1.0000
  C   C118      1.0  0.68986  0.05979000000000001  0.75847  1.0000
  C   C119      1.0  0.63895  0.27709  0.48346  1.0000
  C   C120      1.0  0.35691  0.33029  0.35911  1.0000
  C   C121      1.0  0.26538  0.88095  0.21072  1.0000
  C   C122      1.0  0.29814  0.42845  0.35663  1.0000
  C   C123      1.0  0.21964  0.35217  0.8533  1.0000
  C   C124      1.0  0.1482  0.64626  0.99817  1.0000
  C   C125      1.0  0.64871  0.91255  0.53728  1.0000
  C   C126      1.0  0.40496  0.76502  0.56131  1.0000
  C   C127      1.0  0.88333  0.28166  0.88274  1.0000
  C   C128      1.0  0.74666  0.1451  0.84208  1.0000
  C   C129      1.0  0.49346999999999996  0.9482099999999999  0.28022  1.0000
  C   C130      1.0  0.35039  0.08221999999999997  0.41317  1.0000
  C   C131      1.0  0.08100000000000013  0.5608900000000001  0.9160700000000002  1.0000
  C   C132      1.0  0.7110900000000001  0.10876000000000001  0.85927  1.0000
  C   C133      1.0  0.43156  0.30132  0.24272  1.0000
  C   C134      1.0  0.64147  0.66948  0.63851  1.0000
  C   C135      1.0  0.46182999999999996  0.39878  0.07352  1.0000
  C   C136      1.0  0.35095000000000004  0.08659  0.4600600000000001  1.0000
  C   C137      1.0  0.5688600000000001  0.69966  0.7577300000000001  1.0000
  C   C138      1.0  0.30364  0.31293  0.74285  1.0000
  C   C139      1.0  0.33082  0.9476100000000001  0.17295  1.0000
  C   C140      1.0  0.69978  0.57107  0.64118  1.0000
  C   C141      1.0  0.59324  0.23427  0.43637  1.0000
  C   C142      1.0  0.74179  0.65725  0.10001  1.0000
  C   C143      1.0  0.55317  0.26089  0.40109  1.0000
  C   C144      1.0  0.5797  0.66818  0.87459  1.0000
  C   C145      1.0  0.028619999999999948  0.35721  0.8609  1.0000
  C   C146      1.0  0.09495  0.72441  0.19909  1.0000
  C   C147      1.0  0.64601  0.34786999999999996  0.49641  1.0000
  C   C148      1.0  0.44699  0.32961  0.21227000000000001  1.0000
  C   C149      1.0  0.65373  0.8596500000000001  0.59732  1.0000
  C   C150      1.0  0.08546999999999999  0.60672  0.96316  1.0000
  C   C151      1.0  0.8897599999999999  0.35225  0.64067  1.0000
  C   C152      1.0  0.15319  0.69129  0.04926  1.0000
  C   C153      1.0  0.03844  0.6469699999999999  0.32621  1.0000
  C   C154      1.0  0.13464000000000007  0.49892000000000003  0.85274  1.0000
  C   C155      1.0  0.69115  0.39447  0.547  1.0000
  C   C156      1.0  0.60612  0.88776  0.4285  1.0000
  C   C157      1.0  0.43196999999999997  0.5598  0.85826  1.0000
  C   C158      1.0  0.39127000000000006  0.62538  0.53772  1.0000
  C   C159      1.0  0.62577  0.6794  0.92377  1.0000
  C   C160      1.0  0.7956200000000001  0.20773  0.87533  1.0000
  C   C161      1.0  0.87918  0.44425  0.71008  1.0000
  C   C162      1.0  0.6701  0.51353  0.22138  1.0000
  C   C163      1.0  0.33458  0.49499  0.78366  1.0000
  C   C164      1.0  0.19917  0.75147  0.07725  1.0000
  C   C165      1.0  0.798  0.40247000000000005  0.06728  1.0000
  C   C166      1.0  0.6070800000000001  0.37406000000000006  0.4601700000000001  1.0000
  C   C167      1.0  0.3929000000000001  0.11012999999999996  0.5685  1.0000
  C   C168      1.0  0.13895000000000013  0.5529200000000001  0.9022500000000001  1.0000
  C   C169      1.0  0.65798  0.77619  0.82455  1.0000
  C   C170      1.0  0.65586  0.60576  0.61358  1.0000
  C   C171      1.0  0.7878500000000002  0.67755  0.32574  1.0000
  C   C172      1.0  0.54393  0.60945  0.93132  1.0000
  C   C173      1.0  0.45954  0.01035000000000001  0.61419  1.0000
  C   C174      1.0  0.35079  0.13496000000000002  0.35058000000000006  1.0000
  C   C175      1.0  0.4457  0.7387  0.59659  1.0000
  C   C176      1.0  0.26995  0.39519  0.30382  1.0000
  N   N1        1.0  0.66772  0.70088  0.68954  1.0000
  N   N2        1.0  0.48606  0.3765800000000001  0.14981  1.0000
  N   N3        1.0  0.33041000000000004  0.29882000000000003  0.30812000000000006  1.0000
  N   N4        1.0  0.37259  0.16296  0.64579  1.0000
  N   N5        1.0  0.75703  0.65765  0.27517  1.0000
  N   N6        1.0  0.65591  0.024850000000000018  0.77526  1.0000
  N   N7        1.0  0.25192  0.34763  0.72618  1.0000
  N   N8        1.0  0.70331  0.52716  0.19393  1.0000
  N   N9        1.0  0.38025  0.24988000000000002  0.2246  1.0000
  N   N10       1.0  0.34367  0.9736100000000001  0.22315  1.0000
  N   N11       1.0  0.3017400000000001  0.47941000000000006  0.81072  1.0000
  N   N12       1.0  0.16408  0.7722900000000001  0.14843  1.0000
  N   N13       1.0  0.52353  0.9907800000000001  0.69018  1.0000
  N   N14       1.0  0.009190000000000031  0.33135  0.80984  1.0000
  N   N15       1.0  0.22316  0.51442  0.35365  1.0000
  N   N16       1.0  0.6295  0.83712  0.35224  1.0000
  N   N17       1.0  0.01961  0.61689  0.27567  1.0000
  N   N18       1.0  0.9922200000000001  0.66641  0.19386  1.0000
  N   N19       1.0  0.47663999999999995  0.007630000000000014  0.30681  1.0000
  N   N20       1.0  0.83713  0.22550999999999988  0.8549  1.0000
  N   N21       1.0  0.61981  0.75102  0.77452  1.0000
  N   N22       1.0  0.51821  0.62948  0.85416  1.0000
  N   N23       1.0  0.7730799999999999  0.48394  0.64495  1.0000
  N   N24       1.0  0.97311  0.37845  0.72492  1.0000
  O   O1        1.0  0.07553999999999993  0.46299  0.82649  1.0000
  O   O2        1.0  0.50628  0.8471  0.65615  1.0000
  O   O3        1.0  0.62681  0.8764499999999998  0.75236  1.0000
  O   O4        1.0  0.15546999999999997  0.34548999999999996  0.84169  1.0000
  O   O5        1.0  0.75311  0.63442  0.17267  1.0000
  O   O6        1.0  0.92183  0.53892  0.17309  1.0000
  O   O7        1.0  0.12435  0.37467  0.74835  1.0000
  O   O8        1.0  0.85074  0.65894  0.16196  1.0000
  O   O9        1.0  0.37356  0.12323  0.24593  1.0000
  O   O10       1.0  0.1882699999999999  0.49245  0.84213  1.0000
  O   O11       1.0  0.8835800000000001  0.63464  0.26598  1.0000
  O   O12       1.0  0.34671  0.18766  0.34011  1.0000
  O   O13       1.0  0.4639800000000001  0.24745000000000003  0.32454000000000005  1.0000
  O   O14       1.0  0.36023000000000005  0.07609999999999999  0.32387  1.0000
  O   O15       1.0  0.49363  0.15243  0.34151  1.0000
  O   O16       1.0  0.81372  0.5044  0.16309  1.0000
  O   O17       1.0  0.53509  0.7521  0.67327  1.0000
  O   O18       1.0  0.65279  0.8119600000000001  0.65744  1.0000
  O   O19       1.0  0.25289  0.36392  0.82772  1.0000
  O   O20       1.0  0.64001  0.92364  0.6738  1.0000
