data_image0
_chemical_formula_structural       Cd4H88C160N16O32
_chemical_formula_sum              "Cd4 H88 C160 N16 O32"
_cell_length_a       12.95314
_cell_length_b       12.93835
_cell_length_c       29.616070000000004
_cell_angle_alpha    90.0204
_cell_angle_beta     90.02117
_cell_angle_gamma    102.67926

_symmetry_space_group_name_H-M    'P 1'
_symmetry_Int_Tables_number       1

loop_
  _symmetry_equiv_pos_as_xyz
  'x,y,z'

loop_
  _atom_site_type_symbol
  _atom_site_label
  _atom_site_symmetry_multiplicity
  _atom_site_fract_x
  _atom_site_fract_y
  _atom_site_fract_z
  _atom_site_occupancy
  Cd  Cd1       1.0  0.5955999999999999  0.59566  0.043690000000000014  1.0000
  Cd  Cd2       1.0  0.9042199999999997  0.9043799999999999  0.54373  1.0000
  Cd  Cd3       1.0  0.09577999999999998  0.09564  0.45627  1.0000
  Cd  Cd4       1.0  0.40439  0.40435  0.95631  1.0000
  H   H1        1.0  0.6669999999999998  0.8088  0.42036  1.0000
  H   H2        1.0  0.61608  0.7607599999999998  0.33047  1.0000
  H   H3        1.0  0.3433  0.5798999999999999  0.05969  1.0000
  H   H4        1.0  0.21019999999999997  0.69535  0.06226000000000002  1.0000
  H   H5        1.0  0.4694299999999999  0.9638999999999999  0.039360000000000006  1.0000
  H   H6        1.0  0.58956  0.83752  0.03561  1.0000
  H   H7        1.0  0.05772000000000001  0.93267  0.15345  1.0000
  H   H8        1.0  0.22279999999999997  0.10131  0.94452  1.0000
  H   H9        1.0  0.8329899999999998  0.69119  0.92039  1.0000
  H   H10       1.0  0.8838599999999999  0.73917  0.8305200000000003  1.0000
  H   H11       1.0  0.15652999999999992  0.9200099999999998  0.55974  1.0000
  H   H12       1.0  0.28972999999999993  0.8047  0.5621  1.0000
  H   H13       1.0  0.030510000000000002  0.53607  0.5391  1.0000
  H   H14       1.0  0.9102999999999998  0.66232  0.53555  1.0000
  H   H15       1.0  0.44199  0.56724  0.6533000000000002  1.0000
  H   H16       1.0  0.27741  0.39871  0.44418000000000013  1.0000
  H   H17       1.0  0.30868  0.16612999999999994  0.07974  1.0000
  H   H18       1.0  0.26048  0.11571  0.16960000000000006  1.0000
  H   H19       1.0  0.08028999999999994  0.8436699999999998  0.44016  1.0000
  H   H20       1.0  0.19546999999999995  0.7102099999999998  0.43787  1.0000
  H   H21       1.0  0.46373  0.96983  0.46094  1.0000
  H   H22       1.0  0.33751  0.09023999999999999  0.46414000000000005  1.0000
  H   H23       1.0  0.43289  0.55799  0.34671  1.0000
  H   H24       1.0  0.6011699999999998  0.7228499999999998  0.55583  1.0000
  H   H25       1.0  0.19134  0.3338299999999999  0.57975  1.0000
  H   H26       1.0  0.23955999999999997  0.3843499999999999  0.66963  1.0000
  H   H27       1.0  0.41974999999999985  0.6563399999999998  0.94015  1.0000
  H   H28       1.0  0.30452  0.78976  0.93781  1.0000
  H   H29       1.0  0.03629999999999999  0.53024  0.9607900000000003  1.0000
  H   H30       1.0  0.16250999999999996  0.40983  0.9641  1.0000
  H   H31       1.0  0.06732  0.94222  0.8466  1.0000
  H   H32       1.0  0.8987199999999997  0.77708  0.05553000000000002  1.0000
  H   H33       1.0  0.33301  0.19122  0.57964  1.0000
  H   H34       1.0  0.38391  0.23924999999999993  0.66954  1.0000
  H   H35       1.0  0.6566899999999998  0.42010999999999993  0.94031  1.0000
  H   H36       1.0  0.7897899999999999  0.30465999999999993  0.93774  1.0000
  H   H37       1.0  0.5305599999999999  0.03611  0.9606400000000003  1.0000
  H   H38       1.0  0.41043  0.16249  0.96439  1.0000
  H   H39       1.0  0.9422699999999998  0.06732999999999999  0.84656  1.0000
  H   H40       1.0  0.7771899999999998  0.8987  0.055480000000000015  1.0000
  H   H41       1.0  0.16698999999999994  0.30881  0.07961  1.0000
  H   H42       1.0  0.11612999999999997  0.26082999999999995  0.16948000000000005  1.0000
  H   H43       1.0  0.8434599999999998  0.08  0.4402700000000001  1.0000
  H   H44       1.0  0.71026  0.1953  0.4379  1.0000
  H   H45       1.0  0.9694799999999998  0.46393  0.4609  1.0000
  H   H46       1.0  0.08968999999999996  0.33768999999999993  0.46446  1.0000
  H   H47       1.0  0.558  0.43277  0.34671  1.0000
  H   H48       1.0  0.72258  0.60129  0.55582  1.0000
  H   H49       1.0  0.69131  0.8338699999999999  0.92026  1.0000
  H   H50       1.0  0.7395099999999998  0.88429  0.8304  1.0000
  H   H51       1.0  0.9196999999999997  0.15634  0.55984  1.0000
  H   H52       1.0  0.8045199999999999  0.2898  0.56213  1.0000
  H   H53       1.0  0.5362599999999998  0.03018  0.53906  1.0000
  H   H54       1.0  0.66249  0.9097699999999997  0.53586  1.0000
  H   H55       1.0  0.5671099999999999  0.44202  0.6533000000000002  1.0000
  H   H56       1.0  0.39882  0.27716  0.4441700000000001  1.0000
  H   H57       1.0  0.8086599999999997  0.6661799999999998  0.4202600000000001  1.0000
  H   H58       1.0  0.7604299999999998  0.61566  0.33038  1.0000
  H   H59       1.0  0.58024  0.34365999999999997  0.05985000000000001  1.0000
  H   H60       1.0  0.69547  0.21025  0.06220000000000001  1.0000
  H   H61       1.0  0.9636799999999998  0.46976999999999997  0.03921  1.0000
  H   H62       1.0  0.8374799999999998  0.59018  0.0359  1.0000
  H   H63       1.0  0.9326699999999998  0.05779  0.1534  1.0000
  H   H64       1.0  0.10126999999999997  0.22291999999999998  0.94447  1.0000
  H   H65       1.0  0.8355599999999996  0.83579  0.1556  1.0000
  H   H66       1.0  0.8862299999999997  0.8858999999999999  0.23465  1.0000
  H   H67       1.0  0.63368  0.6333599999999999  0.28127  1.0000
  H   H68       1.0  0.5848199999999999  0.58597  0.20193000000000005  1.0000
  H   H69       1.0  0.9259599999999999  0.92614  0.29643000000000014  1.0000
  H   H70       1.0  0.9702699999999997  0.9700199999999999  0.37601000000000007  1.0000
  H   H71       1.0  0.66373  0.6640099999999998  0.6556500000000001  1.0000
  H   H72       1.0  0.6136999999999999  0.6138099999999999  0.7347  1.0000
  H   H73       1.0  0.8663400000000001  0.86643  0.78125  1.0000
  H   H74       1.0  0.9147199999999995  0.91385  0.7019200000000001  1.0000
  H   H75       1.0  0.57403  0.57387  0.79633  1.0000
  H   H76       1.0  0.5296499999999998  0.5299499999999999  0.8758900000000001  1.0000
  H   H77       1.0  0.33626  0.33600999999999986  0.34435  1.0000
  H   H78       1.0  0.38629  0.3862  0.2653  1.0000
  H   H79       1.0  0.13365  0.13357999999999998  0.21875  1.0000
  H   H80       1.0  0.08526999999999998  0.08615999999999997  0.29809  1.0000
  H   H81       1.0  0.42596  0.42613999999999996  0.20367  1.0000
  H   H82       1.0  0.47033  0.47005  0.12412  1.0000
  H   H83       1.0  0.16442999999999997  0.16421  0.84441  1.0000
  H   H84       1.0  0.11376  0.11411  0.7653500000000002  1.0000
  H   H85       1.0  0.36631  0.36664  0.7187400000000003  1.0000
  H   H86       1.0  0.41516999999999993  0.41404  0.79807  1.0000
  H   H87       1.0  0.07402999999999998  0.07386999999999999  0.70357  1.0000
  H   H88       1.0  0.029729999999999996  0.029989999999999992  0.6239900000000003  1.0000
  C   C1        1.0  0.7220599999999997  0.7959699999999998  0.39453  1.0000
  C   C2        1.0  0.6946  0.76918  0.34485  1.0000
  C   C3        1.0  0.36713  0.6652599999999999  0.055130000000000005  1.0000
  C   C4        1.0  0.29375999999999997  0.7293499999999999  0.05695000000000001  1.0000
  C   C5        1.0  0.33015  0.8379999999999997  0.05034000000000002  1.0000
  C   C6        1.0  0.43786  0.87943  0.04347  1.0000
  C   C7        1.0  0.50516  0.80915  0.041500000000000016  1.0000
  C   C8        1.0  0.19241999999999998  0.9074799999999997  0.08907000000000002  1.0000
  C   C9        1.0  0.11631999999999997  0.97743  0.08714  1.0000
  C   C10       1.0  0.05196  0.98263  0.12438  1.0000
  C   C11       1.0  0.11150999999999998  0.04103  0.048700000000000014  1.0000
  C   C12       1.0  0.17704  0.03793  0.01061  1.0000
  C   C13       1.0  0.17169  0.10238  0.9735400000000001  1.0000
  C   C14       1.0  0.25328999999999996  0.9682599999999998  0.0103  1.0000
  C   C15       1.0  0.7779299999999998  0.7040799999999998  0.8945400000000002  1.0000
  C   C16       1.0  0.8053199999999999  0.7307299999999998  0.84487  1.0000
  C   C17       1.0  0.13271999999999998  0.83465  0.5551300000000002  1.0000
  C   C18       1.0  0.20615  0.77061  0.55685  1.0000
  C   C19       1.0  0.16977  0.66196  0.55018  1.0000
  C   C20       1.0  0.06205999999999998  0.62052  0.5433  1.0000
  C   C21       1.0  0.99469  0.6907599999999998  0.54144  1.0000
  C   C22       1.0  0.3075099999999999  0.59246  0.5888800000000002  1.0000
  C   C23       1.0  0.38357  0.5224799999999999  0.58695  1.0000
  C   C24       1.0  0.44789  0.5173  0.62423  1.0000
  C   C25       1.0  0.3884  0.4589  0.54849  1.0000
  C   C26       1.0  0.3229099999999999  0.46204  0.51036  1.0000
  C   C27       1.0  0.32837999999999995  0.39763999999999994  0.47327  1.0000
  C   C28       1.0  0.24666999999999997  0.53176  0.51005  1.0000
  C   C29       1.0  0.29598  0.22143  0.10554  1.0000
  C   C30       1.0  0.26915999999999995  0.19431999999999994  0.1552  1.0000
  C   C31       1.0  0.16554999999999992  0.8673499999999997  0.44473  1.0000
  C   C32       1.0  0.22956  0.79389  0.4431000000000001  1.0000
  C   C33       1.0  0.33805  0.83035  0.44983  1.0000
  C   C34       1.0  0.3794  0.9382199999999999  0.4566800000000001  1.0000
  C   C35       1.0  0.3092499999999999  0.00568  0.4584000000000001  1.0000
  C   C36       1.0  0.4075399999999999  0.6925299999999999  0.41113  1.0000
  C   C37       1.0  0.47753  0.61642  0.41306  1.0000
  C   C38       1.0  0.48276999999999987  0.5520799999999999  0.37577  1.0000
  C   C39       1.0  0.54106  0.61161  0.45152  1.0000
  C   C40       1.0  0.53783  0.67712  0.48965  1.0000
  C   C41       1.0  0.6021499999999997  0.6717699999999999  0.52676  1.0000
  C   C42       1.0  0.4681399999999999  0.7533799999999998  0.4899700000000001  1.0000
  C   C43       1.0  0.204  0.27853999999999995  0.60554  1.0000
  C   C44       1.0  0.23090999999999998  0.3057599999999999  0.6552  1.0000
  C   C45       1.0  0.33448999999999995  0.63263  0.9447000000000002  1.0000
  C   C46       1.0  0.2704799999999999  0.7060999999999997  0.94304  1.0000
  C   C47       1.0  0.16198999999999997  0.66968  0.9497400000000003  1.0000
  C   C48       1.0  0.12063999999999997  0.56182  0.95657  1.0000
  C   C49       1.0  0.19079999999999994  0.4943599999999999  0.95833  1.0000
  C   C50       1.0  0.09252999999999995  0.80749  0.91099  1.0000
  C   C51       1.0  0.022569999999999975  0.8836299999999998  0.9129000000000003  1.0000
  C   C52       1.0  0.017360000000000004  0.948  0.8756400000000002  1.0000
  C   C53       1.0  0.959  0.88846  0.95132  1.0000
  C   C54       1.0  0.96215  0.82295  0.98944  1.0000
  C   C55       1.0  0.89775  0.8282299999999998  0.026500000000000006  1.0000
  C   C56       1.0  0.03183999999999996  0.7466899999999997  0.9898  1.0000
  C   C57       1.0  0.2779299999999999  0.20403999999999994  0.60548  1.0000
  C   C58       1.0  0.30538999999999994  0.23083999999999996  0.65515  1.0000
  C   C59       1.0  0.6328599999999999  0.3347499999999999  0.94487  1.0000
  C   C60       1.0  0.7062299999999999  0.27066  0.94305  1.0000
  C   C61       1.0  0.6698399999999999  0.16201  0.9496700000000002  1.0000
  C   C62       1.0  0.56213  0.12057  0.9565400000000002  1.0000
  C   C63       1.0  0.49481999999999987  0.19085999999999995  0.9585000000000002  1.0000
  C   C64       1.0  0.80757  0.09253  0.9109300000000001  1.0000
  C   C65       1.0  0.8836699999999997  0.02257  0.91286  1.0000
  C   C66       1.0  0.9480299999999998  0.01738  0.8756200000000001  1.0000
  C   C67       1.0  0.8884799999999998  0.9589799999999999  0.9513000000000003  1.0000
  C   C68       1.0  0.8229499999999997  0.9620799999999998  0.98939  1.0000
  C   C69       1.0  0.8282899999999996  0.8976299999999998  0.026460000000000008  1.0000
  C   C70       1.0  0.74669  0.03175  0.9897000000000002  1.0000
  C   C71       1.0  0.22205  0.29591999999999996  0.10546000000000001  1.0000
  C   C72       1.0  0.19466999999999995  0.26927  0.15513  1.0000
  C   C73       1.0  0.86728  0.16535  0.44487  1.0000
  C   C74       1.0  0.79385  0.22939  0.4431600000000001  1.0000
  C   C75       1.0  0.8302199999999997  0.33805  0.4498200000000001  1.0000
  C   C76       1.0  0.93793  0.3794899999999999  0.4567  1.0000
  C   C77       1.0  0.005300000000000005  0.30925  0.4585600000000001  1.0000
  C   C78       1.0  0.69248  0.40755  0.4111200000000001  1.0000
  C   C79       1.0  0.61642  0.47753  0.41305  1.0000
  C   C80       1.0  0.5521  0.4826999999999999  0.37577  1.0000
  C   C81       1.0  0.6116  0.54111  0.45151000000000013  1.0000
  C   C82       1.0  0.6770799999999998  0.5379599999999999  0.48964000000000013  1.0000
  C   C83       1.0  0.67161  0.6023699999999999  0.52674  1.0000
  C   C84       1.0  0.7533199999999998  0.46825  0.48995  1.0000
  C   C85       1.0  0.70401  0.7785799999999999  0.8944600000000003  1.0000
  C   C86       1.0  0.73083  0.8056899999999998  0.8448  1.0000
  C   C87       1.0  0.8344399999999997  0.13265999999999997  0.55527  1.0000
  C   C88       1.0  0.77044  0.20612  0.5569  1.0000
  C   C89       1.0  0.6619399999999999  0.16965999999999995  0.55017  1.0000
  C   C90       1.0  0.62059  0.06179  0.54332  1.0000
  C   C91       1.0  0.6907499999999999  0.9943299999999998  0.5416100000000003  1.0000
  C   C92       1.0  0.59245  0.30746999999999997  0.5888800000000002  1.0000
  C   C93       1.0  0.52246  0.38357999999999987  0.5869400000000002  1.0000
  C   C94       1.0  0.5172199999999999  0.44792  0.62423  1.0000
  C   C95       1.0  0.45893  0.38839999999999997  0.54849  1.0000
  C   C96       1.0  0.46216000000000007  0.32289  0.51036  1.0000
  C   C97       1.0  0.39784999999999987  0.32824  0.47325  1.0000
  C   C98       1.0  0.53185  0.24663  0.51003  1.0000
  C   C99       1.0  0.796  0.7214699999999998  0.39446  1.0000
  C   C100      1.0  0.7690799999999999  0.6942499999999998  0.3448  1.0000
  C   C101      1.0  0.6654999999999998  0.36736999999999986  0.0553  1.0000
  C   C102      1.0  0.72951  0.29391  0.05696  1.0000
  C   C103      1.0  0.8379999999999997  0.33033  0.05027  1.0000
  C   C104      1.0  0.8793499999999997  0.4381799999999999  0.04343000000000002  1.0000
  C   C105      1.0  0.8091899999999997  0.50565  0.04167  1.0000
  C   C106      1.0  0.90746  0.19251  0.08901000000000003  1.0000
  C   C107      1.0  0.9774199999999997  0.11637999999999997  0.0871  1.0000
  C   C108      1.0  0.9826299999999999  0.052009999999999994  0.12437  1.0000
  C   C109      1.0  0.040989999999999985  0.11153999999999997  0.04868  1.0000
  C   C110      1.0  0.03784  0.17706  0.01057  1.0000
  C   C111      1.0  0.10224  0.17177  0.97351  1.0000
  C   C112      1.0  0.9681499999999997  0.25332  0.0102  1.0000
  C   C113      1.0  0.6763  0.6765199999999999  0.12634  1.0000
  C   C114      1.0  0.7070799999999999  0.7079199999999998  0.17383  1.0000
  C   C115      1.0  0.7919699999999998  0.7923699999999998  0.18362000000000006  1.0000
  C   C116      1.0  0.8198599999999998  0.81997  0.22826000000000005  1.0000
  C   C117      1.0  0.6787  0.6789199999999999  0.25416  1.0000
  C   C118      1.0  0.65066  0.6515299999999999  0.20975  1.0000
  C   C119      1.0  0.76387  0.7638899999999998  0.26459  1.0000
  C   C120      1.0  0.79225  0.79206  0.31293000000000004  1.0000
  C   C121      1.0  0.8808599999999998  0.8806699999999997  0.32346000000000014  1.0000
  C   C122      1.0  0.90543  0.90499  0.36681  1.0000
  C   C123      1.0  0.84216  0.84158  0.40195  1.0000
  C   C124      1.0  0.8683199999999998  0.8667499999999999  0.45081  1.0000
  C   C125      1.0  0.8228399999999996  0.8237599999999998  0.62631  1.0000
  C   C126      1.0  0.79209  0.79222  0.67379  1.0000
  C   C127      1.0  0.70746  0.70756  0.6836300000000002  1.0000
  C   C128      1.0  0.67995  0.67981  0.72828  1.0000
  C   C129      1.0  0.8211599999999999  0.82088  0.75415  1.0000
  C   C130      1.0  0.8488499999999998  0.84837  0.7097300000000002  1.0000
  C   C131      1.0  0.7360299999999997  0.7359399999999998  0.7646100000000002  1.0000
  C   C132      1.0  0.70768  0.70783  0.81293  1.0000
  C   C133      1.0  0.61907  0.6192599999999999  0.82343  1.0000
  C   C134      1.0  0.5945099999999999  0.59501  0.8667700000000003  1.0000
  C   C135      1.0  0.6578299999999999  0.65847  0.9019400000000002  1.0000
  C   C136      1.0  0.6317399999999999  0.6333  0.9508  1.0000
  C   C137      1.0  0.17714999999999992  0.17624999999999996  0.3736900000000001  1.0000
  C   C138      1.0  0.20789999999999995  0.20779  0.32621  1.0000
  C   C139      1.0  0.29252999999999996  0.29244999999999993  0.31637  1.0000
  C   C140      1.0  0.32004  0.3201999999999999  0.27172  1.0000
  C   C141      1.0  0.17883  0.17913  0.24585  1.0000
  C   C142      1.0  0.15113999999999997  0.15164  0.2902700000000001  1.0000
  C   C143      1.0  0.26396  0.26407  0.23539  1.0000
  C   C144      1.0  0.29231  0.29217999999999994  0.18707  1.0000
  C   C145      1.0  0.38092  0.38073999999999997  0.17658  1.0000
  C   C146      1.0  0.4054799999999999  0.405  0.13323  1.0000
  C   C147      1.0  0.34216  0.34154  0.09806  1.0000
  C   C148      1.0  0.36825  0.3667099999999999  0.04921  1.0000
  C   C149      1.0  0.3236799999999999  0.32349  0.87366  1.0000
  C   C150      1.0  0.29290999999999995  0.29208999999999996  0.82618  1.0000
  C   C151      1.0  0.2080199999999999  0.20763999999999996  0.8163800000000001  1.0000
  C   C152      1.0  0.18012999999999996  0.18003999999999995  0.7717400000000002  1.0000
  C   C153      1.0  0.32129  0.32109  0.7458400000000002  1.0000
  C   C154      1.0  0.34933  0.34848  0.79025  1.0000
  C   C155      1.0  0.23612  0.23611999999999994  0.7354100000000001  1.0000
  C   C156      1.0  0.20775  0.20795  0.68708  1.0000
  C   C157      1.0  0.11913999999999998  0.11935  0.67655  1.0000
  C   C158      1.0  0.09457  0.09502  0.6331900000000001  1.0000
  C   C159      1.0  0.15783999999999995  0.15843  0.59805  1.0000
  C   C160      1.0  0.13167  0.13325  0.54919  1.0000
  N   N1        1.0  0.4704699999999999  0.70388  0.04665  1.0000
  N   N2        1.0  0.2564699999999999  0.9067499999999997  0.04977  1.0000
  N   N3        1.0  0.029339999999999988  0.79602  0.5467  1.0000
  N   N4        1.0  0.24342999999999998  0.59317  0.54957  1.0000
  N   N5        1.0  0.2041199999999999  0.9708999999999998  0.45311  1.0000
  N   N6        1.0  0.40676999999999996  0.75661  0.45046000000000014  1.0000
  N   N7        1.0  0.29594  0.5291  0.95307  1.0000
  N   N8        1.0  0.09331000000000003  0.74347  0.95033  1.0000
  N   N9        1.0  0.52952  0.29613  0.95336  1.0000
  N   N10       1.0  0.7435199999999998  0.09326  0.9502300000000002  1.0000
  N   N11       1.0  0.9706599999999997  0.20399  0.45331  1.0000
  N   N12       1.0  0.75656  0.40683  0.4504300000000001  1.0000
  N   N13       1.0  0.79588  0.029119999999999993  0.5469  1.0000
  N   N14       1.0  0.5932199999999999  0.2434  0.5495400000000003  1.0000
  N   N15       1.0  0.70405  0.4709  0.04693000000000001  1.0000
  N   N16       1.0  0.9066799999999998  0.25654  0.04967  1.0000
  O   O1        1.0  0.20313999999999993  0.85426  0.12225000000000003  1.0000
  O   O2        1.0  0.3117799999999999  0.9630399999999999  0.9779200000000002  1.0000
  O   O3        1.0  0.29685  0.64574  0.62205  1.0000
  O   O4        1.0  0.18822999999999998  0.53709  0.47765  1.0000
  O   O5        1.0  0.35432  0.7031599999999999  0.37797  1.0000
  O   O6        1.0  0.4628599999999999  0.81183  0.52239  1.0000
  O   O7        1.0  0.14569999999999994  0.79681  0.8778400000000001  1.0000
  O   O8        1.0  0.037069999999999936  0.6882499999999998  0.02221  1.0000
  O   O9        1.0  0.79685  0.14575  0.87775  1.0000
  O   O10       1.0  0.68821  0.03697  0.022080000000000002  1.0000
  O   O11       1.0  0.7031399999999999  0.3542699999999999  0.37795  1.0000
  O   O12       1.0  0.8117699999999999  0.4629199999999999  0.52236  1.0000
  O   O13       1.0  0.64567  0.29683999999999994  0.6220300000000002  1.0000
  O   O14       1.0  0.5371399999999998  0.18818  0.47761  1.0000
  O   O15       1.0  0.8542899999999998  0.20319999999999994  0.12216  1.0000
  O   O16       1.0  0.9629199999999998  0.31176  0.9777900000000003  1.0000
  O   O17       1.0  0.81162  0.81188  0.48118  1.0000
  O   O18       1.0  0.94674  0.9421699999999998  0.4611900000000001  1.0000
  O   O19       1.0  0.7292299999999999  0.72447  0.0934  1.0000
  O   O20       1.0  0.5954  0.59991  0.12085  1.0000
  O   O21       1.0  0.68838  0.6881799999999999  0.9812100000000002  1.0000
  O   O22       1.0  0.55339  0.5577999999999999  0.96114  1.0000
  O   O23       1.0  0.7700799999999998  0.7758999999999998  0.59329  1.0000
  O   O24       1.0  0.9038999999999998  0.9001999999999999  0.62094  1.0000
  O   O25       1.0  0.31161  0.31183  0.01879  1.0000
  O   O26       1.0  0.44661  0.4422  0.03887  1.0000
  O   O27       1.0  0.22990999999999995  0.22410999999999995  0.40671000000000007  1.0000
  O   O28       1.0  0.09609999999999998  0.0998  0.3790700000000001  1.0000
  O   O29       1.0  0.18837  0.18812  0.51882  1.0000
  O   O30       1.0  0.05323999999999999  0.057849999999999985  0.53882  1.0000
  O   O31       1.0  0.27075999999999995  0.27553999999999995  0.9066  1.0000
  O   O32       1.0  0.40457999999999994  0.4000999999999999  0.87915  1.0000
