data_image0
_chemical_formula_structural       Zn8Si6H108C156O28
_chemical_formula_sum              "Zn8 Si6 H108 C156 O28"
_cell_length_a       9.77769
_cell_length_b       17.526589999999995
_cell_length_c       30.74465
_cell_angle_alpha    80.13264
_cell_angle_beta     80.89041
_cell_angle_gamma    73.71208

_symmetry_space_group_name_H-M    'P 1'
_symmetry_Int_Tables_number       1

loop_
  _symmetry_equiv_pos_as_xyz
  'x,y,z'

loop_
  _atom_site_type_symbol
  _atom_site_label
  _atom_site_symmetry_multiplicity
  _atom_site_fract_x
  _atom_site_fract_y
  _atom_site_fract_z
  _atom_site_occupancy
  Zn  Zn1       1.0  0.43557  0.4374  0.49705  1.0000
  Zn  Zn2       1.0  0.67833  0.34534999999999993  0.5426700000000002  1.0000
  Zn  Zn3       1.0  0.37066  0.0627  0.00307  1.0000
  Zn  Zn4       1.0  0.56734  0.15382  0.95791  1.0000
  Zn  Zn5       1.0  0.56444  0.56259  0.50295  1.0000
  Zn  Zn6       1.0  0.3216799999999999  0.65465  0.45733  1.0000
  Zn  Zn7       1.0  0.6293499999999999  0.93729  0.99693  1.0000
  Zn  Zn8       1.0  0.43268  0.8461699999999999  0.04209  1.0000
  Si  Si1       1.0  0.53509  0.98985  0.39207  1.0000
  Si  Si2       1.0  0.91521  0.50978  0.10869  1.0000
  Si  Si3       1.0  0.46492  0.010140000000000003  0.60793  1.0000
  Si  Si4       1.0  0.0848  0.4902099999999999  0.89131  1.0000
  Si  Si5       1.0  0.98893  0.24992000000000003  0.75012  1.0000
  Si  Si6       1.0  0.011079999999999954  0.75007  0.24988  1.0000
  H   H1        1.0  0.40385  0.16286999999999996  0.37581  1.0000
  H   H2        1.0  0.41475000000000006  0.28061  0.40878  1.0000
  H   H3        1.0  0.7282999999999998  0.12843999999999997  0.49098000000000014  1.0000
  H   H4        1.0  0.7138399999999998  0.009380000000000005  0.45988  1.0000
  H   H5        1.0  0.41006999999999993  0.85077  0.39897  1.0000
  H   H6        1.0  0.16722000000000006  0.83189  0.4206  1.0000
  H   H7        1.0  0.9694999999999999  0.94044  0.4505  1.0000
  H   H8        1.0  0.018069999999999992  0.06919  0.45894  1.0000
  H   H9        1.0  0.2602799999999999  0.09013  0.43555  1.0000
  H   H10       1.0  0.6580400000000001  0.11022  0.32752  1.0000
  H   H11       1.0  0.69683  0.13578  0.24543  1.0000
  H   H12       1.0  0.62029  0.054269999999999985  0.19966000000000006  1.0000
  H   H13       1.0  0.5031399999999998  0.9470500000000001  0.23699  1.0000
  H   H14       1.0  0.46559999999999996  0.92114  0.31892  1.0000
  H   H15       1.0  0.56569  0.86252  0.47195  1.0000
  H   H16       1.0  0.76602  0.7447999999999999  0.49365  1.0000
  H   H17       1.0  0.017119999999999976  0.79658  0.36927  1.0000
  H   H18       1.0  0.81787  0.91199  0.34679  1.0000
  H   H19       1.0  0.9402100000000001  0.37422  0.66885  1.0000
  H   H20       1.0  0.1029500000000001  0.40913999999999984  0.60198  1.0000
  H   H21       1.0  0.4605300000000001  0.23603999999999997  0.6562400000000002  1.0000
  H   H22       1.0  0.2991400000000001  0.19655999999999998  0.72209  1.0000
  H   H23       1.0  0.74582  0.24721  0.70557  1.0000
  H   H24       1.0  0.6872300000000001  0.14327  0.67262  1.0000
  H   H25       1.0  0.83223  0.001789999999999996  0.68333  1.0000
  H   H26       1.0  0.04183000000000007  0.9652799999999999  0.72709  1.0000
  H   H27       1.0  0.10689  0.0694  0.75795  1.0000
  H   H28       1.0  0.94026  0.33676  0.12480000000000001  1.0000
  H   H29       1.0  0.10088999999999995  0.21893000000000004  0.09149000000000002  1.0000
  H   H30       1.0  0.34438  0.37066999999999994  0.00941  1.0000
  H   H31       1.0  0.1804  0.48979999999999996  0.04077  1.0000
  H   H32       1.0  0.6574100000000002  0.6493599999999999  0.10140000000000003  1.0000
  H   H33       1.0  0.41796  0.66869  0.07895  1.0000
  H   H34       1.0  0.35959  0.56024  0.048850000000000005  1.0000
  H   H35       1.0  0.54585  0.4313  0.04073  1.0000
  H   H36       1.0  0.7849499999999998  0.41004  0.06479  1.0000
  H   H37       1.0  0.09535  0.38932  0.17321  1.0000
  H   H38       1.0  0.07881999999999999  0.3642  0.2553  1.0000
  H   H39       1.0  0.87517  0.44593000000000005  0.3011  1.0000
  H   H40       1.0  0.68676  0.55275  0.26378  1.0000
  H   H41       1.0  0.70421  0.57837  0.18187  1.0000
  H   H42       1.0  0.89518  0.63638  0.02889  1.0000
  H   H43       1.0  0.9984199999999999  0.75401  0.00617  1.0000
  H   H44       1.0  0.1817599999999999  0.7040900000000001  0.12979  1.0000
  H   H45       1.0  0.07606999999999997  0.58889  0.15331  1.0000
  H   H46       1.0  0.98906  0.12515  0.83135  1.0000
  H   H47       1.0  0.12136999999999994  0.09203999999999996  0.8980300000000002  1.0000
  H   H48       1.0  0.35520999999999997  0.26639999999999997  0.8424600000000001  1.0000
  H   H49       1.0  0.21774000000000002  0.30467  0.77713  1.0000
  H   H50       1.0  0.69773  0.25291  0.79502  1.0000
  H   H51       1.0  0.50237  0.35747  0.82762  1.0000
  H   H52       1.0  0.51675  0.49876999999999994  0.8165900000000003  1.0000
  H   H53       1.0  0.7340799999999998  0.5345100000000002  0.77296  1.0000
  H   H54       1.0  0.9341000000000002  0.42979999999999996  0.74245  1.0000
  H   H55       1.0  0.5961599999999999  0.8371199999999999  0.62419  1.0000
  H   H56       1.0  0.58526  0.71938  0.59122  1.0000
  H   H57       1.0  0.2717100000000001  0.87155  0.50902  1.0000
  H   H58       1.0  0.28617  0.9906200000000001  0.54012  1.0000
  H   H59       1.0  0.5899400000000001  0.14922  0.60103  1.0000
  H   H60       1.0  0.8328  0.1681  0.5794  1.0000
  H   H61       1.0  0.03051000000000001  0.05955999999999998  0.5495  1.0000
  H   H62       1.0  0.9819400000000001  0.93081  0.54106  1.0000
  H   H63       1.0  0.73973  0.90986  0.56445  1.0000
  H   H64       1.0  0.3419700000000001  0.8897799999999999  0.67248  1.0000
  H   H65       1.0  0.30317999999999995  0.86421  0.75457  1.0000
  H   H66       1.0  0.37972000000000006  0.9457199999999999  0.80034  1.0000
  H   H67       1.0  0.49686999999999987  0.052949999999999955  0.76301  1.0000
  H   H68       1.0  0.53442  0.07886  0.68108  1.0000
  H   H69       1.0  0.43432  0.13746999999999998  0.52805  1.0000
  H   H70       1.0  0.23399000000000006  0.25519  0.50635  1.0000
  H   H71       1.0  0.9828899999999999  0.20340999999999998  0.63073  1.0000
  H   H72       1.0  0.18213999999999989  0.08800999999999995  0.6532100000000002  1.0000
  H   H73       1.0  0.059800000000000075  0.62577  0.33115  1.0000
  H   H74       1.0  0.89706  0.59085  0.39802  1.0000
  H   H75       1.0  0.53948  0.76395  0.34376  1.0000
  H   H76       1.0  0.7008699999999999  0.80344  0.27791  1.0000
  H   H77       1.0  0.25418999999999997  0.75279  0.29443  1.0000
  H   H78       1.0  0.31279  0.85672  0.32738000000000006  1.0000
  H   H79       1.0  0.16778000000000004  0.99821  0.31667  1.0000
  H   H80       1.0  0.9581799999999999  0.034719999999999994  0.27291  1.0000
  H   H81       1.0  0.8931200000000001  0.9306  0.24205  1.0000
  H   H82       1.0  0.05974999999999997  0.66323  0.8752  1.0000
  H   H83       1.0  0.8991200000000005  0.7810699999999999  0.9085  1.0000
  H   H84       1.0  0.6556299999999999  0.62933  0.99059  1.0000
  H   H85       1.0  0.81961  0.51019  0.95923  1.0000
  H   H86       1.0  0.3426  0.35064  0.8986  1.0000
  H   H87       1.0  0.5820499999999998  0.33131  0.92105  1.0000
  H   H88       1.0  0.64043  0.43976  0.95115  1.0000
  H   H89       1.0  0.45416000000000023  0.56869  0.95927  1.0000
  H   H90       1.0  0.21505999999999995  0.58996  0.93521  1.0000
  H   H91       1.0  0.9046599999999999  0.61067  0.82679  1.0000
  H   H92       1.0  0.9212000000000001  0.63579  0.7447  1.0000
  H   H93       1.0  0.12483999999999998  0.55406  0.6989  1.0000
  H   H94       1.0  0.3132499999999999  0.4472499999999999  0.73621  1.0000
  H   H95       1.0  0.29579999999999995  0.42163  0.81813  1.0000
  H   H96       1.0  0.10482999999999998  0.36362  0.97111  1.0000
  H   H97       1.0  0.0015900000000000154  0.24597999999999998  0.99383  1.0000
  H   H98       1.0  0.81825  0.29591  0.8702100000000003  1.0000
  H   H99       1.0  0.9239399999999999  0.4111  0.84669  1.0000
  H   H100      1.0  0.010950000000000017  0.87484  0.16865  1.0000
  H   H101      1.0  0.87864  0.90796  0.10197  1.0000
  H   H102      1.0  0.6448  0.73359  0.15754  1.0000
  H   H103      1.0  0.7822699999999999  0.69532  0.22287  1.0000
  H   H104      1.0  0.30228  0.74708  0.20498  1.0000
  H   H105      1.0  0.4976399999999999  0.64252  0.17238  1.0000
  H   H106      1.0  0.48327000000000003  0.50123  0.18341000000000002  1.0000
  H   H107      1.0  0.26593  0.46547999999999995  0.22704  1.0000
  H   H108      1.0  0.06591999999999996  0.5702  0.25755  1.0000
  C   C1        1.0  0.55702  0.07701999999999999  0.41574000000000005  1.0000
  C   C2        1.0  0.47423  0.15452999999999997  0.40134  1.0000
  C   C3        1.0  0.48056999999999994  0.22106  0.41926  1.0000
  C   C4        1.0  0.57264  0.21171  0.45155  1.0000
  C   C5        1.0  0.65822  0.13520999999999997  0.4656  1.0000
  C   C6        1.0  0.64917  0.06861999999999999  0.44804  1.0000
  C   C7        1.0  0.5730399999999999  0.28248  0.47247  1.0000
  C   C8        1.0  0.35320000000000007  0.97347  0.41362  1.0000
  C   C9        1.0  0.32437000000000005  0.90022  0.41075  1.0000
  C   C10       1.0  0.1871800000000001  0.88863  0.4236700000000001  1.0000
  C   C11       1.0  0.07631999999999993  0.94964  0.44066  1.0000
  C   C12       1.0  0.10355000000000003  0.02197  0.44508  1.0000
  C   C13       1.0  0.2405699999999999  0.033669999999999985  0.4316700000000001  1.0000
  C   C14       1.0  0.55809  0.013850000000000006  0.32963  1.0000
  C   C15       1.0  0.62409  0.07411000000000001  0.30794  1.0000
  C   C16       1.0  0.6462200000000002  0.08863000000000001  0.2615  1.0000
  C   C17       1.0  0.60326  0.042939999999999985  0.23578  1.0000
  C   C18       1.0  0.5378799999999999  0.9825600000000001  0.25673  1.0000
  C   C19       1.0  0.51624  0.96836  0.3031  1.0000
  C   C20       1.0  0.6777099999999999  0.8966900000000001  0.40803  1.0000
  C   C21       1.0  0.6641300000000001  0.8481199999999998  0.44932  1.0000
  C   C22       1.0  0.77575  0.78228  0.4617800000000001  1.0000
  C   C23       1.0  0.9043699999999999  0.76459  0.4331  1.0000
  C   C24       1.0  0.9179600000000002  0.81109  0.3914  1.0000
  C   C25       1.0  0.80543  0.8761599999999999  0.37907  1.0000
  C   C26       1.0  0.030069999999999937  0.69886  0.44805  1.0000
  C   C27       1.0  0.10800999999999991  0.28417  0.70106  1.0000
  C   C28       1.0  0.05418000000000002  0.34371999999999997  0.6666  1.0000
  C   C29       1.0  0.1444599999999999  0.3638199999999999  0.6289600000000002  1.0000
  C   C30       1.0  0.29163  0.32518  0.62563  1.0000
  C   C31       1.0  0.34628000000000003  0.26520999999999995  0.65946  1.0000
  C   C32       1.0  0.2552399999999998  0.24430000000000002  0.69644  1.0000
  C   C33       1.0  0.3909  0.34739000000000003  0.58641  1.0000
  C   C34       1.0  0.9301  0.16635  0.73469  1.0000
  C   C35       1.0  0.81098  0.18551000000000004  0.71063  1.0000
  C   C36       1.0  0.7767199999999999  0.12667000000000003  0.69231  1.0000
  C   C37       1.0  0.85914  0.047119999999999995  0.69811  1.0000
  C   C38       1.0  0.97648  0.026880000000000005  0.72245  1.0000
  C   C39       1.0  0.012489999999999958  0.08603999999999999  0.74023  1.0000
  C   C40       1.0  0.04755  0.42237  0.08495  1.0000
  C   C41       1.0  0.027699999999999954  0.34495000000000003  0.09924  1.0000
  C   C42       1.0  0.11794999999999997  0.27837  0.08114  1.0000
  C   C43       1.0  0.23258000000000006  0.28764999999999996  0.04876  1.0000
  C   C44       1.0  0.25594  0.364  0.03485  1.0000
  C   C45       1.0  0.16320999999999988  0.43063  0.05256  1.0000
  C   C46       1.0  0.3242499999999999  0.2171  0.02756  1.0000
  C   C47       1.0  0.7384399999999999  0.52656  0.0869  1.0000
  C   C48       1.0  0.6333499999999997  0.59998  0.08949000000000003  1.0000
  C   C49       1.0  0.49787999999999993  0.61181  0.07614  1.0000
  C   C50       1.0  0.46552  0.55089  0.059  1.0000
  C   C51       1.0  0.5697200000000002  0.47842999999999997  0.05477  1.0000
  C   C52       1.0  0.70464  0.46651999999999993  0.06860000000000002  1.0000
  C   C53       1.0  0.9005900000000001  0.48574  0.17112  1.0000
  C   C54       1.0  0.005769999999999996  0.42554999999999993  0.19279000000000002  1.0000
  C   C55       1.0  0.9966700000000001  0.41128  0.23923  1.0000
  C   C56       1.0  0.8823499999999999  0.45706  0.26498  1.0000
  C   C57       1.0  0.77685  0.51725  0.24404  1.0000
  C   C58       1.0  0.7867500000000001  0.53126  0.19767  1.0000
  C   C59       1.0  0.98028  0.60294  0.09246  1.0000
  C   C60       1.0  0.9577299999999999  0.65096  0.05109  1.0000
  C   C61       1.0  0.015180000000000015  0.71679  0.038030000000000015  1.0000
  C   C62       1.0  0.09871999999999996  0.73508  0.06605  1.0000
  C   C63       1.0  0.11874999999999998  0.6892199999999999  0.10792  1.0000
  C   C64       1.0  0.05949999999999992  0.62412  0.12089  1.0000
  C   C65       1.0  0.17201  0.8011  0.04983  1.0000
  C   C66       1.0  0.09556000000000005  0.21629999999999996  0.79876  1.0000
  C   C67       1.0  0.06889999999999999  0.15663  0.83338  1.0000
  C   C68       1.0  0.14269999999999997  0.13733  0.87081  1.0000
  C   C69       1.0  0.24724000000000013  0.17655  0.87366  1.0000
  C   C70       1.0  0.27384  0.23665000000000003  0.83969  1.0000
  C   C71       1.0  0.19737  0.25697  0.80297  1.0000
  C   C72       1.0  0.3309800000000001  0.15409  0.91259  1.0000
  C   C73       1.0  0.83073  0.33329000000000003  0.76586  1.0000
  C   C74       1.0  0.70658  0.3145  0.78988  1.0000
  C   C75       1.0  0.59516  0.37369  0.80799  1.0000
  C   C76       1.0  0.6039099999999998  0.45315999999999995  0.80203  1.0000
  C   C77       1.0  0.72554  0.473  0.77775  1.0000
  C   C78       1.0  0.8384899999999998  0.4135  0.7601800000000001  1.0000
  C   C79       1.0  0.4429899999999999  0.92298  0.58426  1.0000
  C   C80       1.0  0.5257799999999999  0.8454600000000001  0.59866  1.0000
  C   C81       1.0  0.51944  0.77893  0.58074  1.0000
  C   C82       1.0  0.42736999999999997  0.7882800000000001  0.54845  1.0000
  C   C83       1.0  0.34179000000000004  0.86478  0.5344  1.0000
  C   C84       1.0  0.35084  0.93138  0.55196  1.0000
  C   C85       1.0  0.4269800000000001  0.71752  0.52753  1.0000
  C   C86       1.0  0.64682  0.026519999999999995  0.58638  1.0000
  C   C87       1.0  0.67565  0.09978  0.5892500000000002  1.0000
  C   C88       1.0  0.8128299999999999  0.11136000000000001  0.57633  1.0000
  C   C89       1.0  0.92369  0.05034999999999998  0.55934  1.0000
  C   C90       1.0  0.8964600000000003  0.97802  0.55492  1.0000
  C   C91       1.0  0.75945  0.96632  0.56833  1.0000
  C   C92       1.0  0.44192  0.98615  0.67037  1.0000
  C   C93       1.0  0.37592000000000014  0.9258800000000001  0.69206  1.0000
  C   C94       1.0  0.35379  0.91136  0.7385  1.0000
  C   C95       1.0  0.3967600000000001  0.9570599999999999  0.7642200000000001  1.0000
  C   C96       1.0  0.46214  0.017439999999999935  0.7432700000000002  1.0000
  C   C97       1.0  0.4837700000000001  0.031629999999999985  0.6969  1.0000
  C   C98       1.0  0.32230000000000003  0.10331000000000001  0.59197  1.0000
  C   C99       1.0  0.33588  0.15187  0.55068  1.0000
  C   C100      1.0  0.22426000000000001  0.21772  0.53822  1.0000
  C   C101      1.0  0.09564  0.2354  0.5669  1.0000
  C   C102      1.0  0.08205000000000003  0.1889  0.60859  1.0000
  C   C103      1.0  0.19458999999999999  0.12382999999999998  0.62093  1.0000
  C   C104      1.0  0.9699400000000001  0.30113  0.55195  1.0000
  C   C105      1.0  0.8919999999999998  0.71583  0.29894  1.0000
  C   C106      1.0  0.9458299999999998  0.65628  0.3334  1.0000
  C   C107      1.0  0.8555500000000001  0.63617  0.37103  1.0000
  C   C108      1.0  0.7083799999999999  0.67482  0.37437  1.0000
  C   C109      1.0  0.65373  0.73479  0.34054  1.0000
  C   C110      1.0  0.7447700000000002  0.7557  0.30356  1.0000
  C   C111      1.0  0.6091100000000003  0.6526  0.41359  1.0000
  C   C112      1.0  0.06991000000000003  0.83365  0.26531  1.0000
  C   C113      1.0  0.18903000000000003  0.81449  0.28937  1.0000
  C   C114      1.0  0.22329  0.87332  0.30769  1.0000
  C   C115      1.0  0.14086999999999997  0.95288  0.30189  1.0000
  C   C116      1.0  0.023530000000000054  0.9731199999999999  0.2775500000000001  1.0000
  C   C117      1.0  0.98752  0.9139499999999999  0.25977  1.0000
  C   C118      1.0  0.95247  0.5776299999999999  0.9150400000000002  1.0000
  C   C119      1.0  0.9723199999999999  0.65505  0.9007600000000001  1.0000
  C   C120      1.0  0.8820600000000001  0.72162  0.91886  1.0000
  C   C121      1.0  0.7674300000000001  0.71235  0.95124  1.0000
  C   C122      1.0  0.7440699999999999  0.636  0.96515  1.0000
  C   C123      1.0  0.8368  0.5693699999999999  0.9474400000000002  1.0000
  C   C124      1.0  0.6757600000000004  0.78289  0.97244  1.0000
  C   C125      1.0  0.26157  0.47344  0.9131  1.0000
  C   C126      1.0  0.36666000000000004  0.40001999999999993  0.91051  1.0000
  C   C127      1.0  0.5021299999999999  0.38819  0.92386  1.0000
  C   C128      1.0  0.53449  0.44911  0.941  1.0000
  C   C129      1.0  0.4302899999999997  0.52157  0.94523  1.0000
  C   C130      1.0  0.29536999999999997  0.53347  0.9314  1.0000
  C   C131      1.0  0.09942000000000002  0.51426  0.82888  1.0000
  C   C132      1.0  0.99424  0.57445  0.80721  1.0000
  C   C133      1.0  0.0033400000000000066  0.58871  0.76077  1.0000
  C   C134      1.0  0.11765999999999997  0.5429299999999999  0.7350200000000001  1.0000
  C   C135      1.0  0.22315999999999994  0.48275  0.75596  1.0000
  C   C136      1.0  0.21326  0.46873999999999993  0.80232  1.0000
  C   C137      1.0  0.019729999999999987  0.39706  0.90754  1.0000
  C   C138      1.0  0.042280000000000026  0.34902999999999995  0.94891  1.0000
  C   C139      1.0  0.9848399999999998  0.28321  0.96197  1.0000
  C   C140      1.0  0.9012900000000001  0.26491999999999993  0.93394  1.0000
  C   C141      1.0  0.8812600000000002  0.31077000000000005  0.89208  1.0000
  C   C142      1.0  0.9405099999999998  0.3758699999999999  0.87911  1.0000
  C   C143      1.0  0.828  0.19889  0.9501700000000001  1.0000
  C   C144      1.0  0.90445  0.7837  0.20124  1.0000
  C   C145      1.0  0.9311100000000001  0.84336  0.16662000000000005  1.0000
  C   C146      1.0  0.85731  0.86266  0.12919  1.0000
  C   C147      1.0  0.75277  0.82344  0.12633  1.0000
  C   C148      1.0  0.7261800000000002  0.7633499999999999  0.16031  1.0000
  C   C149      1.0  0.80264  0.74303  0.19702  1.0000
  C   C150      1.0  0.6690300000000001  0.84591  0.08741  1.0000
  C   C151      1.0  0.16928000000000004  0.6667  0.23414000000000004  1.0000
  C   C152      1.0  0.2934400000000001  0.6855  0.21012  1.0000
  C   C153      1.0  0.40485999999999994  0.6263  0.19201  1.0000
  C   C154      1.0  0.39610000000000006  0.54683  0.19797  1.0000
  C   C155      1.0  0.27447  0.52699  0.22225  1.0000
  C   C156      1.0  0.16151999999999997  0.58649  0.23982  1.0000
  O   O1        1.0  0.47497000000000006  0.34743999999999997  0.46312  1.0000
  O   O2        1.0  0.66755  0.27306  0.49836  1.0000
  O   O3        1.0  0.15414000000000003  0.70461  0.42666  1.0000
  O   O4        1.0  0.012869999999999951  0.64519  0.47904000000000013  1.0000
  O   O5        1.0  0.6242  0.44981999999999994  0.51081  1.0000
  O   O6        1.0  0.52542  0.3180700000000001  0.58893  1.0000
  O   O7        1.0  0.3337599999999999  0.39403000000000005  0.55383  1.0000
  O   O8        1.0  0.28195000000000003  0.15221999999999997  0.03699  1.0000
  O   O9        1.0  0.43421  0.22679  0.0013  1.0000
  O   O10       1.0  0.2839699999999999  0.79503  0.06965  1.0000
  O   O11       1.0  0.12717000000000006  0.85498  0.01948  1.0000
  O   O12       1.0  0.58539  0.050080000000000034  0.99103  1.0000
  O   O13       1.0  0.4412200000000001  0.18146999999999996  0.90922  1.0000
  O   O14       1.0  0.28632  0.10936999999999998  0.94576  1.0000
  O   O15       1.0  0.52504  0.65255  0.53688  1.0000
  O   O16       1.0  0.33245999999999987  0.72694  0.50164  1.0000
  O   O17       1.0  0.84587  0.29538999999999993  0.57334  1.0000
  O   O18       1.0  0.9871399999999999  0.35480999999999996  0.52096  1.0000
  O   O19       1.0  0.37582  0.55017  0.48919  1.0000
  O   O20       1.0  0.4745899999999999  0.6819200000000001  0.41107  1.0000
  O   O21       1.0  0.6662600000000001  0.6059699999999998  0.44617000000000007  1.0000
  O   O22       1.0  0.7180700000000001  0.84777  0.96301  1.0000
  O   O23       1.0  0.5657999999999997  0.7732099999999998  0.9987000000000003  1.0000
  O   O24       1.0  0.71604  0.20495999999999998  0.93035  1.0000
  O   O25       1.0  0.8728399999999998  0.14502000000000004  0.98052  1.0000
  O   O26       1.0  0.4146199999999999  0.94992  0.00897  1.0000
  O   O27       1.0  0.5587900000000001  0.81853  0.09077000000000003  1.0000
  O   O28       1.0  0.7136899999999999  0.89063  0.05424  1.0000
