data_image0
_chemical_formula_structural       Ag16H96C136N24O32
_chemical_formula_sum              "Ag16 H96 C136 N24 O32"
_cell_length_a       11.8832
_cell_length_b       17.70966
_cell_length_c       18.04191
_cell_angle_alpha    90.01637
_cell_angle_beta     89.94283
_cell_angle_gamma    96.0183

_symmetry_space_group_name_H-M    'P 1'
_symmetry_Int_Tables_number       1

loop_
  _symmetry_equiv_pos_as_xyz
  'x,y,z'

loop_
  _atom_site_type_symbol
  _atom_site_label
  _atom_site_symmetry_multiplicity
  _atom_site_fract_x
  _atom_site_fract_y
  _atom_site_fract_z
  _atom_site_occupancy
  Ag  Ag1       1.0  0.20430999999999994  0.01476  0.29496  1.0000
  Ag  Ag2       1.0  0.25193  0.00488  0.45282999999999995  1.0000
  Ag  Ag3       1.0  0.7502499999999998  0.5061  0.49746999999999997  1.0000
  Ag  Ag4       1.0  0.29545  0.48543  0.79427  1.0000
  Ag  Ag5       1.0  0.24735  0.49461  0.95203  1.0000
  Ag  Ag6       1.0  0.7506699999999998  0.99228  0.9960899999999999  1.0000
  Ag  Ag7       1.0  0.79536  0.98511  0.70513  1.0000
  Ag  Ag8       1.0  0.7480399999999998  0.9953699999999999  0.54711  1.0000
  Ag  Ag9       1.0  0.24955  0.49391999999999997  0.50249  1.0000
  Ag  Ag10      1.0  0.70491  0.5147  0.20583  1.0000
  Ag  Ag11      1.0  0.75275  0.5052099999999998  0.04795  1.0000
  Ag  Ag12      1.0  0.2494  0.007649999999999999  0.00403  1.0000
  Ag  Ag13      1.0  0.50114  0.50017  0.50004  1.0000
  Ag  Ag14      1.0  0.99909  0.9996  0.00016  1.0000
  Ag  Ag15      1.0  0.0010699999999999922  0.49962  0.4996499999999999  1.0000
  Ag  Ag16      1.0  0.49864999999999987  0.00038  0.9995899999999999  1.0000
  H   H1        1.0  0.45012999999999986  0.9890999999999999  0.26716  1.0000
  H   H2        1.0  0.55978  0.8801  0.2389  1.0000
  H   H3        1.0  0.26564  0.73116  0.30835  1.0000
  H   H4        1.0  0.16439  0.8461  0.32288  1.0000
  H   H5        1.0  0.6487799999999999  0.10941  0.48449000000000003  1.0000
  H   H6        1.0  0.60655  0.20474999999999993  0.58085  1.0000
  H   H7        1.0  0.77398  0.22163999999999995  0.49596000000000007  1.0000
  H   H8        1.0  0.7480399999999998  0.25626  0.36968  1.0000
  H   H9        1.0  0.54823  0.26113  0.32529  1.0000
  H   H10       1.0  0.6166999999999999  0.13525  0.35893  1.0000
  H   H11       1.0  0.45404999999999995  0.2869  0.55375  1.0000
  H   H12       1.0  0.4200899999999999  0.31537999999999994  0.41634  1.0000
  H   H13       1.0  0.7549199999999999  0.67969  0.24364  1.0000
  H   H14       1.0  0.65298  0.7922699999999999  0.27172  1.0000
  H   H15       1.0  0.33945  0.6462599999999997  0.24566  1.0000
  H   H16       1.0  0.45466  0.54045  0.219  1.0000
  H   H17       1.0  0.8451699999999999  0.8988399999999998  0.45661  1.0000
  H   H18       1.0  0.8609899999999999  0.78944  0.3693  1.0000
  H   H19       1.0  0.71586  0.78608  0.47082999999999997  1.0000
  H   H20       1.0  0.7745699999999998  0.77597  0.59642  1.0000
  H   H21       1.0  0.98228  0.76935  0.62074  1.0000
  H   H22       1.0  0.9146199999999998  0.89179  0.57929  1.0000
  H   H23       1.0  0.021259999999999987  0.7094199999999999  0.39227  1.0000
  H   H24       1.0  0.07773  0.69522  0.5274  1.0000
  H   H25       1.0  0.04940999999999998  0.5107599999999999  0.76696  1.0000
  H   H26       1.0  0.9396999999999998  0.61976  0.73851  1.0000
  H   H27       1.0  0.23288  0.7688899999999999  0.80905  1.0000
  H   H28       1.0  0.3344199999999999  0.6538999999999998  0.82347  1.0000
  H   H29       1.0  0.8516  0.3897  0.9841300000000001  1.0000
  H   H30       1.0  0.8920799999999997  0.2938399999999999  0.0801  1.0000
  H   H31       1.0  0.7260799999999998  0.27576  0.9947200000000002  1.0000
  H   H32       1.0  0.75469  0.24209999999999998  0.86814  1.0000
  H   H33       1.0  0.9550499999999998  0.23795999999999998  0.8249  1.0000
  H   H34       1.0  0.8819799999999998  0.36252  0.85836  1.0000
  H   H35       1.0  0.04698  0.21337  0.05377  1.0000
  H   H36       1.0  0.08336999999999999  0.18521  0.9165599999999999  1.0000
  H   H37       1.0  0.7446699999999998  0.8202099999999999  0.74317  1.0000
  H   H38       1.0  0.84625  0.7076899999999998  0.77168  1.0000
  H   H39       1.0  0.16011  0.85329  0.74501  1.0000
  H   H40       1.0  0.04517999999999998  0.9591399999999999  0.71807  1.0000
  H   H41       1.0  0.65348  0.60031  0.95464  1.0000
  H   H42       1.0  0.6386599999999999  0.71096  0.86929  1.0000
  H   H43       1.0  0.7822799999999999  0.7117999999999998  0.97153  1.0000
  H   H44       1.0  0.7234299999999998  0.72412  0.09723  1.0000
  H   H45       1.0  0.51523  0.72801  0.12071  1.0000
  H   H46       1.0  0.5856299999999998  0.60683  0.07816  1.0000
  H   H47       1.0  0.47857  0.79092  0.89301  1.0000
  H   H48       1.0  0.42104999999999987  0.80361  0.028259999999999997  1.0000
  H   H49       1.0  0.54956  0.0109  0.73263  1.0000
  H   H50       1.0  0.43998999999999977  0.11996  0.76087  1.0000
  H   H51       1.0  0.73438  0.2688  0.6917  1.0000
  H   H52       1.0  0.8355399999999998  0.15377  0.67718  1.0000
  H   H53       1.0  0.3513699999999999  0.8905999999999997  0.51536  1.0000
  H   H54       1.0  0.3937  0.7953  0.41895  1.0000
  H   H55       1.0  0.22604999999999997  0.77851  0.50363  1.0000
  H   H56       1.0  0.25196999999999997  0.74418  0.63008  1.0000
  H   H57       1.0  0.45152999999999993  0.73868  0.6745  1.0000
  H   H58       1.0  0.38342  0.8646  0.64097  1.0000
  H   H59       1.0  0.54598  0.71305  0.44606999999999997  1.0000
  H   H60       1.0  0.5799299999999998  0.6845499999999999  0.58346  1.0000
  H   H61       1.0  0.24520999999999998  0.3205099999999999  0.7563  1.0000
  H   H62       1.0  0.34697  0.20787999999999998  0.72812  1.0000
  H   H63       1.0  0.66068  0.35365  0.75441  1.0000
  H   H64       1.0  0.54563  0.4594599999999999  0.78143  1.0000
  H   H65       1.0  0.15503  0.10119  0.5433  1.0000
  H   H66       1.0  0.13926  0.21062  0.63061  1.0000
  H   H67       1.0  0.28433  0.21375  0.52902  1.0000
  H   H68       1.0  0.22568  0.22416999999999995  0.40337  1.0000
  H   H69       1.0  0.01801  0.23078  0.37918  1.0000
  H   H70       1.0  0.08494  0.10819999999999998  0.42064  1.0000
  H   H71       1.0  0.9787999999999998  0.29048  0.60764  1.0000
  H   H72       1.0  0.9224599999999998  0.30485  0.4725  1.0000
  H   H73       1.0  0.95098  0.48922999999999994  0.2327  1.0000
  H   H74       1.0  0.060679999999999984  0.38017999999999996  0.26105  1.0000
  H   H75       1.0  0.7670799999999998  0.23114  0.1911  1.0000
  H   H76       1.0  0.6655699999999999  0.3461999999999999  0.1768  1.0000
  H   H77       1.0  0.14834999999999998  0.6102399999999999  0.01569  1.0000
  H   H78       1.0  0.10769  0.7061199999999999  0.9197599999999999  1.0000
  H   H79       1.0  0.27383  0.72412  0.00511  1.0000
  H   H80       1.0  0.24532999999999994  0.7578099999999999  0.13168  1.0000
  H   H81       1.0  0.04505999999999995  0.7619099999999998  0.17502  1.0000
  H   H82       1.0  0.11795999999999998  0.63739  0.14153  1.0000
  H   H83       1.0  0.9530199999999999  0.78668  0.94617  1.0000
  H   H84       1.0  0.9167299999999998  0.81479  0.08342  1.0000
  H   H85       1.0  0.25526999999999994  0.17961  0.25681  1.0000
  H   H86       1.0  0.15384999999999996  0.29217  0.2282  1.0000
  H   H87       1.0  0.8398199999999998  0.14677  0.25496  1.0000
  H   H88       1.0  0.9546299999999998  0.04089  0.28221  1.0000
  H   H89       1.0  0.34654999999999997  0.39951  0.0453  1.0000
  H   H90       1.0  0.36130999999999996  0.28892  0.13071  1.0000
  H   H91       1.0  0.21767  0.28813  0.028509999999999997  1.0000
  H   H92       1.0  0.2765099999999999  0.2757499999999999  0.9027499999999999  1.0000
  H   H93       1.0  0.4846499999999999  0.27173  0.87927  1.0000
  H   H94       1.0  0.41442999999999985  0.3929799999999999  0.9217999999999998  1.0000
  H   H95       1.0  0.52135  0.20890999999999998  0.10701  1.0000
  H   H96       1.0  0.5788699999999999  0.19618999999999995  0.9717699999999999  1.0000
  C   C1        1.0  0.41257  0.93077  0.27366  1.0000
  C   C2        1.0  0.4738599999999999  0.86968  0.26002  1.0000
  C   C3        1.0  0.4224199999999999  0.79557  0.27158  1.0000
  C   C4        1.0  0.3087699999999999  0.78661  0.29455  1.0000
  C   C5        1.0  0.2523999999999999  0.8503899999999998  0.30534  1.0000
  C   C6        1.0  0.4693899999999999  0.09264  0.50068  1.0000
  C   C7        1.0  0.5756699999999999  0.14219999999999994  0.47719999999999996  1.0000
  C   C8        1.0  0.59581  0.21705  0.52213  1.0000
  C   C9        1.0  0.70611  0.25842  0.48878000000000005  1.0000
  C   C10       1.0  0.74127  0.33473999999999987  0.52556  1.0000
  C   C11       1.0  0.69936  0.36488  0.40519  1.0000
  C   C12       1.0  0.68581  0.27817  0.40695  1.0000
  C   C13       1.0  0.5635199999999999  0.24699999999999997  0.38326  1.0000
  C   C14       1.0  0.5556  0.15976999999999997  0.39522  1.0000
  C   C15       1.0  0.43755  0.11961  0.37956  1.0000
  C   C16       1.0  0.50116  0.26528  0.50806  1.0000
  C   C17       1.0  0.48376  0.28039  0.43611  1.0000
  C   C18       1.0  0.66302  0.67566  0.24522  1.0000
  C   C19       1.0  0.6051199999999999  0.7377999999999998  0.26053  1.0000
  C   C20       1.0  0.48632999999999993  0.72946  0.26077  1.0000
  C   C21       1.0  0.43111999999999995  0.65664  0.24766  1.0000
  C   C22       1.0  0.49446999999999997  0.59692  0.23251999999999998  1.0000
  C   C23       1.0  0.017749999999999995  0.91382  0.42115  1.0000
  C   C24       1.0  0.91964  0.86667  0.4601100000000001  1.0000
  C   C25       1.0  0.8872399999999998  0.7859599999999998  0.42729  1.0000
  C   C26       1.0  0.7864699999999999  0.75117  0.47665  1.0000
  C   C27       1.0  0.74651  0.66928  0.45547  1.0000
  C   C28       1.0  0.8088999999999998  0.66002  0.57513  1.0000
  C   C29       1.0  0.8248399999999998  0.74509  0.55785  1.0000
  C   C30       1.0  0.9520499999999997  0.77499  0.56408  1.0000
  C   C31       1.0  0.9618799999999997  0.85933  0.54008  1.0000
  C   C32       1.0  0.08392999999999999  0.89651  0.53779  1.0000
  C   C33       1.0  0.9836  0.7380199999999998  0.43802  1.0000
  C   C34       1.0  0.014839999999999996  0.73127  0.50907  1.0000
  C   C35       1.0  0.08674  0.56914  0.77361  1.0000
  C   C36       1.0  0.025479999999999975  0.63019  0.75984  1.0000
  C   C37       1.0  0.07672  0.70429  0.77171  1.0000
  C   C38       1.0  0.19007999999999997  0.71335  0.79513  1.0000
  C   C39       1.0  0.24649999999999994  0.64961  0.80586  1.0000
  C   C40       1.0  0.031239999999999997  0.40559  2e-05  1.0000
  C   C41       1.0  0.9243299999999999  0.35659  0.9766399999999998  1.0000
  C   C42       1.0  0.90406  0.28172  0.02146  1.0000
  C   C43       1.0  0.79484  0.23965  0.98769  1.0000
  C   C44       1.0  0.76123  0.16292  0.02426  1.0000
  C   C45       1.0  0.8033199999999999  0.1338  0.9036299999999999  1.0000
  C   C46       1.0  0.8162599999999998  0.2203  0.90588  1.0000
  C   C47       1.0  0.93861  0.25199  0.88277  1.0000
  C   C48       1.0  0.9442199999999998  0.33917  0.89452  1.0000
  C   C49       1.0  0.06121  0.38041  0.8781  1.0000
  C   C50       1.0  0.9998399999999998  0.23433  0.00786  1.0000
  C   C51       1.0  0.01842  0.21938  0.936  1.0000
  C   C52       1.0  0.8365399999999998  0.82421  0.7448  1.0000
  C   C53       1.0  0.89425  0.7620799999999999  0.76036  1.0000
  C   C54       1.0  0.012979999999999986  0.77037  0.76063  1.0000
  C   C55       1.0  0.06843999999999997  0.8430599999999999  0.7472  1.0000
  C   C56       1.0  0.005299999999999997  0.90279  0.73191  1.0000
  C   C57       1.0  0.4805599999999999  0.5867199999999999  0.9200300000000001  1.0000
  C   C58       1.0  0.57933  0.63265  0.9591  1.0000
  C   C59       1.0  0.61176  0.71349  0.92725  1.0000
  C   C60       1.0  0.7122299999999999  0.74721  0.97711  1.0000
  C   C61       1.0  0.7527399999999999  0.8285099999999997  0.95531  1.0000
  C   C62       1.0  0.6870199999999999  0.83939  0.07384  1.0000
  C   C63       1.0  0.67295  0.754  0.058039999999999994  1.0000
  C   C64       1.0  0.54624  0.7233  0.06408  1.0000
  C   C65       1.0  0.5379  0.63929  0.03931  1.0000
  C   C66       1.0  0.41622999999999993  0.60232  0.03734  1.0000
  C   C67       1.0  0.5154499999999999  0.7614699999999998  0.93843  1.0000
  C   C68       1.0  0.48359999999999975  0.7674599999999998  0.00948  1.0000
  C   C69       1.0  0.58717  0.06921999999999999  0.72617  1.0000
  C   C70       1.0  0.52594  0.13034  0.73979  1.0000
  C   C71       1.0  0.5775099999999999  0.20442999999999995  0.72832  1.0000
  C   C72       1.0  0.6911899999999999  0.21335  0.70544  1.0000
  C   C73       1.0  0.74752  0.14954  0.69469  1.0000
  C   C74       1.0  0.53073  0.90734  0.49923  1.0000
  C   C75       1.0  0.42441999999999996  0.85776  0.52268  1.0000
  C   C76       1.0  0.4043  0.78295  0.47766  1.0000
  C   C77       1.0  0.29381999999999997  0.74165  0.5108  1.0000
  C   C78       1.0  0.25867999999999997  0.66535  0.47376999999999997  1.0000
  C   C79       1.0  0.2982699999999999  0.63522  0.59459  1.0000
  C   C80       1.0  0.31378  0.72188  0.5927  1.0000
  C   C81       1.0  0.4362099999999999  0.75275  0.61651  1.0000
  C   C82       1.0  0.44446  0.84009  0.60463  1.0000
  C   C83       1.0  0.56248  0.8802699999999998  0.62034  1.0000
  C   C84       1.0  0.4988099999999999  0.73462  0.49174  1.0000
  C   C85       1.0  0.5160599999999999  0.71939  0.56369  1.0000
  C   C86       1.0  0.33709999999999996  0.3244799999999999  0.7548  1.0000
  C   C87       1.0  0.39490999999999987  0.26231  0.73939  1.0000
  C   C88       1.0  0.51368  0.27057  0.73918  1.0000
  C   C89       1.0  0.569  0.34334  0.75241  1.0000
  C   C90       1.0  0.5057599999999999  0.4030599999999999  0.76774  1.0000
  C   C91       1.0  0.9823499999999997  0.08617  0.5787  1.0000
  C   C92       1.0  0.08056  0.13338  0.53982  1.0000
  C   C93       1.0  0.11301  0.2141  0.57262  1.0000
  C   C94       1.0  0.21394999999999997  0.24884999999999996  0.52327  1.0000
  C   C95       1.0  0.25381  0.33073  0.54452  1.0000
  C   C96       1.0  0.19131  0.34008  0.42487  1.0000
  C   C97       1.0  0.17556  0.25502  0.44206  1.0000
  C   C98       1.0  0.04838999999999998  0.22523999999999997  0.43581  1.0000
  C   C99       1.0  0.03824999999999999  0.14097  0.45991  1.0000
  C   C100      1.0  0.9158399999999998  0.10482999999999999  0.46242  1.0000
  C   C101      1.0  0.01666  0.26204  0.56187  1.0000
  C   C102      1.0  0.9855299999999998  0.26892  0.49080999999999997  1.0000
  C   C103      1.0  0.9135599999999999  0.43086  0.22621  1.0000
  C   C104      1.0  0.9748199999999999  0.36979  0.23985999999999996  1.0000
  C   C105      1.0  0.9233999999999998  0.2957  0.22819  1.0000
  C   C106      1.0  0.80994  0.28668  0.20498  1.0000
  C   C107      1.0  0.75351  0.35044  0.19436  1.0000
  C   C108      1.0  0.96873  0.59437  0.9998499999999999  1.0000
  C   C109      1.0  0.07564999999999997  0.64336  0.02323  1.0000
  C   C110      1.0  0.09585999999999996  0.7182499999999998  0.97842  1.0000
  C   C111      1.0  0.20514999999999997  0.7602799999999998  0.01216  1.0000
  C   C112      1.0  0.23896999999999993  0.837  0.97561  1.0000
  C   C113      1.0  0.1968599999999999  0.8661199999999998  0.09621  1.0000
  C   C114      1.0  0.18369999999999995  0.77963  0.09399  1.0000
  C   C115      1.0  0.061459999999999966  0.74794  0.11712999999999998  1.0000
  C   C116      1.0  0.05575  0.66074  0.10533  1.0000
  C   C117      1.0  0.9387299999999998  0.61961  0.12169  1.0000
  C   C118      1.0  0.0001499999999999932  0.7656699999999999  0.99206  1.0000
  C   C119      1.0  0.9815999999999998  0.7805699999999998  0.06394  1.0000
  C   C120      1.0  0.16340999999999997  0.17566  0.25521  1.0000
  C   C121      1.0  0.10577999999999997  0.23781  0.23955  1.0000
  C   C122      1.0  0.9870599999999995  0.22957999999999998  0.23929  1.0000
  C   C123      1.0  0.9315  0.15693  0.25281  1.0000
  C   C124      1.0  0.9945399999999998  0.09721  0.26827  1.0000
  C   C125      1.0  0.51952  0.41315  0.07994  1.0000
  C   C126      1.0  0.42075  0.3672  0.04087  1.0000
  C   C127      1.0  0.3882199999999999  0.28636  0.07275  1.0000
  C   C128      1.0  0.28765999999999997  0.25269  0.02288  1.0000
  C   C129      1.0  0.24726999999999993  0.17144  0.04475  1.0000
  C   C130      1.0  0.31294  0.16049  0.92619  1.0000
  C   C131      1.0  0.32697  0.24588  0.9419599999999999  1.0000
  C   C132      1.0  0.4537300000000001  0.27653  0.93591  1.0000
  C   C133      1.0  0.46220999999999995  0.36056  0.96066  1.0000
  C   C134      1.0  0.58388  0.39758  0.9626299999999999  1.0000
  C   C135      1.0  0.4844599999999999  0.23834999999999998  0.061579999999999996  1.0000
  C   C136      1.0  0.5163  0.23234000000000002  0.9905199999999998  1.0000
  N   N1        1.0  0.30362999999999996  0.92132  0.29568  1.0000
  N   N2        1.0  0.3947399999999999  0.08259999999999998  0.44154  1.0000
  N   N3        1.0  0.73452  0.39245  0.47445000000000004  1.0000
  N   N4        1.0  0.6086499999999999  0.6065  0.2305  1.0000
  N   N5        1.0  0.10620999999999996  0.9300899999999999  0.46929000000000004  1.0000
  N   N6        1.0  0.76446  0.62118  0.51366  1.0000
  N   N7        1.0  0.19545  0.57867  0.79594  1.0000
  N   N8        1.0  0.10457999999999996  0.41691999999999996  0.9402000000000001  1.0000
  N   N9        1.0  0.7686999999999999  0.10567999999999997  0.9727399999999999  1.0000
  N   N10       1.0  0.89111  0.89326  0.72997  1.0000
  N   N11       1.0  0.39302  0.5691799999999998  0.96874  1.0000
  N   N12       1.0  0.73436  0.87737  0.01275  1.0000
  N   N13       1.0  0.6961799999999998  0.07861999999999998  0.70424  1.0000
  N   N14       1.0  0.6053899999999999  0.9173099999999998  0.55838  1.0000
  N   N15       1.0  0.26458999999999994  0.6077  0.525  1.0000
  N   N16       1.0  0.39158  0.3935399999999999  0.76974  1.0000
  N   N17       1.0  0.8937199999999998  0.07024999999999999  0.5305  1.0000
  N   N18       1.0  0.23555000000000004  0.37889  0.4863799999999999  1.0000
  N   N19       1.0  0.8046699999999997  0.4213699999999999  0.20419  1.0000
  N   N20       1.0  0.8953099999999998  0.58307  0.05963999999999999  1.0000
  N   N21       1.0  0.23177999999999996  0.8941999999999998  0.02715  1.0000
  N   N22       1.0  0.10873  0.10669999999999998  0.27023  1.0000
  N   N23       1.0  0.6071499999999999  0.4305899999999999  0.03126  1.0000
  N   N24       1.0  0.26576999999999995  0.12250999999999998  0.98734  1.0000
  O   O1        1.0  0.67916  0.40515  0.35227  1.0000
  O   O2        1.0  0.77193  0.3449  0.59044  1.0000
  O   O3        1.0  0.4510899999999999  0.06483  0.5627  1.0000
  O   O4        1.0  0.38900999999999997  0.1208  0.31847  1.0000
  O   O5        1.0  0.15379999999999994  0.8973599999999998  0.58846  1.0000
  O   O6        1.0  0.016549999999999995  0.9347299999999998  0.35541  1.0000
  O   O7        1.0  0.70317  0.64766  0.39612  1.0000
  O   O8        1.0  0.83424  0.62937  0.63329  1.0000
  O   O9        1.0  0.8238999999999999  0.09429  0.85024  1.0000
  O   O10       1.0  0.73131  0.15173  0.08918  1.0000
  O   O11       1.0  0.051519999999999976  0.43170999999999987  0.06252  1.0000
  O   O12       1.0  0.10842  0.37996  0.81647  1.0000
  O   O13       1.0  0.34727999999999987  0.60223  0.08854  1.0000
  O   O14       1.0  0.48038999999999993  0.56831  0.85353  1.0000
  O   O15       1.0  0.7955399999999999  0.849  0.89549  1.0000
  O   O16       1.0  0.6573599999999999  0.87094  0.13047  1.0000
  O   O17       1.0  0.31489  0.59478  0.64805  1.0000
  O   O18       1.0  0.22855  0.65521  0.40872  1.0000
  O   O19       1.0  0.5489299999999999  0.93522  0.43724  1.0000
  O   O20       1.0  0.61096  0.87911  0.68147  1.0000
  O   O21       1.0  0.84567  0.10610999999999997  0.41214  1.0000
  O   O22       1.0  0.9834399999999998  0.06508999999999998  0.64438  1.0000
  O   O23       1.0  0.29696  0.35244  0.60389  1.0000
  O   O24       1.0  0.16571999999999998  0.37072  0.36676  1.0000
  O   O25       1.0  0.17644  0.9057  0.14958  1.0000
  O   O26       1.0  0.26877  0.84824  0.9106600000000001  1.0000
  O   O27       1.0  0.94851  0.56825  0.93737  1.0000
  O   O28       1.0  0.8914  0.62022  0.18325  1.0000
  O   O29       1.0  0.65273  0.39786  0.9113500000000001  1.0000
  O   O30       1.0  0.5196  0.43174  0.14638  1.0000
  O   O31       1.0  0.20459  0.15099  0.10461  1.0000
  O   O32       1.0  0.34267  0.12901999999999997  0.86954  1.0000
