data_image0
_chemical_formula_structural       Cd12H96C162N18O48
_chemical_formula_sum              "Cd12 H96 C162 N18 O48"
_cell_length_a       10.65475
_cell_length_b       19.87919
_cell_length_c       23.98163
_cell_angle_alpha    73.63066
_cell_angle_beta     83.65097
_cell_angle_gamma    89.71417000000001

_space_group_name_H-M_alt    "P 1"
_space_group_IT_number       1

loop_
  _space_group_symop_operation_xyz
  'x, y, z'

loop_
  _atom_site_type_symbol
  _atom_site_label
  _atom_site_symmetry_multiplicity
  _atom_site_fract_x
  _atom_site_fract_y
  _atom_site_fract_z
  _atom_site_occupancy
  Cd  Cd1       1.0  0.10839  0.22415  0.23714  1.0000
  Cd  Cd2       1.0  0.69508  0.15644  0.25874  1.0000
  Cd  Cd3       1.0  0.08628  0.6588400000000001  0.25345  1.0000
  Cd  Cd4       1.0  0.89162  0.7758499999999999  0.7628499999999999  1.0000
  Cd  Cd5       1.0  0.4468699999999999  0.04002999999999999  0.76283  1.0000
  Cd  Cd6       1.0  0.75298  0.54202  0.7764099999999999  1.0000
  Cd  Cd7       1.0  0.30493  0.8435600000000001  0.7412599999999999  1.0000
  Cd  Cd8       1.0  0.67634  0.71167  0.268  1.0000
  Cd  Cd9       1.0  0.32368  0.28833  0.732  1.0000
  Cd  Cd10      1.0  0.91373  0.3411600000000001  0.7465499999999998  1.0000
  Cd  Cd11      1.0  0.55315  0.95997  0.23716999999999994  1.0000
  Cd  Cd12      1.0  0.24702999999999997  0.45798000000000005  0.22357999999999995  1.0000
  H   H1        1.0  0.30079999999999996  0.9233099999999999  0.25444  1.0000
  H   H2        1.0  0.66894  0.57626  0.37395  1.0000
  H   H3        1.0  0.19640000000000005  0.035609999999999996  0.25683  1.0000
  H   H4        1.0  0.66375  0.62609  0.1725  1.0000
  H   H5        1.0  0.8059099999999999  0.09236  0.15815  1.0000
  H   H6        1.0  0.3320599999999999  0.46519999999999995  0.51769  1.0000
  H   H7        1.0  0.21874000000000007  0.66218  0.9586199999999998  1.0000
  H   H8        1.0  0.5050199999999999  0.13462999999999997  0.90532  1.0000
  H   H9        1.0  0.25457  0.3221399999999999  0.32959  1.0000
  H   H10       1.0  0.3951799999999999  0.8079500000000001  0.4524599999999999  1.0000
  H   H11       1.0  0.5067  0.7137999999999999  0.98416  1.0000
  H   H12       1.0  0.87043  0.12230999999999999  0.051219999999999995  1.0000
  H   H13       1.0  0.8569299999999999  0.8476800000000001  0.04526  1.0000
  H   H14       1.0  0.16808  0.12764999999999999  0.15063  1.0000
  H   H15       1.0  0.99751  0.62401  0.4827499999999999  1.0000
  H   H16       1.0  0.7432400000000001  0.025680000000000015  0.3728699999999999  1.0000
  H   H17       1.0  0.47662  0.83997  0.93004  1.0000
  H   H18       1.0  0.32571  0.24679000000000004  0.51908  1.0000
  H   H19       1.0  0.28196000000000004  0.36344000000000004  0.9327599999999998  1.0000
  H   H20       1.0  0.58898  0.53312  0.25675  1.0000
  H   H21       1.0  0.69922  0.07668999999999994  0.74556  1.0000
  H   H22       1.0  0.495  0.8653699999999999  0.09467999999999999  1.0000
  H   H23       1.0  0.8036100000000002  0.9643800000000001  0.7431599999999998  1.0000
  H   H24       1.0  0.04606999999999999  0.5008  0.33089  1.0000
  H   H25       1.0  0.12357999999999997  0.35596999999999995  0.007799999999999998  1.0000
  H   H26       1.0  0.5895  0.22089  0.35652999999999996  1.0000
  H   H27       1.0  0.82968  0.18261  0.73764  1.0000
  H   H28       1.0  0.44604  0.79964  0.53599  1.0000
  H   H29       1.0  0.60484  0.19205  0.54754  1.0000
  H   H30       1.0  0.6051699999999999  0.33775  0.9225499999999999  1.0000
  H   H31       1.0  0.9490099999999999  0.39493  0.85358  1.0000
  H   H32       1.0  0.21755  0.13693  0.04479  1.0000
  H   H33       1.0  0.17034  0.81739  0.26236  1.0000
  H   H34       1.0  0.9700500000000001  0.31288000000000005  0.62345  1.0000
  H   H35       1.0  0.12959  0.8776799999999999  0.94878  1.0000
  H   H36       1.0  0.029970000000000004  0.68712  0.37654999999999994  1.0000
  H   H37       1.0  0.71805  0.63656  0.06724  1.0000
  H   H38       1.0  0.95394  0.49920000000000003  0.66911  1.0000
  H   H39       1.0  0.41357  0.36891999999999997  0.07241  1.0000
  H   H40       1.0  0.83193  0.8723499999999998  0.84937  1.0000
  H   H41       1.0  0.7283499999999998  0.29995  0.1489  1.0000
  H   H42       1.0  0.05100999999999999  0.60507  0.14641999999999997  1.0000
  H   H43       1.0  0.13102  0.8087599999999999  0.14749  1.0000
  H   H44       1.0  0.91883  0.66241  0.88412  1.0000
  H   H45       1.0  0.78128  0.33781  0.04138  1.0000
  H   H46       1.0  0.5545  0.16398  0.6555  1.0000
  H   H47       1.0  0.63262  0.47596  0.67739  1.0000
  H   H48       1.0  0.42336  0.04957000000000003  0.32431999999999994  1.0000
  H   H49       1.0  0.3310799999999999  0.42373999999999995  0.62605  1.0000
  H   H50       1.0  0.6743099999999999  0.7531999999999998  0.48091999999999996  1.0000
  H   H51       1.0  0.74544  0.67786  0.6704  1.0000
  H   H52       1.0  0.5539699999999997  0.20035999999999995  0.46401  1.0000
  H   H53       1.0  0.8237800000000001  0.15102000000000004  0.9605999999999999  1.0000
  H   H54       1.0  0.58645  0.6310799999999999  0.9275799999999998  1.0000
  H   H55       1.0  0.002510000000000006  0.37598999999999994  0.51724  1.0000
  H   H56       1.0  0.41104  0.4668800000000001  0.74324  1.0000
  H   H57       1.0  0.8764299999999999  0.6440299999999999  0.9921899999999999  1.0000
  H   H58       1.0  0.5128499999999999  0.57541  0.75303  1.0000
  H   H59       1.0  0.61701  0.32131  0.2457  1.0000
  H   H60       1.0  0.021490000000000016  0.42991000000000007  0.43360999999999994  1.0000
  H   H61       1.0  0.2716599999999999  0.70005  0.8511  1.0000
  H   H62       1.0  0.8689900000000002  0.19124  0.85251  1.0000
  H   H63       1.0  0.6119799999999999  0.50921  0.57206  1.0000
  H   H64       1.0  0.36738999999999994  0.52404  0.32259999999999994  1.0000
  H   H65       1.0  0.2619699999999999  0.28048999999999996  0.43691  1.0000
  H   H66       1.0  0.2063000000000001  0.1714600000000001  0.8476899999999998  1.0000
  H   H67       1.0  0.25677  0.97432  0.62713  1.0000
  H   H68       1.0  0.38203  0.03173000000000003  0.4311499999999999  1.0000
  H   H69       1.0  0.41051  0.7791099999999997  0.64347  1.0000
  H   H70       1.0  0.48716  0.42459  0.24697  1.0000
  H   H71       1.0  0.72041  0.9972399999999999  0.48189999999999994  1.0000
  H   H72       1.0  0.31679  0.21538  0.62733  1.0000
  H   H73       1.0  0.33625999999999995  0.37390999999999996  0.82749  1.0000
  H   H74       1.0  0.39483999999999997  0.66225  0.07745  1.0000
  H   H75       1.0  0.1941  0.9076399999999998  0.84184  1.0000
  H   H76       1.0  0.53708  0.21149  0.9692999999999999  1.0000
  H   H77       1.0  0.6832299999999999  0.7846099999999999  0.37266999999999995  1.0000
  H   H78       1.0  0.61798  0.9682699999999997  0.56884  1.0000
  H   H79       1.0  0.08973  0.6369  0.0381  1.0000
  H   H80       1.0  0.14309  0.15230999999999997  0.95474  1.0000
  H   H81       1.0  0.7937199999999999  0.82854  0.15231  1.0000
  H   H82       1.0  0.17622999999999997  0.84897  0.03939999999999999  1.0000
  H   H83       1.0  0.5766499999999999  0.95042  0.6756699999999999  1.0000
  H   H84       1.0  0.46294  0.78851  0.03069  1.0000
  H   H85       1.0  0.6679599999999999  0.53479  0.4823  1.0000
  H   H86       1.0  0.3830100000000001  0.67869  0.7543  1.0000
  H   H87       1.0  0.78246  0.86307  0.9552  1.0000
  H   H88       1.0  0.49331  0.2862  0.01583  1.0000
  H   H89       1.0  0.9785299999999999  0.57009  0.56639  1.0000
  H   H90       1.0  0.44551  0.83602  0.3445  1.0000
  H   H91       1.0  0.91029  0.3631  0.96189  1.0000
  H   H92       1.0  0.08118000000000002  0.33758999999999995  0.11588  1.0000
  H   H93       1.0  0.7380399999999999  0.71951  0.56308  1.0000
  H   H94       1.0  0.2796  0.002759999999999993  0.51809  1.0000
  H   H95       1.0  0.52339  0.16003  0.06995999999999998  1.0000
  H   H96       1.0  0.3880300000000001  0.49078999999999995  0.42793999999999993  1.0000
  C   C1        1.0  0.52067  0.16922000000000004  0.7896799999999999  1.0000
  C   C2        1.0  0.55429  0.21579999999999994  0.8255  1.0000
  C   C3        1.0  0.7605199999999999  0.26221  0.12554  1.0000
  C   C4        1.0  0.61393  0.08232999999999999  0.54769  1.0000
  C   C5        1.0  0.58292  0.0031200000000000112  0.64561  1.0000
  C   C6        1.0  0.66177  0.37098  0.24429999999999996  1.0000
  C   C7        1.0  0.52694  0.73226  0.9368399999999998  1.0000
  C   C8        1.0  0.49071  0.19792  0.09302  1.0000
  C   C9        1.0  0.20426000000000002  0.05804000000000004  0.7437699999999999  1.0000
  C   C10       1.0  0.59782  0.28541  0.79923  1.0000
  C   C11       1.0  0.40266  0.8625199999999998  0.42632  1.0000
  C   C12       1.0  0.70717  0.67426  0.14292  1.0000
  C   C13       1.0  0.20623  0.62433  0.7585  1.0000
  C   C14       1.0  0.60759  0.013820000000000035  0.5854499999999999  1.0000
  C   C15       1.0  0.16179000000000002  0.83635  0.9294899999999999  1.0000
  C   C16       1.0  0.92188  0.3413100000000001  0.8792199999999999  1.0000
  C   C17       1.0  0.32959  0.35968  0.5076399999999999  1.0000
  C   C18       1.0  0.07851999999999999  0.19521  0.73513  1.0000
  C   C19       1.0  0.739  0.68037  0.08383  1.0000
  C   C20       1.0  0.5093  0.80207  0.90698  1.0000
  C   C21       1.0  0.6691699999999998  0.61307  0.4000799999999999  1.0000
  C   C22       1.0  0.3860799999999999  0.9176599999999999  0.45230999999999993  1.0000
  C   C23       1.0  0.85867  0.010570000000000001  0.74269  1.0000
  C   C24       1.0  0.4793399999999999  0.83077  0.21032  1.0000
  C   C25       1.0  0.32621999999999995  0.28853999999999996  0.54021  1.0000
  C   C26       1.0  0.39595999999999987  0.19642  0.25205  1.0000
  C   C27       1.0  0.6704200000000001  0.64031  0.49236  1.0000
  C   C28       1.0  0.49585  0.09985  0.18349999999999997  1.0000
  C   C29       1.0  0.2828  0.35756  0.35362  1.0000
  C   C30       1.0  0.86489  0.69555  0.9622599999999999  1.0000
  C   C31       1.0  0.23949999999999996  0.7377900000000001  0.87445  1.0000
  C   C32       1.0  0.14134  0.9894299999999999  0.2573  1.0000
  C   C33       1.0  0.7917299999999999  0.28316  0.06521  1.0000
  C   C34       1.0  0.9627899999999998  0.47379  0.63406  1.0000
  C   C35       1.0  0.83822  0.16364  0.07051  1.0000
  C   C36       1.0  0.3468399999999999  0.4701199999999999  0.34918  1.0000
  C   C37       1.0  0.40193999999999996  0.8398899999999999  0.55361  1.0000
  C   C38       1.0  0.5312999999999999  0.8253899999999998  0.84579  1.0000
  C   C39       1.0  0.8653099999999999  0.30944  0.24511  1.0000
  C   C40       1.0  0.41709  0.99688  0.35439  1.0000
  C   C41       1.0  0.6342  0.09635999999999997  0.48332  1.0000
  C   C42       1.0  0.009770000000000004  0.9947199999999999  0.25884  1.0000
  C   C43       1.0  0.5041599999999999  0.90014  0.8165  1.0000
  C   C44       1.0  0.6210099999999998  0.31515999999999994  0.73333  1.0000
  C   C45       1.0  0.33783  0.34066  0.18545  1.0000
  C   C46       1.0  0.4468  0.7676  0.07799  1.0000
  C   C47       1.0  0.06452000000000001  0.06443000000000003  0.74041  1.0000
  C   C48       1.0  0.5718399999999999  0.68596  0.90569  1.0000
  C   C49       1.0  0.60192  0.7095600000000001  0.8448499999999999  1.0000
  C   C50       1.0  0.4644599999999999  0.81074  0.11339  1.0000
  C   C51       1.0  0.47307  0.26774  0.06316  1.0000
  C   C52       1.0  0.18474  0.18264999999999998  0.05800999999999999  1.0000
  C   C53       1.0  0.07813  0.65869  0.12077  1.0000
  C   C54       1.0  0.7028199999999999  0.06275  0.3953999999999999  1.0000
  C   C55       1.0  0.146  0.79476  0.06067  1.0000
  C   C56       1.0  0.36582  0.90364  0.51668  1.0000
  C   C57       1.0  0.64553  0.48948  0.25052  1.0000
  C   C58       1.0  0.021790000000000014  0.4866599999999999  0.42423  1.0000
  C   C59       1.0  0.379  0.68484  0.26667  1.0000
  C   C60       1.0  0.12193  0.77253  0.12141  1.0000
  C   C61       1.0  0.42817  0.3140299999999999  0.0943  1.0000
  C   C62       1.0  0.35448  0.51051  0.74947  1.0000
  C   C63       1.0  0.6431599999999997  0.5491  0.59095  1.0000
  C   C64       1.0  0.33214  0.4092299999999999  0.5394  1.0000
  C   C65       1.0  0.20654999999999998  0.25656999999999996  0.95338  1.0000
  C   C66       1.0  0.841  0.8228899999999999  0.8826799999999998  1.0000
  C   C67       1.0  0.9902400000000002  0.005270000000000009  0.74116  1.0000
  C   C68       1.0  0.33507  0.59775  0.18944  1.0000
  C   C69       1.0  0.8531100000000003  0.43987  0.23980999999999994  1.0000
  C   C70       1.0  0.99491  0.44703  0.23357999999999998  1.0000
  C   C71       1.0  0.3568499999999999  0.45089999999999997  0.40905  1.0000
  C   C72       1.0  0.33085  0.38693000000000005  0.59992  1.0000
  C   C73       1.0  0.46870999999999996  0.17461  0.15421  1.0000
  C   C74       1.0  0.97278  0.3699299999999999  0.60797  1.0000
  C   C75       1.0  0.1866499999999999  0.20213  0.9283499999999999  1.0000
  C   C76       1.0  0.5710999999999998  0.12257  0.63404  1.0000
  C   C77       1.0  0.71721  0.64244  0.64637  1.0000
  C   C78       1.0  0.40832  0.69778  0.10362  1.0000
  C   C79       1.0  0.95339  0.0644  0.2597  1.0000
  C   C80       1.0  0.14691000000000004  0.5601300000000001  0.76019  1.0000
  C   C81       1.0  0.79378  0.37566999999999995  0.2415  1.0000
  C   C82       1.0  0.5355600000000001  0.18925  0.88661  1.0000
  C   C83       1.0  0.66494  0.40224999999999994  0.8105499999999999  1.0000
  C   C84       1.0  0.16794  0.43742  0.74516  1.0000
  C   C85       1.0  0.61683  0.17218  0.38611  1.0000
  C   C86       1.0  0.55321  0.2324  0.92201  1.0000
  C   C87       1.0  0.44572999999999996  0.7842  0.1745  1.0000
  C   C88       1.0  0.6771699999999999  0.72985  0.39907999999999993  1.0000
  C   C89       1.0  0.005779999999999977  0.12888  0.7386  1.0000
  C   C90       1.0  0.99423  0.87112  0.26139  1.0000
  C   C91       1.0  0.81337  0.79787  0.07165  1.0000
  C   C92       1.0  0.32634  0.3817499999999999  0.4433  1.0000
  C   C93       1.0  0.19603  0.85357  0.86933  1.0000
  C   C94       1.0  0.2971899999999999  0.93725  0.6046  1.0000
  C   C95       1.0  0.3980899999999999  0.29043  0.15514  1.0000
  C   C96       1.0  0.6621899999999998  0.65933  0.81455  1.0000
  C   C97       1.0  0.8317499999999999  0.23333999999999996  0.03599999999999999  1.0000
  C   C98       1.0  0.67368  0.61824  0.5567  1.0000
  C   C99       1.0  0.6171700000000001  0.32824000000000003  0.8354999999999998  1.0000
  C   C100      1.0  0.39242  0.98618  0.41455  1.0000
  C   C101      1.0  0.68828  0.04723  0.45621999999999996  1.0000
  C   C102      1.0  0.31174  0.9527699999999999  0.54378  1.0000
  C   C103      1.0  0.16827000000000006  0.7666600000000002  0.9639999999999997  1.0000
  C   C104      1.0  0.28890999999999994  0.3346799999999999  0.41368999999999995  1.0000
  C   C105      1.0  0.8780899999999999  0.22745999999999997  0.87859  1.0000
  C   C106      1.0  0.2610199999999999  0.3196299999999999  0.91617  1.0000
  C   C107      1.0  0.22272000000000006  0.50408  0.7524899999999998  1.0000
  C   C108      1.0  0.65317  0.5298800000000001  0.6508099999999999  1.0000
  C   C109      1.0  0.9782199999999999  0.51334  0.57576  1.0000
  C   C110      1.0  0.005100000000000054  0.55297  0.7664099999999998  1.0000
  C   C111      1.0  0.6737899999999999  0.71146  0.45979  1.0000
  C   C112      1.0  0.42891  0.8774299999999999  0.36596  1.0000
  C   C113      1.0  0.80103  0.07341000000000003  0.7429899999999999  1.0000
  C   C114      1.0  0.7111099999999999  0.6653200000000001  0.5863  1.0000
  C   C115      1.0  0.79346  0.74343  0.04661  1.0000
  C   C116      1.0  0.42095999999999995  0.22076999999999997  0.18596  1.0000
  C   C117      1.0  0.02722999999999996  0.6300599999999997  0.39202  1.0000
  C   C118      1.0  0.29285  0.32574000000000003  0.85707  1.0000
  C   C119      1.0  0.40219  0.71459  0.20076  1.0000
  C   C120      1.0  0.87392  0.13252000000000003  0.7397999999999999  1.0000
  C   C121      1.0  0.59807  0.16011  0.44638  1.0000
  C   C122      1.0  0.89924  0.32286  0.93994  1.0000
  C   C123      1.0  0.03723  0.5262  0.36593  1.0000
  C   C124      1.0  0.13470999999999997  0.6905599999999998  0.75488  1.0000
  C   C125      1.0  0.99047  0.40599  0.5488699999999999  1.0000
  C   C126      1.0  0.79576  0.94196  0.25623  1.0000
  C   C127      1.0  0.10077  0.67714  0.060059999999999995  1.0000
  C   C128      1.0  0.88926  0.70522  0.90232  1.0000
  C   C129      1.0  0.80398  0.14643000000000003  0.13067  1.0000
  C   C130      1.0  0.66787  0.59077  0.4606  1.0000
  C   C131      1.0  0.3382399999999999  0.62901  0.7557  1.0000
  C   C132      1.0  0.04662000000000002  0.93559  0.7402899999999999  1.0000
  C   C133      1.0  0.38284  0.6717499999999998  0.1645  1.0000
  C   C134      1.0  0.11075  0.29478000000000004  0.09767999999999998  1.0000
  C   C135      1.0  0.19898  0.9265899999999999  0.25701  1.0000
  C   C136      1.0  0.57905  0.77923  0.81403  1.0000
  C   C137      1.0  0.32284  0.27015  0.60092  1.0000
  C   C138      1.0  0.15901000000000004  0.17711  0.11731999999999998  1.0000
  C   C139      1.0  0.9920699999999999  0.47979  0.53126  1.0000
  C   C140      1.0  0.77936  0.78766  0.13122  1.0000
  C   C141      1.0  0.7772899999999999  0.49591999999999997  0.2475  1.0000
  C   C142      1.0  0.9215  0.8047900000000001  0.26487  1.0000
  C   C143      1.0  0.59735  0.13747999999999994  0.57368  1.0000
  C   C144      1.0  0.12608999999999998  0.86748  0.26019  1.0000
  C   C145      1.0  0.85402  0.20522999999999997  0.93933  1.0000
  C   C146      1.0  0.41141999999999995  0.5715800000000001  0.7534299999999998  1.0000
  C   C147      1.0  0.13512  0.30444  0.03773  1.0000
  C   C148      1.0  0.38317999999999997  0.8278099999999999  0.61388  1.0000
  C   C149      1.0  0.1742  0.2477  0.0166  1.0000
  C   C150      1.0  0.009540000000000002  0.5940000000000001  0.45113  1.0000
  C   C151      1.0  0.81527  0.81735  0.9419899999999998  1.0000
  C   C152      1.0  0.93549  0.9355699999999999  0.25959  1.0000
  C   C153      1.0  0.8258099999999999  0.7522899999999998  0.9834  1.0000
  C   C154      1.0  0.5885999999999999  0.42841999999999997  0.24656  1.0000
  C   C155      1.0  0.8320699999999999  0.56258  0.25482999999999995  1.0000
  C   C156      1.0  0.20828  0.71684  0.9347799999999998  1.0000
  C   C157      1.0  0.6040500000000001  0.80357  0.7479499999999999  1.0000
  C   C158      1.0  0.007940000000000025  0.52021  0.46872999999999987  1.0000
  C   C159      1.0  0.1371  0.74637  0.02832  1.0000
  C   C160      1.0  0.22064999999999999  0.21234000000000003  0.86878  1.0000
  C   C161      1.0  0.8629099999999998  0.25363  0.97167  1.0000
  C   C162      1.0  0.5916899999999999  0.30222  0.8963699999999999  1.0000
  N   N1        1.0  0.23434000000000002  0.80493  0.8420799999999999  1.0000
  N   N2        1.0  0.67467  0.6814299999999998  0.36963  1.0000
  N   N3        1.0  0.4372  0.9435800000000001  0.3304  1.0000
  N   N4        1.0  0.76568  0.19507  0.15790999999999997  1.0000
  N   N5        1.0  0.04106  0.59671  0.3502  1.0000
  N   N6        1.0  0.32535000000000003  0.31857  0.63036  1.0000
  N   N7        1.0  0.33236  0.8757500000000003  0.63914  1.0000
  N   N8        1.0  0.27306999999999987  0.27328  0.83353  1.0000
  N   N9        1.0  0.9589499999999999  0.4032899999999999  0.6498  1.0000
  N   N10       1.0  0.08959  0.70566  0.15123  1.0000
  N   N11       1.0  0.68967  0.5756699999999999  0.67838  1.0000
  N   N12       1.0  0.72694  0.72672  0.16645999999999997  1.0000
  N   N13       1.0  0.9104199999999999  0.29434  0.84876  1.0000
  N   N14       1.0  0.12340999999999999  0.23223  0.13696  1.0000
  N   N15       1.0  0.5628199999999999  0.05641  0.6696  1.0000
  N   N16       1.0  0.87661  0.7677700000000001  0.8630399999999999  1.0000
  N   N17       1.0  0.31035  0.42433000000000004  0.32161999999999996  1.0000
  N   N18       1.0  0.6676499999999999  0.12425000000000003  0.36086  1.0000
  O   O1        1.0  0.4751599999999999  0.19517000000000004  0.74155  1.0000
  O   O2        1.0  0.76303  0.9646599999999999  0.20433  1.0000
  O   O3        1.0  0.019980000000000015  0.25253  0.72134  1.0000
  O   O4        1.0  0.45105  0.9152099999999999  0.76853  1.0000
  O   O5        1.0  0.38165  0.552  0.16631  1.0000
  O   O6        1.0  0.7561  0.5993399999999999  0.27805  1.0000
  O   O7        1.0  0.1664  0.93248  0.73512  1.0000
  O   O8        1.0  0.48724999999999996  0.20201  0.28032  1.0000
  O   O9        1.0  0.54897  0.08479000000000002  0.23146999999999995  1.0000
  O   O10       1.0  0.36923  0.40501  0.16389  1.0000
  O   O11       1.0  0.04915000000000003  0.42794  0.2802  1.0000
  O   O12       1.0  0.52485  0.80482  0.25844  1.0000
  O   O13       1.0  0.9824599999999999  0.31583  0.22497  1.0000
  O   O14       1.0  0.7190799999999999  0.9257199999999999  0.30246  1.0000
  O   O15       1.0  0.4622799999999999  0.89605  0.18845  1.0000
  O   O16       1.0  0.7434699999999999  0.6818700000000001  0.76952  1.0000
  O   O17       1.0  0.23699  0.03533999999999999  0.79567  1.0000
  O   O18       1.0  0.61836  0.44799999999999995  0.83369  1.0000
  O   O19       1.0  0.24726999999999993  0.5823  0.23281  1.0000
  O   O20       1.0  0.83362  0.06752  0.26487  1.0000
  O   O21       1.0  0.63078  0.59499  0.8361099999999999  1.0000
  O   O22       1.0  0.28654999999999997  0.17102000000000003  0.27533  1.0000
  O   O23       1.0  0.80656  0.25143  0.26942  1.0000
  O   O24       1.0  0.28093000000000007  0.07427999999999998  0.69754  1.0000
  O   O25       1.0  0.46756  0.05341  0.16035  1.0000
  O   O26       1.0  0.53773  0.10394999999999999  0.81155  1.0000
  O   O27       1.0  0.27076  0.6933  0.2913  1.0000
  O   O28       1.0  0.7134700000000002  0.8289800000000002  0.7246699999999999  1.0000
  O   O29       1.0  0.46969  0.65223  0.2918799999999999  1.0000
  O   O30       1.0  0.96838  0.88567  0.7444299999999999  1.0000
  O   O31       1.0  0.05392  0.47105  0.18260999999999997  1.0000
  O   O32       1.0  0.9800399999999999  0.7474700000000001  0.27866  1.0000
  O   O33       1.0  0.24391  0.40066000000000007  0.72195  1.0000
  O   O34       1.0  0.9460899999999999  0.5289499999999998  0.81739  1.0000
  O   O35       1.0  0.017550000000000007  0.68417  0.77503  1.0000
  O   O36       1.0  0.031630000000000005  0.11432999999999997  0.25556  1.0000
  O   O37       1.0  0.25655000000000006  0.31813  0.23048  1.0000
  O   O38       1.0  0.72926  0.30669  0.7086899999999999  1.0000
  O   O39       1.0  0.19366999999999998  0.19060000000000007  0.7450799999999999  1.0000
  O   O40       1.0  0.94891  0.57611  0.23815999999999998  1.0000
  O   O41       1.0  0.051110000000000017  0.42389  0.76183  1.0000
  O   O42       1.0  0.8063499999999998  0.8094  0.25492  1.0000
  O   O43       1.0  0.51276  0.79799  0.7196799999999999  1.0000
  O   O44       1.0  0.53245  0.94659  0.83965  1.0000
  O   O45       1.0  0.95086  0.5720599999999999  0.7198  1.0000
  O   O46       1.0  0.75275  0.41770000000000007  0.7671899999999998  1.0000
  O   O47       1.0  0.5303299999999999  0.34775999999999996  0.70812  1.0000
  O   O48       1.0  0.19344999999999993  0.74857  0.7305699999999999  1.0000
