data_image0
_chemical_formula_structural       Na4Cd10H96C168N8O48
_chemical_formula_sum              "Na4 Cd10 H96 C168 N8 O48"
_cell_length_a       11.94506
_cell_length_b       25.5347
_cell_length_c       26.26155
_cell_angle_alpha    116.65235999999999
_cell_angle_beta     90.0
_cell_angle_gamma    90.0

_symmetry_space_group_name_H-M    'P 1'
_symmetry_Int_Tables_number       1

loop_
  _symmetry_equiv_pos_as_xyz
  'x,y,z'

loop_
  _atom_site_type_symbol
  _atom_site_label
  _atom_site_symmetry_multiplicity
  _atom_site_fract_x
  _atom_site_fract_y
  _atom_site_fract_z
  _atom_site_occupancy
  Na  Na1       1.0  0.49979999999999997  0.023719999999999995  0.07312  1.0000
  Na  Na2       1.0  0.49979  0.9762799999999998  0.42685  1.0000
  Na  Na3       1.0  0.50021  0.9762799999999997  0.9268999999999997  1.0000
  Na  Na4       1.0  0.50022  0.02371999999999999  0.57311  1.0000
  Cd  Cd1       1.0  0.83357  0.5275799999999998  0.9065799999999998  1.0000
  Cd  Cd2       1.0  0.2656  0.9312899999999996  0.48436  1.0000
  Cd  Cd3       1.0  0.83357  0.47242  0.59343  1.0000
  Cd  Cd4       1.0  0.26561  0.0687  0.01564  1.0000
  Cd  Cd5       1.0  0.16643  0.47241999999999995  0.09341999999999998  1.0000
  Cd  Cd6       1.0  0.7344099999999999  0.0687  0.51565  1.0000
  Cd  Cd7       1.0  0.16643  0.5275799999999999  0.40658  1.0000
  Cd  Cd8       1.0  0.7344099999999999  0.9312899999999997  0.9843599999999999  1.0000
  Cd  Cd9       1.0  0.77146  0.49999999999999994  0.7499999999999999  1.0000
  Cd  Cd10      1.0  0.22853999999999997  0.4999999999999999  0.25  1.0000
  H   H1        1.0  0.06705  0.61143  0.07265  1.0000
  H   H2        1.0  0.1995  0.6858699999999999  0.13848  1.0000
  H   H3        1.0  0.2035  0.7702099999999997  0.02786  1.0000
  H   H4        1.0  0.07489  0.6935099999999997  0.9612899999999998  1.0000
  H   H5        1.0  0.45486  0.8172599999999995  0.19545  1.0000
  H   H6        1.0  0.44982  0.8627899999999997  0.30122  1.0000
  H   H7        1.0  0.09623999999999999  0.8339099999999999  0.29711  1.0000
  H   H8        1.0  0.09864  0.7892599999999996  0.19086  1.0000
  H   H9        1.0  0.44462000000000007  0.9379099999999999  0.11987999999999999  1.0000
  H   H10       1.0  0.30668  0.8917199999999998  0.15825  1.0000
  H   H11       1.0  0.43239  0.7214  0.043379999999999995  1.0000
  H   H12       1.0  0.57162  0.76818  0.005  1.0000
  H   H13       1.0  0.50922  0.54606  0.7700399999999998  1.0000
  H   H14       1.0  0.35142  0.60647  0.76576  1.0000
  H   H15       1.0  0.36373  0.7084999999999998  0.9481899999999999  1.0000
  H   H16       1.0  0.52187  0.6469099999999998  0.95249  1.0000
  H   H17       1.0  0.14922  0.6055999999999999  0.8516099999999999  1.0000
  H   H18       1.0  0.00817  0.54624  0.78174  1.0000
  H   H19       1.0  0.02394  0.6610799999999999  0.7015799999999998  1.0000
  H   H20       1.0  0.16622  0.72223  0.7733199999999999  1.0000
  H   H21       1.0  0.08364  0.7706099999999998  0.8896199999999999  1.0000
  H   H22       1.0  0.09423  0.87923  0.93966  1.0000
  H   H23       1.0  0.4539  0.8691799999999997  0.93898  1.0000
  H   H24       1.0  0.44478  0.76209  0.88451  1.0000
  H   H25       1.0  0.06705  0.3885699999999999  0.42734999999999995  1.0000
  H   H26       1.0  0.1995  0.31412999999999985  0.36152999999999996  1.0000
  H   H27       1.0  0.2035  0.22979  0.47213999999999995  1.0000
  H   H28       1.0  0.07489  0.30647999999999986  0.5387199999999999  1.0000
  H   H29       1.0  0.45486  0.18274  0.30455  1.0000
  H   H30       1.0  0.44982  0.13720999999999997  0.19879  1.0000
  H   H31       1.0  0.09623999999999999  0.16609  0.20289  1.0000
  H   H32       1.0  0.09864  0.21073  0.30915  1.0000
  H   H33       1.0  0.44462000000000007  0.06208  0.38012  1.0000
  H   H34       1.0  0.30668  0.10827999999999999  0.34175999999999995  1.0000
  H   H35       1.0  0.4324  0.27859  0.45662  1.0000
  H   H36       1.0  0.57162  0.23182  0.495  1.0000
  H   H37       1.0  0.50922  0.4539299999999998  0.7299599999999998  1.0000
  H   H38       1.0  0.35142  0.3935199999999998  0.7342499999999998  1.0000
  H   H39       1.0  0.36373  0.2915  0.55182  1.0000
  H   H40       1.0  0.52187  0.35309  0.54752  1.0000
  H   H41       1.0  0.14922  0.3944  0.6484  1.0000
  H   H42       1.0  0.00817  0.45375999999999994  0.71827  1.0000
  H   H43       1.0  0.02394  0.3389099999999999  0.79843  1.0000
  H   H44       1.0  0.16622  0.27776999999999985  0.7266799999999998  1.0000
  H   H45       1.0  0.08364  0.22937999999999995  0.6103799999999999  1.0000
  H   H46       1.0  0.09423  0.12075999999999999  0.56035  1.0000
  H   H47       1.0  0.4539  0.13082  0.56103  1.0000
  H   H48       1.0  0.44478  0.23790999999999995  0.6155  1.0000
  H   H49       1.0  0.93295  0.38856999999999986  0.9273499999999998  1.0000
  H   H50       1.0  0.8005  0.3141299999999998  0.8615299999999998  1.0000
  H   H51       1.0  0.7965  0.22978999999999983  0.9721399999999998  1.0000
  H   H52       1.0  0.92511  0.30648  0.03871999999999999  1.0000
  H   H53       1.0  0.54514  0.18274  0.80455  1.0000
  H   H54       1.0  0.55018  0.13719999999999988  0.6987899999999999  1.0000
  H   H55       1.0  0.90376  0.16608999999999993  0.7028899999999999  1.0000
  H   H56       1.0  0.90136  0.21073  0.80915  1.0000
  H   H57       1.0  0.55537  0.06207999999999999  0.88012  1.0000
  H   H58       1.0  0.69331  0.10828000000000002  0.84176  1.0000
  H   H59       1.0  0.5676  0.27859  0.95663  1.0000
  H   H60       1.0  0.42838  0.23181999999999986  0.9950099999999998  1.0000
  H   H61       1.0  0.49077999999999994  0.4539299999999999  0.22995999999999994  1.0000
  H   H62       1.0  0.64858  0.39351999999999987  0.23423999999999998  1.0000
  H   H63       1.0  0.63626  0.2915  0.05181999999999999  1.0000
  H   H64       1.0  0.47813  0.35309  0.04752  1.0000
  H   H65       1.0  0.85078  0.3944  0.1484  1.0000
  H   H66       1.0  0.99183  0.45375999999999994  0.21826  1.0000
  H   H67       1.0  0.9760599999999999  0.3389099999999999  0.29843  1.0000
  H   H68       1.0  0.8337800000000001  0.27777  0.22668  1.0000
  H   H69       1.0  0.91636  0.22937999999999995  0.11037999999999999  1.0000
  H   H70       1.0  0.90577  0.12076999999999999  0.06034  1.0000
  H   H71       1.0  0.5461  0.13082  0.06103  1.0000
  H   H72       1.0  0.55522  0.23791  0.1155  1.0000
  H   H73       1.0  0.93295  0.6114299999999998  0.57265  1.0000
  H   H74       1.0  0.8005  0.68586  0.63848  1.0000
  H   H75       1.0  0.7965  0.7701999999999999  0.52787  1.0000
  H   H76       1.0  0.92511  0.6935099999999997  0.46128  1.0000
  H   H77       1.0  0.54514  0.8172499999999997  0.6954499999999999  1.0000
  H   H78       1.0  0.55018  0.8627899999999997  0.8012199999999999  1.0000
  H   H79       1.0  0.90376  0.8338999999999996  0.7971099999999998  1.0000
  H   H80       1.0  0.90136  0.7892599999999997  0.69086  1.0000
  H   H81       1.0  0.55537  0.9379199999999998  0.61988  1.0000
  H   H82       1.0  0.69331  0.8917199999999998  0.65825  1.0000
  H   H83       1.0  0.5676  0.7213999999999999  0.5433799999999999  1.0000
  H   H84       1.0  0.42838  0.7681699999999998  0.505  1.0000
  H   H85       1.0  0.49077999999999994  0.54606  0.27004  1.0000
  H   H86       1.0  0.64858  0.60647  0.26576  1.0000
  H   H87       1.0  0.63627  0.7084999999999998  0.44818  1.0000
  H   H88       1.0  0.47813  0.6469099999999998  0.45247999999999994  1.0000
  H   H89       1.0  0.85078  0.6055999999999999  0.35161  1.0000
  H   H90       1.0  0.99183  0.54624  0.28174  1.0000
  H   H91       1.0  0.9760599999999999  0.66108  0.20158  1.0000
  H   H92       1.0  0.8337800000000001  0.72223  0.27332  1.0000
  H   H93       1.0  0.91636  0.7706099999999998  0.38961999999999997  1.0000
  H   H94       1.0  0.90577  0.87923  0.43965999999999994  1.0000
  H   H95       1.0  0.5461  0.8691799999999997  0.43898  1.0000
  H   H96       1.0  0.55522  0.76209  0.38449999999999995  1.0000
  C   C1        1.0  0.9803300000000001  0.6051499999999999  0.9736699999999998  1.0000
  C   C2        1.0  0.06183  0.64828  0.012969999999999999  1.0000
  C   C3        1.0  0.0973  0.6463099999999999  0.06313  1.0000
  C   C4        1.0  0.17129000000000003  0.6882499999999998  0.10019  1.0000
  C   C5        1.0  0.2096  0.7337  0.08815999999999999  1.0000
  C   C6        1.0  0.17517  0.7351699999999999  0.03749  1.0000
  C   C7        1.0  0.10295  0.6925499999999999  0.00027  1.0000
  C   C8        1.0  0.27707  0.8004299999999998  0.18577  1.0000
  C   C9        1.0  0.3762  0.8212499999999999  0.21760999999999997  1.0000
  C   C10       1.0  0.37339  0.84697  0.2766199999999999  1.0000
  C   C11       1.0  0.27283  0.8519399999999999  0.30601  1.0000
  C   C12       1.0  0.17428  0.8299099999999998  0.2742899999999999  1.0000
  C   C13       1.0  0.17577  0.80479  0.21495  1.0000
  C   C14       1.0  0.27282  0.88021  0.3692  1.0000
  C   C15       1.0  0.59781  0.8851599999999997  0.03786  1.0000
  C   C16       1.0  0.51674  0.8561399999999999  0.06006  1.0000
  C   C17       1.0  0.44177999999999995  0.8905599999999996  0.10336  1.0000
  C   C18       1.0  0.36457000000000006  0.8648599999999999  0.12472999999999997  1.0000
  C   C19       1.0  0.36102  0.80365  0.10297  1.0000
  C   C20       1.0  0.43546  0.7687799999999999  0.059529999999999986  1.0000
  C   C21       1.0  0.51281  0.7948399999999998  0.03824  1.0000
  C   C22       1.0  0.62002  0.5551499999999999  0.86362  1.0000
  C   C23       1.0  0.52519  0.5918199999999999  0.86179  1.0000
  C   C24       1.0  0.47625  0.5808399999999999  0.80924  1.0000
  C   C25       1.0  0.38831  0.6151299999999998  0.80662  1.0000
  C   C26       1.0  0.34764  0.6616099999999998  0.85678  1.0000
  C   C27       1.0  0.39609999999999995  0.6728599999999997  0.9094699999999998  1.0000
  C   C28       1.0  0.48413  0.63842  0.9118199999999997  1.0000
  C   C29       1.0  0.16851  0.6672199999999999  0.8163299999999999  1.0000
  C   C30       1.0  0.12201  0.6179799999999998  0.8189699999999999  1.0000
  C   C31       1.0  0.04224  0.58448  0.77931  1.0000
  C   C32       1.0  0.00697  0.59911  0.73621  1.0000
  C   C33       1.0  0.05052  0.6498899999999999  0.73513  1.0000
  C   C34       1.0  0.13002  0.68396  0.7750699999999999  1.0000
  C   C35       1.0  0.26348  0.75852  0.88343  1.0000
  C   C36       1.0  0.16467  0.7922599999999997  0.89956  1.0000
  C   C37       1.0  0.17044000000000004  0.8531099999999999  0.9281499999999999  1.0000
  C   C38       1.0  0.27438  0.8818099999999998  0.94328  1.0000
  C   C39       1.0  0.37255  0.8478699999999998  0.92795  1.0000
  C   C40       1.0  0.3677599999999999  0.78727  0.8975099999999998  1.0000
  C   C41       1.0  0.28205  0.9467899999999998  0.97314  1.0000
  C   C42       1.0  0.93241  0.55884  0.69037  1.0000
  C   C43       1.0  0.9803300000000001  0.39484  0.52633  1.0000
  C   C44       1.0  0.06183  0.35171999999999987  0.48702999999999996  1.0000
  C   C45       1.0  0.0973  0.35368  0.43688  1.0000
  C   C46       1.0  0.17129000000000003  0.3117499999999999  0.39981  1.0000
  C   C47       1.0  0.2096  0.2662999999999999  0.41183999999999993  1.0000
  C   C48       1.0  0.17517  0.2648299999999999  0.46250999999999987  1.0000
  C   C49       1.0  0.10295  0.30744  0.49973  1.0000
  C   C50       1.0  0.27707  0.19955999999999993  0.31423  1.0000
  C   C51       1.0  0.3762  0.17874999999999994  0.28239  1.0000
  C   C52       1.0  0.37339  0.15301999999999996  0.22338  1.0000
  C   C53       1.0  0.27283  0.14805999999999994  0.194  1.0000
  C   C54       1.0  0.17428  0.17008999999999996  0.22571  1.0000
  C   C55       1.0  0.17577  0.19521  0.28505  1.0000
  C   C56       1.0  0.27282  0.11978999999999997  0.1308  1.0000
  C   C57       1.0  0.59781  0.11483999999999997  0.46214999999999995  1.0000
  C   C58       1.0  0.51674  0.14384999999999998  0.43995  1.0000
  C   C59       1.0  0.44177999999999995  0.10944  0.39664999999999995  1.0000
  C   C60       1.0  0.36457000000000006  0.13512999999999992  0.37526999999999994  1.0000
  C   C61       1.0  0.36102  0.1963499999999999  0.39702999999999994  1.0000
  C   C62       1.0  0.43546  0.23120999999999992  0.4404699999999999  1.0000
  C   C63       1.0  0.51281  0.20515999999999995  0.46176  1.0000
  C   C64       1.0  0.62002  0.4448399999999999  0.63639  1.0000
  C   C65       1.0  0.52519  0.40816999999999987  0.63822  1.0000
  C   C66       1.0  0.47625  0.4191499999999999  0.69076  1.0000
  C   C67       1.0  0.38831  0.3848699999999998  0.6933799999999999  1.0000
  C   C68       1.0  0.34764  0.33838  0.64322  1.0000
  C   C69       1.0  0.39609999999999995  0.3271299999999999  0.5905399999999998  1.0000
  C   C70       1.0  0.48413  0.3615699999999999  0.58819  1.0000
  C   C71       1.0  0.16851  0.33278  0.68367  1.0000
  C   C72       1.0  0.122  0.38201  0.68104  1.0000
  C   C73       1.0  0.04224  0.41551  0.72069  1.0000
  C   C74       1.0  0.00697  0.40089  0.7638  1.0000
  C   C75       1.0  0.05052  0.3501  0.76487  1.0000
  C   C76       1.0  0.13002  0.31602999999999987  0.7249399999999999  1.0000
  C   C77       1.0  0.26348  0.24146999999999996  0.61658  1.0000
  C   C78       1.0  0.16467  0.20772999999999997  0.60044  1.0000
  C   C79       1.0  0.17044000000000004  0.14688  0.57186  1.0000
  C   C80       1.0  0.27438  0.11818  0.55673  1.0000
  C   C81       1.0  0.37255  0.15212999999999996  0.57206  1.0000
  C   C82       1.0  0.3677599999999999  0.21272999999999997  0.6025  1.0000
  C   C83       1.0  0.28205  0.05319999999999994  0.52686  1.0000
  C   C84       1.0  0.93241  0.44114999999999993  0.80963  1.0000
  C   C85       1.0  0.01967  0.39484999999999987  0.02633  1.0000
  C   C86       1.0  0.93817  0.3517199999999999  0.9870299999999999  1.0000
  C   C87       1.0  0.9027  0.35368  0.93688  1.0000
  C   C88       1.0  0.8287099999999998  0.31175  0.89982  1.0000
  C   C89       1.0  0.7904  0.2662999999999999  0.91184  1.0000
  C   C90       1.0  0.82483  0.26482999999999995  0.96251  1.0000
  C   C91       1.0  0.89705  0.3074399999999999  0.9997299999999999  1.0000
  C   C92       1.0  0.7229299999999999  0.19955999999999996  0.8142299999999999  1.0000
  C   C93       1.0  0.6238  0.17873999999999998  0.7823899999999999  1.0000
  C   C94       1.0  0.6266  0.15301999999999985  0.7233799999999999  1.0000
  C   C95       1.0  0.72717  0.14805999999999994  0.694  1.0000
  C   C96       1.0  0.82572  0.17008999999999996  0.72572  1.0000
  C   C97       1.0  0.82423  0.19520000000000007  0.78505  1.0000
  C   C98       1.0  0.72718  0.11978999999999997  0.6308  1.0000
  C   C99       1.0  0.4022  0.11483000000000002  0.96214  1.0000
  C   C100      1.0  0.4832600000000001  0.14385  0.9399499999999998  1.0000
  C   C101      1.0  0.55822  0.10943999999999994  0.8966499999999998  1.0000
  C   C102      1.0  0.63543  0.13513  0.87528  1.0000
  C   C103      1.0  0.63897  0.19634999999999986  0.8970299999999998  1.0000
  C   C104      1.0  0.56454  0.2312099999999999  0.94047  1.0000
  C   C105      1.0  0.48718  0.2051599999999999  0.9617699999999998  1.0000
  C   C106      1.0  0.37998  0.4448399999999999  0.13639  1.0000
  C   C107      1.0  0.47481  0.40816999999999987  0.13822  1.0000
  C   C108      1.0  0.52375  0.41915  0.19076  1.0000
  C   C109      1.0  0.61169  0.3848699999999999  0.19338  1.0000
  C   C110      1.0  0.65236  0.33838  0.14322  1.0000
  C   C111      1.0  0.6039  0.32713  0.09054  1.0000
  C   C112      1.0  0.51587  0.3615699999999999  0.08819  1.0000
  C   C113      1.0  0.83149  0.33278  0.18367  1.0000
  C   C114      1.0  0.8779899999999999  0.38201  0.18104  1.0000
  C   C115      1.0  0.9577599999999998  0.41551  0.22069  1.0000
  C   C116      1.0  0.99303  0.40089  0.26379  1.0000
  C   C117      1.0  0.9494799999999999  0.3501  0.26487  1.0000
  C   C118      1.0  0.8699800000000001  0.31602999999999987  0.22494  1.0000
  C   C119      1.0  0.73652  0.24146999999999993  0.11657999999999999  1.0000
  C   C120      1.0  0.83533  0.20772999999999997  0.10044  1.0000
  C   C121      1.0  0.82956  0.14688  0.07185  1.0000
  C   C122      1.0  0.72561  0.11817999999999997  0.05672  1.0000
  C   C123      1.0  0.62745  0.15212999999999996  0.07205  1.0000
  C   C124      1.0  0.63224  0.21272999999999997  0.1025  1.0000
  C   C125      1.0  0.7179300000000001  0.0532  0.02687  1.0000
  C   C126      1.0  0.06759  0.44114999999999993  0.30963  1.0000
  C   C127      1.0  0.01967  0.60515  0.47367  1.0000
  C   C128      1.0  0.93817  0.64828  0.51298  1.0000
  C   C129      1.0  0.9027  0.6463099999999999  0.56313  1.0000
  C   C130      1.0  0.8287099999999998  0.6882499999999998  0.60019  1.0000
  C   C131      1.0  0.7904  0.7337  0.58817  1.0000
  C   C132      1.0  0.82483  0.7351699999999999  0.5375  1.0000
  C   C133      1.0  0.89705  0.6925499999999999  0.50027  1.0000
  C   C134      1.0  0.7229299999999999  0.8004299999999998  0.6857699999999998  1.0000
  C   C135      1.0  0.6238  0.8212499999999999  0.7176199999999999  1.0000
  C   C136      1.0  0.6266  0.84697  0.77662  1.0000
  C   C137      1.0  0.72717  0.8519399999999999  0.80601  1.0000
  C   C138      1.0  0.82572  0.8299099999999998  0.77429  1.0000
  C   C139      1.0  0.82423  0.80479  0.71495  1.0000
  C   C140      1.0  0.72718  0.8802099999999999  0.8691999999999999  1.0000
  C   C141      1.0  0.4022  0.88516  0.53786  1.0000
  C   C142      1.0  0.4832600000000001  0.8561399999999999  0.56006  1.0000
  C   C143      1.0  0.55822  0.8905599999999998  0.60336  1.0000
  C   C144      1.0  0.63543  0.8648599999999999  0.62473  1.0000
  C   C145      1.0  0.63897  0.80365  0.60298  1.0000
  C   C146      1.0  0.56454  0.7687799999999999  0.55953  1.0000
  C   C147      1.0  0.48718  0.7948399999999998  0.53824  1.0000
  C   C148      1.0  0.37998  0.5551499999999998  0.3636099999999999  1.0000
  C   C149      1.0  0.47481  0.5918199999999999  0.36178  1.0000
  C   C150      1.0  0.52375  0.5808399999999999  0.30924  1.0000
  C   C151      1.0  0.61169  0.6151299999999997  0.30662  1.0000
  C   C152      1.0  0.65236  0.6616099999999998  0.35678  1.0000
  C   C153      1.0  0.6039  0.67286  0.40946  1.0000
  C   C154      1.0  0.51587  0.6384199999999999  0.41180999999999995  1.0000
  C   C155      1.0  0.83149  0.6672199999999999  0.31633  1.0000
  C   C156      1.0  0.8779899999999999  0.61798  0.31896  1.0000
  C   C157      1.0  0.9577599999999998  0.5844899999999998  0.27930999999999995  1.0000
  C   C158      1.0  0.99303  0.59911  0.23621  1.0000
  C   C159      1.0  0.9494799999999999  0.6498899999999999  0.23512999999999995  1.0000
  C   C160      1.0  0.8699800000000001  0.68396  0.2750699999999999  1.0000
  C   C161      1.0  0.73652  0.7585299999999998  0.38342999999999994  1.0000
  C   C162      1.0  0.83533  0.7922599999999997  0.3995599999999999  1.0000
  C   C163      1.0  0.82956  0.8531099999999999  0.42815  1.0000
  C   C164      1.0  0.72562  0.8818099999999996  0.44328  1.0000
  C   C165      1.0  0.62745  0.8478699999999997  0.4279499999999999  1.0000
  C   C166      1.0  0.63224  0.78727  0.39751  1.0000
  C   C167      1.0  0.7179300000000001  0.9467899999999998  0.47313999999999995  1.0000
  C   C168      1.0  0.06759  0.55884  0.19037  1.0000
  N   N1        1.0  0.28282  0.77763  0.12581999999999996  1.0000
  N   N2        1.0  0.25835  0.6968199999999999  0.8536399999999998  1.0000
  N   N3        1.0  0.28283  0.22237  0.37418  1.0000
  N   N4        1.0  0.25835  0.30317  0.64637  1.0000
  N   N5        1.0  0.7171699999999999  0.22237  0.87419  1.0000
  N   N6        1.0  0.7416500000000001  0.30317  0.14636  1.0000
  N   N7        1.0  0.7171699999999999  0.77763  0.62582  1.0000
  N   N8        1.0  0.7416500000000001  0.6968199999999999  0.35363999999999995  1.0000
  O   O1        1.0  0.8943  0.5118899999999998  0.69301  1.0000
  O   O2        1.0  0.91128  0.5660799999999999  0.6467  1.0000
  O   O3        1.0  0.93677  0.56741  0.98784  1.0000
  O   O4        1.0  0.95506  0.60652  0.92692  1.0000
  O   O5        1.0  0.6657  0.5673599999999999  0.9116099999999999  1.0000
  O   O6        1.0  0.65095  0.5114799999999999  0.8166499999999999  1.0000
  O   O7        1.0  0.1939  0.9770899999999998  0.9770999999999997  1.0000
  O   O8        1.0  0.37754  0.9706599999999994  0.9922799999999998  1.0000
  O   O9        1.0  0.66638  0.85391  0.9986  1.0000
  O   O10       1.0  0.59587  0.9412499999999998  0.05817999999999999  1.0000
  O   O11       1.0  0.18490999999999996  0.8781  0.39592  1.0000
  O   O12       1.0  0.36233  0.9067499999999998  0.39599  1.0000
  O   O13       1.0  0.8943  0.48809999999999987  0.807  1.0000
  O   O14       1.0  0.91128  0.4339099999999999  0.85331  1.0000
  O   O15       1.0  0.93677  0.4325799999999999  0.51216  1.0000
  O   O16       1.0  0.95506  0.3934799999999999  0.57309  1.0000
  O   O17       1.0  0.6657  0.43262999999999996  0.58839  1.0000
  O   O18       1.0  0.65095  0.48851  0.6833599999999999  1.0000
  O   O19       1.0  0.1939  0.02290000000000001  0.52291  1.0000
  O   O20       1.0  0.37754  0.02934000000000001  0.50773  1.0000
  O   O21       1.0  0.66639  0.14608999999999997  0.5014  1.0000
  O   O22       1.0  0.59586  0.05874999999999999  0.44183  1.0000
  O   O23       1.0  0.18490999999999996  0.1219  0.10408  1.0000
  O   O24       1.0  0.36233  0.09324  0.10400999999999999  1.0000
  O   O25       1.0  0.10570000000000002  0.48809999999999987  0.307  1.0000
  O   O26       1.0  0.08872  0.4339099999999999  0.35331  1.0000
  O   O27       1.0  0.06323  0.4325799999999999  0.01216  1.0000
  O   O28       1.0  0.04494  0.3934799999999999  0.07309  1.0000
  O   O29       1.0  0.3343  0.43262999999999996  0.08838999999999998  1.0000
  O   O30       1.0  0.34905  0.48851  0.18336  1.0000
  O   O31       1.0  0.8060899999999999  0.022899999999999997  0.02291  1.0000
  O   O32       1.0  0.62244  0.02934  0.00776  1.0000
  O   O33       1.0  0.33362  0.14608  0.0014  1.0000
  O   O34       1.0  0.40414999999999995  0.05874000000000004  0.94183  1.0000
  O   O35       1.0  0.8151  0.12190000000000001  0.60409  1.0000
  O   O36       1.0  0.63767  0.09324999999999999  0.60401  1.0000
  O   O37       1.0  0.10570000000000002  0.5118899999999998  0.193  1.0000
  O   O38       1.0  0.08872  0.5660799999999999  0.14669  1.0000
  O   O39       1.0  0.06323  0.56741  0.48784  1.0000
  O   O40       1.0  0.04494  0.60652  0.42691999999999997  1.0000
  O   O41       1.0  0.3343  0.5673599999999999  0.41161  1.0000
  O   O42       1.0  0.34905  0.51148  0.31664  1.0000
  O   O43       1.0  0.8060899999999999  0.97709  0.47709  1.0000
  O   O44       1.0  0.62244  0.9706599999999997  0.49226  1.0000
  O   O45       1.0  0.33361  0.85391  0.4986  1.0000
  O   O46       1.0  0.40414999999999995  0.9412499999999998  0.55818  1.0000
  O   O47       1.0  0.8151  0.8781  0.8959199999999998  1.0000
  O   O48       1.0  0.63767  0.90675  0.89599  1.0000
