data_image0
_chemical_formula_structural       Ag8H128C192S8N32
_chemical_formula_sum              "Ag8 H128 C192 S8 N32"
_cell_length_a       22.93981
_cell_length_b       22.93984
_cell_length_c       23.9963
_cell_angle_alpha    118.44033000000002
_cell_angle_beta     118.44566
_cell_angle_gamma    90.09760999999999

_space_group_name_H-M_alt    "P 1"
_space_group_IT_number       1

loop_
  _space_group_symop_operation_xyz
  'x, y, z'

loop_
  _atom_site_type_symbol
  _atom_site_label
  _atom_site_symmetry_multiplicity
  _atom_site_fract_x
  _atom_site_fract_y
  _atom_site_fract_z
  _atom_site_occupancy
  Ag  Ag1       1.0  0.95838  0.70823  0.2503  1.0000
  Ag  Ag2       1.0  0.29176  0.04157999999999997  0.24964999999999998  1.0000
  Ag  Ag3       1.0  0.04147000000000002  0.95862  0.75007  1.0000
  Ag  Ag4       1.0  0.70833  0.29163  0.74999  1.0000
  Ag  Ag5       1.0  0.04169000000000008  0.29172  0.74984  1.0000
  Ag  Ag6       1.0  0.70833  0.95839  0.75037  1.0000
  Ag  Ag7       1.0  0.95859  0.04135999999999999  0.24995999999999996  1.0000
  Ag  Ag8       1.0  0.29161  0.70844  0.25001  1.0000
  H   H1        1.0  0.94198  0.82608  0.37832  1.0000
  H   H2        1.0  0.8642  0.85378  0.42420999999999986  1.0000
  H   H3        1.0  0.71593  0.65449  0.22865999999999997  1.0000
  H   H4        1.0  0.80133  0.63483  0.19205  1.0000
  H   H5        1.0  0.82649  0.76174  0.48737  1.0000
  H   H6        1.0  0.93495  0.8218599999999999  0.61609  1.0000
  H   H7        1.0  0.9249400000000001  0.015090000000000029  0.64936  1.0000
  H   H8        1.0  0.8149399999999999  0.9629699999999999  0.52336  1.0000
  H   H9        1.0  0.4363599999999999  0.05243999999999992  0.3785599999999999  1.0000
  H   H10       1.0  0.55992  0.07036999999999996  0.42424  1.0000
  H   H11       1.0  0.5128  0.07391  0.22829  1.0000
  H   H12       1.0  0.39092  0.0572  0.1918  1.0000
  H   H13       1.0  0.66049  0.22563999999999995  0.48699999999999993  1.0000
  H   H14       1.0  0.6809599999999999  0.29427999999999993  0.6160799999999998  1.0000
  H   H15       1.0  0.72431  0.13439999999999994  0.64956  1.0000
  H   H16       1.0  0.7082000000000002  0.06055  0.52328  1.0000
  H   H17       1.0  0.05168  0.94187  0.87783  1.0000
  H   H18       1.0  0.07093999999999992  0.8645799999999999  0.9244699999999999  1.0000
  H   H19       1.0  0.07427  0.7161999999999998  0.72848  1.0000
  H   H20       1.0  0.05658  0.80121  0.69126  1.0000
  H   H21       1.0  0.22628  0.82676  0.98742  1.0000
  H   H22       1.0  0.29496  0.9347499999999999  0.11657999999999999  1.0000
  H   H23       1.0  0.13499  0.92433  0.14995999999999998  1.0000
  H   H24       1.0  0.06104  0.8146599999999999  0.02356  1.0000
  H   H25       1.0  0.82617  0.4360899999999999  0.87785  1.0000
  H   H26       1.0  0.8532900000000001  0.55983  0.92435  1.0000
  H   H27       1.0  0.65413  0.5124400000000001  0.72849  1.0000
  H   H28       1.0  0.63501  0.39044999999999996  0.69144  1.0000
  H   H29       1.0  0.7614700000000001  0.66055  0.98754  1.0000
  H   H30       1.0  0.82177  0.68181  0.1169  1.0000
  H   H31       1.0  0.014880000000000003  0.72522  0.14984  1.0000
  H   H32       1.0  0.96255  0.70849  0.02329  1.0000
  H   H33       1.0  0.05826  0.94859  0.62236  1.0000
  H   H34       1.0  0.13540000000000005  0.9291599999999999  0.5756  1.0000
  H   H35       1.0  0.28378000000000003  0.92568  0.77151  1.0000
  H   H36       1.0  0.19888999999999987  0.9435099999999997  0.8088199999999998  1.0000
  H   H37       1.0  0.17331  0.7737799999999999  0.51264  1.0000
  H   H38       1.0  0.06534  0.70503  0.38345  1.0000
  H   H39       1.0  0.07564999999999998  0.86499  0.3500499999999999  1.0000
  H   H40       1.0  0.18532  0.9389699999999999  0.47644  1.0000
  H   H41       1.0  0.56394  0.17393  0.62218  1.0000
  H   H42       1.0  0.4401300000000001  0.14680999999999989  0.5756099999999998  1.0000
  H   H43       1.0  0.48753  0.34594  0.77144  1.0000
  H   H44       1.0  0.6095600000000001  0.36505  0.80854  1.0000
  H   H45       1.0  0.33951  0.23854999999999998  0.51239  1.0000
  H   H46       1.0  0.31823999999999997  0.17821999999999993  0.38303999999999994  1.0000
  H   H47       1.0  0.27468999999999993  0.9850699999999999  0.35003999999999996  1.0000
  H   H48       1.0  0.29138  0.0374  0.47659  1.0000
  H   H49       1.0  0.94776  0.56372  0.12153  1.0000
  H   H50       1.0  0.9294999999999999  0.44018  0.07557  1.0000
  H   H51       1.0  0.92584  0.48716  0.27148  1.0000
  H   H52       1.0  0.9428299999999998  0.6089899999999999  0.3081  1.0000
  H   H53       1.0  0.77433  0.33929  0.01296  1.0000
  H   H54       1.0  0.70582  0.31909  0.88402  1.0000
  H   H55       1.0  0.86568  0.27578  0.85056  1.0000
  H   H56       1.0  0.9394899999999999  0.29178000000000004  0.97687  1.0000
  H   H57       1.0  0.17383  0.05797999999999998  0.12174999999999998  1.0000
  H   H58       1.0  0.14616  0.13562  0.07565  1.0000
  H   H59       1.0  0.34547  0.2839999999999999  0.2711299999999999  1.0000
  H   H60       1.0  0.36519  0.19875  0.30797  1.0000
  H   H61       1.0  0.23831  0.17376  0.012589999999999997  1.0000
  H   H62       1.0  0.17816999999999988  0.06525999999999985  0.8838199999999998  1.0000
  H   H63       1.0  0.985  0.07496000000000007  0.85073  1.0000
  H   H64       1.0  0.037149999999999975  0.18504999999999988  0.97681  1.0000
  H   H65       1.0  0.05796  0.17388  0.62166  1.0000
  H   H66       1.0  0.13579  0.14614  0.57582  1.0000
  H   H67       1.0  0.2840300000000001  0.34545  0.7713  1.0000
  H   H68       1.0  0.19866  0.36518  0.80792  1.0000
  H   H69       1.0  0.17343  0.23828  0.51268  1.0000
  H   H70       1.0  0.06503999999999999  0.17812999999999998  0.38389  1.0000
  H   H71       1.0  0.07501  0.9849399999999999  0.35059  1.0000
  H   H72       1.0  0.18505  0.037040000000000003  0.4766  1.0000
  H   H73       1.0  0.5636999999999998  0.9477399999999997  0.6215199999999997  1.0000
  H   H74       1.0  0.44017  0.9297099999999999  0.57576  1.0000
  H   H75       1.0  0.48726  0.92599  0.77165  1.0000
  H   H76       1.0  0.60912  0.94282  0.80817  1.0000
  H   H77       1.0  0.33929  0.7742799999999999  0.51294  1.0000
  H   H78       1.0  0.3189499999999999  0.70575  0.3839599999999999  1.0000
  H   H79       1.0  0.27576  0.86568  0.35056  1.0000
  H   H80       1.0  0.29182  0.93948  0.47686  1.0000
  H   H81       1.0  0.94855  0.058249999999999996  0.12223999999999999  1.0000
  H   H82       1.0  0.92915  0.13553  0.07557  1.0000
  H   H83       1.0  0.9257000000000001  0.28381  0.2715  1.0000
  H   H84       1.0  0.94354  0.19887999999999997  0.3088  1.0000
  H   H85       1.0  0.77386  0.17316  0.012749999999999996  1.0000
  H   H86       1.0  0.7050299999999999  0.06520999999999988  0.8835499999999997  1.0000
  H   H87       1.0  0.8648299999999999  0.07568000000000003  0.84991  1.0000
  H   H88       1.0  0.9389  0.18528  0.97638  1.0000
  H   H89       1.0  0.17392  0.56393  0.12216999999999999  1.0000
  H   H90       1.0  0.14677  0.44018  0.07562  1.0000
  H   H91       1.0  0.34598  0.4876  0.27153  1.0000
  H   H92       1.0  0.36507  0.60957  0.30853  1.0000
  H   H93       1.0  0.2386  0.33948  0.01246  1.0000
  H   H94       1.0  0.17827999999999997  0.31831999999999994  0.8831599999999998  1.0000
  H   H95       1.0  0.9851599999999999  0.27463999999999994  0.8501399999999998  1.0000
  H   H96       1.0  0.03756000000000006  0.29125  0.97668  1.0000
  H   H97       1.0  0.94182  0.05179999999999997  0.37786  1.0000
  H   H98       1.0  0.86441  0.07090000000000002  0.42436  1.0000
  H   H99       1.0  0.71608  0.07416  0.2283  1.0000
  H   H100      1.0  0.80112  0.05660999999999999  0.19119  1.0000
  H   H101      1.0  0.82699  0.22625999999999993  0.4873799999999999  1.0000
  H   H102      1.0  0.93504  0.29494  0.61652  1.0000
  H   H103      1.0  0.92438  0.13524  0.6502  1.0000
  H   H104      1.0  0.81466  0.06129999999999994  0.5239499999999999  1.0000
  H   H105      1.0  0.43609  0.82605  0.37793  1.0000
  H   H106      1.0  0.55987  0.8532199999999998  0.42435  1.0000
  H   H107      1.0  0.51238  0.65406  0.22834  1.0000
  H   H108      1.0  0.39037999999999995  0.6349  0.19136999999999998  1.0000
  H   H109      1.0  0.6603399999999999  0.76148  0.48753  1.0000
  H   H110      1.0  0.68143  0.8218099999999999  0.61684  1.0000
  H   H111      1.0  0.7254199999999998  0.014879999999999956  0.6500099999999999  1.0000
  H   H112      1.0  0.70891  0.96258  0.52354  1.0000
  H   H113      1.0  0.05223999999999997  0.43633  0.87847  1.0000
  H   H114      1.0  0.07036999999999986  0.55982  0.9243  1.0000
  H   H115      1.0  0.07403999999999994  0.5128  0.72841  1.0000
  H   H116      1.0  0.057189999999999984  0.39097  0.69186  1.0000
  H   H117      1.0  0.22548999999999997  0.6602999999999999  0.98686  1.0000
  H   H118      1.0  0.29411  0.68063  0.11582  1.0000
  H   H119      1.0  0.13447  0.7244399999999999  0.14959  1.0000
  H   H120      1.0  0.060640000000000006  0.70839  0.02335  1.0000
  H   H121      1.0  0.82608  0.9420799999999998  0.87839  1.0000
  H   H122      1.0  0.8538  0.8643099999999999  0.92435  1.0000
  H   H123      1.0  0.65451  0.71595  0.72879  1.0000
  H   H124      1.0  0.63473  0.8013299999999999  0.69212  1.0000
  H   H125      1.0  0.7617  0.82648  0.98746  1.0000
  H   H126      1.0  0.82193  0.93496  0.11614  1.0000
  H   H127      1.0  0.015049999999999997  0.9248399999999999  0.14927  1.0000
  H   H128      1.0  0.96285  0.81476  0.02328  1.0000
  C   C1        1.0  0.89134  0.7892199999999999  0.34655  1.0000
  C   C2        1.0  0.84748  0.80447  0.3724  1.0000
  C   C3        1.0  0.7807399999999999  0.75705  0.3305799999999999  1.0000
  C   C4        1.0  0.76516  0.69458  0.26345  1.0000
  C   C5        1.0  0.81288  0.68336  0.24256999999999998  1.0000
  C   C6        1.0  0.73152  0.7716199999999999  0.35227  1.0000
  C   C7        1.0  0.74203  0.82182  0.42257  1.0000
  C   C8        1.0  0.81046  0.85734  0.49464  1.0000
  C   C9        1.0  0.84698  0.8180399999999999  0.5215899999999998  1.0000
  C   C10       1.0  0.90747  0.85124  0.5929  1.0000
  C   C11       1.0  0.90154  0.9590099999999999  0.6121  1.0000
  C   C12       1.0  0.8398999999999999  0.9298  0.54176  1.0000
  C   C13       1.0  0.4553099999999999  0.05747999999999997  0.34670999999999996  1.0000
  C   C14       1.0  0.52498  0.06809  0.37249  1.0000
  C   C15       1.0  0.5499  0.07359  0.33052  1.0000
  C   C16       1.0  0.49839  0.06889  0.2633  1.0000
  C   C17       1.0  0.42984  0.059279999999999985  0.24246999999999996  1.0000
  C   C18       1.0  0.62076  0.08061  0.35212999999999994  1.0000
  C   C19       1.0  0.68047  0.10089  0.42255  1.0000
  C   C20       1.0  0.68401  0.13751000000000002  0.49461000000000005  1.0000
  C   C21       1.0  0.6744300000000002  0.20370999999999997  0.52146  1.0000
  C   C22       1.0  0.6852900000000001  0.24175999999999997  0.59285  1.0000
  C   C23       1.0  0.7105400000000001  0.15323999999999988  0.6122499999999997  1.0000
  C   C24       1.0  0.70173  0.11214999999999996  0.54182  1.0000
  C   C25       1.0  0.05694999999999994  0.89128  0.8461899999999999  1.0000
  C   C26       1.0  0.06818999999999985  0.8476899999999998  0.8724399999999998  1.0000
  C   C27       1.0  0.07381999999999998  0.78101  0.8305899999999999  1.0000
  C   C28       1.0  0.06890999999999999  0.76536  0.76324  1.0000
  C   C29       1.0  0.058679999999999934  0.81279  0.74195  1.0000
  C   C30       1.0  0.08099  0.73175  0.85228  1.0000
  C   C31       1.0  0.10115999999999994  0.7423  0.9226599999999999  1.0000
  C   C32       1.0  0.13789999999999997  0.81063  0.99479  1.0000
  C   C33       1.0  0.20419  0.8471099999999999  0.02172  1.0000
  C   C34       1.0  0.24234  0.90731  0.09326  1.0000
  C   C35       1.0  0.1538  0.90118  0.11261  1.0000
  C   C36       1.0  0.11261  0.8398099999999998  0.04206  1.0000
  C   C37       1.0  0.78915  0.45502  0.84628  1.0000
  C   C38       1.0  0.8040199999999998  0.52477  0.87246  1.0000
  C   C39       1.0  0.75659  0.5497  0.83068  1.0000
  C   C40       1.0  0.69426  0.4981  0.76336  1.0000
  C   C41       1.0  0.6833699999999999  0.42944999999999983  0.7421999999999997  1.0000
  C   C42       1.0  0.77121  0.62058  0.85238  1.0000
  C   C43       1.0  0.82157  0.68026  0.92262  1.0000
  C   C44       1.0  0.85703  0.68409  0.99481  1.0000
  C   C45       1.0  0.81778  0.67456  0.02191  1.0000
  C   C46       1.0  0.85108  0.6859699999999999  0.09353  1.0000
  C   C47       1.0  0.9588  0.71119  0.11254  1.0000
  C   C48       1.0  0.92951  0.7020799999999999  0.04195999999999998  1.0000
  C   C49       1.0  0.10877999999999995  0.94317  0.6539199999999998  1.0000
  C   C50       1.0  0.15231999999999996  0.9318699999999999  0.62762  1.0000
  C   C51       1.0  0.21898  0.92613  0.66938  1.0000
  C   C52       1.0  0.23463999999999988  0.9310699999999998  0.7367599999999997  1.0000
  C   C53       1.0  0.18724999999999994  0.9413599999999999  0.7581  1.0000
  C   C54       1.0  0.26821  0.91892  0.64768  1.0000
  C   C55       1.0  0.2577  0.89884  0.57734  1.0000
  C   C56       1.0  0.18939  0.86208  0.50522  1.0000
  C   C57       1.0  0.15293  0.7957899999999999  0.47825  1.0000
  C   C58       1.0  0.09269999999999996  0.75767  0.40673999999999993  1.0000
  C   C59       1.0  0.09886000000000005  0.84622  0.38743  1.0000
  C   C60       1.0  0.16021999999999995  0.8874  0.45796999999999993  1.0000
  C   C61       1.0  0.54497  0.21084  0.65379  1.0000
  C   C62       1.0  0.47519  0.19599999999999998  0.62758  1.0000
  C   C63       1.0  0.45027  0.24341999999999997  0.66937  1.0000
  C   C64       1.0  0.50188  0.3057599999999999  0.73665  1.0000
  C   C65       1.0  0.57056  0.3166299999999999  0.75787  1.0000
  C   C66       1.0  0.37937  0.22876  0.64764  1.0000
  C   C67       1.0  0.3197  0.17839000000000005  0.57734  1.0000
  C   C68       1.0  0.31595000000000006  0.14296  0.50515  1.0000
  C   C69       1.0  0.32548  0.18222  0.47806  1.0000
  C   C70       1.0  0.3140600000000001  0.14892999999999995  0.40642  1.0000
  C   C71       1.0  0.28874  0.04117000000000003  0.38735  1.0000
  C   C72       1.0  0.29787  0.07044000000000003  0.45795  1.0000
  C   C73       1.0  0.9426899999999999  0.54473  0.15333  1.0000
  C   C74       1.0  0.93203  0.47506  0.12749  1.0000
  C   C75       1.0  0.9264600000000001  0.45008  0.16938  1.0000
  C   C76       1.0  0.9311500000000001  0.50157  0.2366  1.0000
  C   C77       1.0  0.94089  0.57014  0.25752  1.0000
  C   C78       1.0  0.91935  0.3792  0.14778  1.0000
  C   C79       1.0  0.8990599999999999  0.31948  0.07741  1.0000
  C   C80       1.0  0.86246  0.31591  0.00536  1.0000
  C   C81       1.0  0.79626  0.3255199999999999  0.97852  1.0000
  C   C82       1.0  0.75833  0.31472  0.90717  1.0000
  C   C83       1.0  0.84687  0.28952  0.88786  1.0000
  C   C84       1.0  0.88789  0.2982799999999999  0.95827  1.0000
  C   C85       1.0  0.21070999999999995  0.10860999999999997  0.15342999999999996  1.0000
  C   C86       1.0  0.19547999999999996  0.15241  0.12749  1.0000
  C   C87       1.0  0.24290999999999996  0.21914999999999998  0.16929  1.0000
  C   C88       1.0  0.3054199999999999  0.23475  0.23641  1.0000
  C   C89       1.0  0.31662999999999997  0.18712  0.25741  1.0000
  C   C90       1.0  0.22837  0.26844  0.14767  1.0000
  C   C91       1.0  0.17814999999999998  0.25798  0.07741  1.0000
  C   C92       1.0  0.14269  0.18959  0.005319999999999998  1.0000
  C   C93       1.0  0.18201000000000006  0.1531800000000001  0.9783800000000001  1.0000
  C   C94       1.0  0.14882999999999996  0.09265999999999994  0.9070999999999999  1.0000
  C   C95       1.0  0.041060000000000006  0.09844999999999998  0.88795  1.0000
  C   C96       1.0  0.07024000000000007  0.16006000000000004  0.95829  1.0000
  C   C97       1.0  0.10861  0.21074  0.6534  1.0000
  C   C98       1.0  0.15249  0.19551  0.62756  1.0000
  C   C99       1.0  0.21920000000000003  0.24295  0.66932  1.0000
  C   C100      1.0  0.23477  0.3053999999999999  0.73646  1.0000
  C   C101      1.0  0.18708999999999998  0.3166299999999999  0.7573899999999999  1.0000
  C   C102      1.0  0.26847  0.22838  0.64769  1.0000
  C   C103      1.0  0.25795999999999997  0.17815  0.5773899999999998  1.0000
  C   C104      1.0  0.18951  0.14267  0.50534  1.0000
  C   C105      1.0  0.15299000000000001  0.18196  0.47840000000000005  1.0000
  C   C106      1.0  0.09252999999999996  0.14875999999999995  0.4070699999999999  1.0000
  C   C107      1.0  0.09847000000000002  0.04099999999999994  0.3878499999999999  1.0000
  C   C108      1.0  0.1601  0.0702  0.45818  1.0000
  C   C109      1.0  0.54476  0.94268  0.65337  1.0000
  C   C110      1.0  0.47508  0.93208  0.62758  1.0000
  C   C111      1.0  0.4501199999999999  0.9265  0.6694799999999999  1.0000
  C   C112      1.0  0.5016399999999999  0.9311999999999998  0.7366999999999998  1.0000
  C   C113      1.0  0.5702  0.9408199999999999  0.75755  1.0000
  C   C114      1.0  0.37922  0.91934  0.64783  1.0000
  C   C115      1.0  0.3194999999999999  0.89906  0.5774299999999998  1.0000
  C   C116      1.0  0.31596999999999986  0.8624699999999998  0.5053899999999998  1.0000
  C   C117      1.0  0.32547  0.7962499999999999  0.47851  1.0000
  C   C118      1.0  0.31460999999999995  0.7582499999999999  0.40713  1.0000
  C   C119      1.0  0.2895  0.84681  0.38782999999999995  1.0000
  C   C120      1.0  0.29825  0.88786  0.45823  1.0000
  C   C121      1.0  0.9431  0.10875  0.15383  1.0000
  C   C122      1.0  0.9318099999999999  0.15231  0.12754  1.0000
  C   C123      1.0  0.92611  0.21896  0.16936  1.0000
  C   C124      1.0  0.9310399999999999  0.23463  0.23673  1.0000
  C   C125      1.0  0.9413  0.18720999999999996  0.25803  1.0000
  C   C126      1.0  0.91895  0.26821  0.14768  1.0000
  C   C127      1.0  0.8988499999999999  0.25769  0.07733  1.0000
  C   C128      1.0  0.86209  0.18933999999999998  0.005229999999999999  1.0000
  C   C129      1.0  0.7958299999999998  0.15285999999999988  0.9783199999999999  1.0000
  C   C130      1.0  0.7576199999999998  0.09265999999999994  0.9067799999999999  1.0000
  C   C131      1.0  0.8460800000000002  0.09883000000000002  0.88733  1.0000
  C   C132      1.0  0.8873199999999998  0.16017999999999985  0.9578799999999998  1.0000
  C   C133      1.0  0.21087999999999998  0.545  0.15378  1.0000
  C   C134      1.0  0.19599999999999998  0.47524  0.12758  1.0000
  C   C135      1.0  0.24344  0.4503  0.16937  1.0000
  C   C136      1.0  0.30578  0.5019099999999999  0.23668  1.0000
  C   C137      1.0  0.31664999999999993  0.57057  0.25786  1.0000
  C   C138      1.0  0.22881  0.37939999999999996  0.14764  1.0000
  C   C139      1.0  0.17845000000000003  0.31972  0.07737999999999999  1.0000
  C   C140      1.0  0.14305  0.31591  0.0052  1.0000
  C   C141      1.0  0.18228  0.3254800000000001  0.97813  1.0000
  C   C142      1.0  0.1489999999999999  0.31414000000000003  0.9065399999999999  1.0000
  C   C143      1.0  0.041249999999999995  0.2887399999999999  0.88746  1.0000
  C   C144      1.0  0.07053999999999996  0.29782000000000003  0.95802  1.0000
  C   C145      1.0  0.8912299999999999  0.05704999999999994  0.3461799999999999  1.0000
  C   C146      1.0  0.8476200000000002  0.06825999999999996  0.37239  1.0000
  C   C147      1.0  0.78093  0.07386999999999998  0.33052999999999993  1.0000
  C   C148      1.0  0.7652799999999998  0.06892  0.26316  1.0000
  C   C149      1.0  0.8127600000000001  0.05878999999999999  0.24193  1.0000
  C   C150      1.0  0.73172  0.08103  0.35226  1.0000
  C   C151      1.0  0.7423  0.10116999999999995  0.4226599999999999  1.0000
  C   C152      1.0  0.81065  0.13797000000000004  0.49482  1.0000
  C   C153      1.0  0.8472399999999999  0.20423  0.52176  1.0000
  C   C154      1.0  0.9074999999999999  0.2423799999999999  0.5932799999999998  1.0000
  C   C155      1.0  0.90119  0.15395999999999996  0.6127499999999999  1.0000
  C   C156      1.0  0.83978  0.11279  0.54225  1.0000
  C   C157      1.0  0.45501  0.78911  0.34627  1.0000
  C   C158      1.0  0.52477  0.80397  0.37242  1.0000
  C   C159      1.0  0.5496699999999999  0.7565399999999999  0.33059  1.0000
  C   C160      1.0  0.49805  0.6941999999999999  0.26323  1.0000
  C   C161      1.0  0.42939999999999995  0.68331  0.24209999999999998  1.0000
  C   C162      1.0  0.6206  0.77119  0.35239  1.0000
  C   C163      1.0  0.68031  0.82155  0.4226699999999999  1.0000
  C   C164      1.0  0.68414  0.85703  0.49487999999999993  1.0000
  C   C165      1.0  0.6744300000000002  0.81779  0.52192  1.0000
  C   C166      1.0  0.6857299999999998  0.85108  0.59349  1.0000
  C   C167      1.0  0.7113  0.95881  0.61265  1.0000
  C   C168      1.0  0.7022699999999998  0.92953  0.54211  1.0000
  C   C169      1.0  0.05745  0.45527  0.84671  1.0000
  C   C170      1.0  0.06801999999999998  0.52494  0.87249  1.0000
  C   C171      1.0  0.07365000000000001  0.54993  0.83064  1.0000
  C   C172      1.0  0.06892999999999994  0.49842999999999976  0.7634099999999998  1.0000
  C   C173      1.0  0.05921999999999992  0.42985  0.7425  1.0000
  C   C174      1.0  0.08066999999999988  0.6207899999999997  0.8522299999999998  1.0000
  C   C175      1.0  0.10090999999999992  0.6804999999999999  0.9225899999999999  1.0000
  C   C176      1.0  0.1375200000000001  0.6840200000000001  0.99461  1.0000
  C   C177      1.0  0.20365000000000003  0.67432  0.02142  1.0000
  C   C178      1.0  0.24168  0.68516  0.09279  1.0000
  C   C179      1.0  0.15326  0.7106  0.11224  1.0000
  C   C180      1.0  0.1122  0.7018499999999999  0.04185  1.0000
  C   C181      1.0  0.7892600000000001  0.89138  0.84661  1.0000
  C   C182      1.0  0.80451  0.8475199999999999  0.87247  1.0000
  C   C183      1.0  0.7570999999999998  0.78075  0.8306099999999998  1.0000
  C   C184      1.0  0.6945899999999999  0.7651799999999997  0.7634899999999998  1.0000
  C   C185      1.0  0.68334  0.81288  0.7426  1.0000
  C   C186      1.0  0.7716  0.73148  0.8522499999999998  1.0000
  C   C187      1.0  0.82178  0.74199  0.9225600000000002  1.0000
  C   C188      1.0  0.85727  0.8104  0.99463  1.0000
  C   C189      1.0  0.818  0.84694  0.0216  1.0000
  C   C190      1.0  0.85124  0.90744  0.09288  1.0000
  C   C191      1.0  0.9589800000000002  0.90146  0.11203999999999999  1.0000
  C   C192      1.0  0.92973  0.8398199999999999  0.04172  1.0000
  S   S1        1.0  0.64301  0.7248999999999999  0.28609999999999997  1.0000
  S   S2        1.0  0.64314  0.06101999999999995  0.2858599999999999  1.0000
  S   S3        1.0  0.061049999999999986  0.64316  0.78593  1.0000
  S   S4        1.0  0.72491  0.6429499999999999  0.78606  1.0000
  S   S5        1.0  0.35678  0.93881  0.71405  1.0000
  S   S6        1.0  0.3569499999999999  0.2752299999999999  0.7138799999999998  1.0000
  S   S7        1.0  0.93894  0.35679  0.21404999999999993  1.0000
  S   S8        1.0  0.27518999999999993  0.35694  0.21386999999999998  1.0000
  N   N1        1.0  0.87584  0.7296299999999999  0.28208  1.0000
  N   N2        1.0  0.93531  0.9211899999999998  0.6387  1.0000
  N   N3        1.0  0.40642  0.05256  0.28213  1.0000
  N   N4        1.0  0.70332  0.21760999999999997  0.63875  1.0000
  N   N5        1.0  0.05155999999999997  0.87552  0.78132  1.0000
  N   N6        1.0  0.21827000000000002  0.9349199999999999  0.13924  1.0000
  N   N7        1.0  0.7297800000000001  0.40597  0.78151  1.0000
  N   N8        1.0  0.92106  0.70427  0.1394  1.0000
  N   N9        1.0  0.12453999999999987  0.9485599999999998  0.7187799999999998  1.0000
  N   N10       1.0  0.06507999999999996  0.78176  0.36077  1.0000
  N   N11       1.0  0.5940099999999998  0.27019999999999994  0.71856  1.0000
  N   N12       1.0  0.2957599999999999  0.07893999999999995  0.3605599999999999  1.0000
  N   N13       1.0  0.94758  0.5935999999999998  0.2179  1.0000
  N   N14       1.0  0.7824799999999998  0.2967499999999998  0.8613099999999998  1.0000
  N   N15       1.0  0.27031  0.12419  0.21797  1.0000
  N   N16       1.0  0.07887999999999992  0.06475999999999987  0.8613099999999998  1.0000
  N   N17       1.0  0.12410999999999994  0.2703699999999999  0.7178499999999998  1.0000
  N   N18       1.0  0.06466999999999999  0.07881  0.36126  1.0000
  N   N19       1.0  0.59363  0.9474899999999999  0.71789  1.0000
  N   N20       1.0  0.29667  0.7824199999999999  0.36127  1.0000
  N   N21       1.0  0.94848  0.12448999999999998  0.21868999999999994  1.0000
  N   N22       1.0  0.7816400000000001  0.0650799999999999  0.8607299999999998  1.0000
  N   N23       1.0  0.27024  0.59405  0.21854999999999994  1.0000
  N   N24       1.0  0.07899999999999989  0.2957899999999999  0.8606499999999998  1.0000
  N   N25       1.0  0.8755  0.05164999999999997  0.28130999999999995  1.0000
  N   N26       1.0  0.93507  0.21832999999999997  0.6393  1.0000
  N   N27       1.0  0.40597  0.72973  0.28149  1.0000
  N   N28       1.0  0.7041700000000001  0.9210599999999999  0.63943  1.0000
  N   N29       1.0  0.05260999999999993  0.40639999999999993  0.78217  1.0000
  N   N30       1.0  0.21758  0.70326  0.13874  1.0000
  N   N31       1.0  0.72965  0.87582  0.78208  1.0000
  N   N32       1.0  0.92119  0.93527  0.13868  1.0000
