data_image0
_chemical_formula_structural       Cu4H84C116N8O20
_chemical_formula_sum              "Cu4 H84 C116 N8 O20"
_cell_length_a       9.19333
_cell_length_b       12.89523
_cell_length_c       25.92415
_cell_angle_alpha    96.26089000000002
_cell_angle_beta     89.98293
_cell_angle_gamma    90.00766999999999

_space_group_name_H-M_alt    "P 1"
_space_group_IT_number       1

loop_
  _space_group_symop_operation_xyz
  'x, y, z'

loop_
  _atom_site_type_symbol
  _atom_site_label
  _atom_site_symmetry_multiplicity
  _atom_site_fract_x
  _atom_site_fract_y
  _atom_site_fract_z
  _atom_site_occupancy
  Cu  Cu1       1.0  0.6238400000000001  0.95005  0.00305  1.0000
  Cu  Cu2       1.0  0.12337000000000001  0.04963000000000001  0.4969799999999999  1.0000
  Cu  Cu3       1.0  0.37616  0.049949999999999974  0.9969399999999999  1.0000
  Cu  Cu4       1.0  0.8766300000000001  0.95036  0.50302  1.0000
  H   H1        1.0  0.09841  0.28272  0.63017  1.0000
  H   H2        1.0  0.7225  0.09344000000000001  0.65076  1.0000
  H   H3        1.0  0.05128  0.38535  0.71514  1.0000
  H   H4        1.0  0.6732100000000001  0.19635  0.7359  1.0000
  H   H5        1.0  0.9455400000000002  0.75755  0.8251799999999999  1.0000
  H   H6        1.0  0.85838  0.68961  0.73652  1.0000
  H   H7        1.0  0.979  0.6348  0.89183  1.0000
  H   H8        1.0  0.8001600000000002  0.50218  0.7159599999999999  1.0000
  H   H9        1.0  0.9298400000000001  0.4463  0.87027  1.0000
  H   H10       1.0  0.94058  0.17819  0.80885  1.0000
  H   H11       1.0  0.6018400000000002  0.40604  0.84051  1.0000
  H   H12       1.0  0.50482  0.3053  0.91032  1.0000
  H   H13       1.0  0.8471300000000003  0.08034  0.8803  1.0000
  H   H14       1.0  0.89891  0.9580800000000002  0.94629  1.0000
  H   H15       1.0  0.13188000000000002  0.86181  0.92861  1.0000
  H   H16       1.0  0.76963  0.7610200000000001  0.05284  1.0000
  H   H17       1.0  0.99725  0.6532200000000001  0.03883000000000001  1.0000
  H   H18       1.0  0.23878  0.6694  0.92984  1.0000
  H   H19       1.0  0.31405  0.74836  0.98335  1.0000
  H   H20       1.0  0.48919000000000007  0.6588900000000001  0.95381  1.0000
  H   H21       1.0  0.28131000000000006  0.43887000000000004  0.04416  1.0000
  H   H22       1.0  0.59799  0.71789  0.86995  1.0000
  H   H23       1.0  0.22218  0.90677  0.84908  1.0000
  H   H24       1.0  0.5512400000000001  0.61487  0.78509  1.0000
  H   H25       1.0  0.17292  0.80355  0.76401  1.0000
  H   H26       1.0  0.44553  0.24237000000000003  0.67482  1.0000
  H   H27       1.0  0.35833  0.31037  0.76346  1.0000
  H   H28       1.0  0.47902  0.36504000000000003  0.60813  1.0000
  H   H29       1.0  0.30025  0.49777  0.7840299999999999  1.0000
  H   H30       1.0  0.43002  0.55355  0.62966  1.0000
  H   H31       1.0  0.44098000000000004  0.82197  0.69117  1.0000
  H   H32       1.0  0.10185  0.59397  0.65938  1.0000
  H   H33       1.0  0.00511  0.69509  0.58968  1.0000
  H   H34       1.0  0.34718  0.9199  0.61974  1.0000
  H   H35       1.0  0.39841  0.04184000000000001  0.55365  1.0000
  H   H36       1.0  0.63142  0.13819  0.57137  1.0000
  H   H37       1.0  0.26947  0.23905  0.44711  1.0000
  H   H38       1.0  0.49710000000000004  0.34675999999999996  0.46120999999999995  1.0000
  H   H39       1.0  0.73859  0.33086000000000004  0.57  1.0000
  H   H40       1.0  0.81346  0.25217  0.51635  1.0000
  H   H41       1.0  0.98849  0.3412200000000001  0.5461  1.0000
  H   H42       1.0  0.78206  0.56185  0.45579  1.0000
  H   H43       1.0  0.9015900000000002  0.71728  0.36983  1.0000
  H   H44       1.0  0.2775  0.90656  0.34924  1.0000
  H   H45       1.0  0.9487200000000001  0.61464  0.28486  1.0000
  H   H46       1.0  0.3267900000000001  0.8036500000000001  0.2641  1.0000
  H   H47       1.0  0.05446000000000001  0.24244000000000002  0.17482  1.0000
  H   H48       1.0  0.14162  0.31039  0.26347  1.0000
  H   H49       1.0  0.021  0.36519  0.10817  1.0000
  H   H50       1.0  0.19984000000000005  0.49781  0.28403  1.0000
  H   H51       1.0  0.07017000000000001  0.5537  0.12973  1.0000
  H   H52       1.0  0.05942  0.82181  0.19115  1.0000
  H   H53       1.0  0.39817  0.59395  0.15948  1.0000
  H   H54       1.0  0.49518000000000006  0.6947  0.08967  1.0000
  H   H55       1.0  0.15288  0.91965  0.11969  1.0000
  H   H56       1.0  0.1011  0.04191000000000001  0.05371  1.0000
  H   H57       1.0  0.8681200000000001  0.13819  0.07139  1.0000
  H   H58       1.0  0.23037  0.23896999999999993  0.94716  1.0000
  H   H59       1.0  0.002750000000000001  0.34678  0.96117  1.0000
  H   H60       1.0  0.7612200000000001  0.33060000000000006  0.07015  1.0000
  H   H61       1.0  0.68596  0.25164  0.01664  1.0000
  H   H62       1.0  0.51081  0.34111  0.04618  1.0000
  H   H63       1.0  0.7187000000000002  0.56112  0.95583  1.0000
  H   H64       1.0  0.40201  0.28211  0.13005  1.0000
  H   H65       1.0  0.77782  0.09323  0.15092  1.0000
  H   H66       1.0  0.44876000000000005  0.38512  0.21491  1.0000
  H   H67       1.0  0.8270800000000001  0.19645  0.23599  1.0000
  H   H68       1.0  0.55448  0.75762  0.32517  1.0000
  H   H69       1.0  0.64167  0.68962  0.23653  1.0000
  H   H70       1.0  0.52098  0.6349500000000001  0.39187  1.0000
  H   H71       1.0  0.69976  0.50223  0.21596999999999997  1.0000
  H   H72       1.0  0.56999  0.44645000000000007  0.37033  1.0000
  H   H73       1.0  0.5590200000000002  0.17801999999999998  0.30883  1.0000
  H   H74       1.0  0.8981500000000001  0.40602000000000005  0.3406199999999999  1.0000
  H   H75       1.0  0.9948900000000003  0.30491  0.41031  1.0000
  H   H76       1.0  0.65282  0.0801  0.38026  1.0000
  H   H77       1.0  0.60159  0.9581500000000001  0.44635  1.0000
  H   H78       1.0  0.36858000000000013  0.86181  0.42862  1.0000
  H   H79       1.0  0.73053  0.76095  0.55289  1.0000
  H   H80       1.0  0.5029  0.65324  0.53879  1.0000
  H   H81       1.0  0.26141  0.66914  0.43  1.0000
  H   H82       1.0  0.18654  0.7478300000000001  0.48365  1.0000
  H   H83       1.0  0.011510000000000003  0.6587800000000001  0.4539  1.0000
  H   H84       1.0  0.21794  0.43814  0.54421  1.0000
  C   C1        1.0  0.9423600000000001  0.11995000000000001  0.58424  1.0000
  C   C2        1.0  0.91163  0.18276000000000003  0.63448  1.0000
  C   C3        1.0  0.0036100000000000004  0.26576  0.65296  1.0000
  C   C4        1.0  0.7924700000000002  0.15846  0.6649  1.0000
  C   C5        1.0  0.97719  0.32331  0.70059  1.0000
  C   C6        1.0  0.76524  0.21560000000000004  0.71247  1.0000
  C   C7        1.0  0.85758  0.29871  0.73096  1.0000
  C   C8        1.0  0.92282  0.675  0.81561  1.0000
  C   C9        1.0  0.87401  0.6367800000000001  0.76604  1.0000
  C   C10       1.0  0.9416200000000001  0.60596  0.85306  1.0000
  C   C11       1.0  0.84226  0.531  0.7540399999999999  1.0000
  C   C12       1.0  0.9135400000000001  0.49972  0.8411299999999999  1.0000
  C   C13       1.0  0.86277  0.46131  0.79149  1.0000
  C   C14       1.0  0.7767  0.2978  0.82052  1.0000
  C   C15       1.0  0.8462200000000001  0.20577  0.8315799999999999  1.0000
  C   C16       1.0  0.6545700000000001  0.33467  0.8494  1.0000
  C   C17       1.0  0.60084  0.27881000000000006  0.88817  1.0000
  C   C18       1.0  0.79359  0.15118999999999996  0.8711  1.0000
  C   C19       1.0  0.66926  0.18648  0.89918  1.0000
  C   C20       1.0  0.60646  0.12476000000000001  0.93893  1.0000
  C   C21       1.0  0.9255400000000001  0.89015  0.9659399999999999  1.0000
  C   C22       1.0  0.05375  0.8350999999999998  0.95567  1.0000
  C   C23       1.0  0.85327  0.7803000000000001  0.02566  1.0000
  C   C24       1.0  0.97944  0.72034  0.01764  1.0000
  C   C25       1.0  0.08303  0.7483500000000001  0.98222  1.0000
  C   C26       1.0  0.22552  0.693  0.97182  1.0000
  C   C27       1.0  0.3683800000000001  0.55459  0.9987  1.0000
  C   C28       1.0  0.49181  0.58912  0.9737799999999998  1.0000
  C   C29       1.0  0.37725  0.46535  0.02481  1.0000
  C   C30       1.0  0.4400200000000001  0.88048  0.9159099999999999  1.0000
  C   C31       1.0  0.41079  0.81763  0.86551  1.0000
  C   C32       1.0  0.50324  0.73476  0.84713  1.0000
  C   C33       1.0  0.2920900000000001  0.84172  0.83492  1.0000
  C   C34       1.0  0.4771600000000001  0.6770500000000002  0.79951  1.0000
  C   C35       1.0  0.26514  0.78445  0.78738  1.0000
  C   C36       1.0  0.35778  0.70142  0.76899  1.0000
  C   C37       1.0  0.42279  0.32492000000000004  0.68437  1.0000
  C   C38       1.0  0.37397  0.36318999999999996  0.7339399999999999  1.0000
  C   C39       1.0  0.44162  0.39391  0.6469  1.0000
  C   C40       1.0  0.34236  0.469  0.74594  1.0000
  C   C41       1.0  0.4137  0.50016  0.65882  1.0000
  C   C42       1.0  0.3630900000000001  0.5386499999999999  0.70848  1.0000
  C   C43       1.0  0.2771100000000001  0.70218  0.67945  1.0000
  C   C44       1.0  0.34655  0.7943600000000001  0.66851  1.0000
  C   C45       1.0  0.15472000000000005  0.66543  0.65064  1.0000
  C   C46       1.0  0.10112000000000003  0.72143  0.61189  1.0000
  C   C47       1.0  0.29401  0.8490000000000002  0.62905  1.0000
  C   C48       1.0  0.17011000000000004  0.81356  0.60085  1.0000
  C   C49       1.0  0.10883000000000001  0.8752499999999999  0.56089  1.0000
  C   C50       1.0  0.42516  0.10976  0.53401  1.0000
  C   C51       1.0  0.5533600000000002  0.16485  0.54427  1.0000
  C   C52       1.0  0.35294000000000003  0.21960999999999997  0.47428999999999993  1.0000
  C   C53       1.0  0.47906000000000004  0.27959999999999996  0.48231999999999997  1.0000
  C   C54       1.0  0.58259  0.25166  0.51777  1.0000
  C   C55       1.0  0.72487  0.30731  0.52805  1.0000
  C   C56       1.0  0.86783  0.44563  0.50119  1.0000
  C   C57       1.0  0.99131  0.41086  0.52617  1.0000
  C   C58       1.0  0.87757  0.53484  0.47523  1.0000
  C   C59       1.0  0.05765  0.8800500000000001  0.41575999999999996  1.0000
  C   C60       1.0  0.08838  0.81724  0.36551  1.0000
  C   C61       1.0  0.9963900000000001  0.73424  0.34702999999999995  1.0000
  C   C62       1.0  0.20753  0.8415400000000001  0.33509  1.0000
  C   C63       1.0  0.02281  0.67669  0.29941  1.0000
  C   C64       1.0  0.23476000000000002  0.7844  0.28752  1.0000
  C   C65       1.0  0.14242  0.70129  0.26904  1.0000
  C   C66       1.0  0.07718000000000001  0.325  0.18439  1.0000
  C   C67       1.0  0.12599000000000002  0.3632099999999999  0.23395999999999997  1.0000
  C   C68       1.0  0.05838000000000001  0.39404  0.14694  1.0000
  C   C69       1.0  0.15774  0.46899  0.24596  1.0000
  C   C70       1.0  0.08647000000000002  0.50027  0.15887  1.0000
  C   C71       1.0  0.13724000000000003  0.53869  0.20851  1.0000
  C   C72       1.0  0.22331000000000004  0.7022000000000002  0.17946999999999996  1.0000
  C   C73       1.0  0.15378  0.79423  0.16841  1.0000
  C   C74       1.0  0.3454300000000001  0.66532  0.1506  1.0000
  C   C75       1.0  0.39917000000000014  0.72118  0.11182  1.0000
  C   C76       1.0  0.20642  0.84881  0.1289  1.0000
  C   C77       1.0  0.33075  0.81351  0.10082  1.0000
  C   C78       1.0  0.39355  0.87524  0.06107  1.0000
  C   C79       1.0  0.07446  0.10985  0.03406  1.0000
  C   C80       1.0  0.94625  0.16489  0.044329999999999994  1.0000
  C   C81       1.0  0.14673000000000005  0.2197  0.97433  1.0000
  C   C82       1.0  0.020560000000000005  0.27965999999999996  0.9823499999999997  1.0000
  C   C83       1.0  0.91698  0.25164  0.01778  1.0000
  C   C84       1.0  0.7744800000000001  0.30699  0.028179999999999997  1.0000
  C   C85       1.0  0.63163  0.4454  0.00129  1.0000
  C   C86       1.0  0.50819  0.41087  0.02622  1.0000
  C   C87       1.0  0.62275  0.53465  0.97519  1.0000
  C   C88       1.0  0.55998  0.11952  0.08409  1.0000
  C   C89       1.0  0.58921  0.18237  0.13448  1.0000
  C   C90       1.0  0.49676000000000003  0.26523  0.15287  1.0000
  C   C91       1.0  0.70792  0.15827  0.16507999999999998  1.0000
  C   C92       1.0  0.52284  0.32294999999999996  0.20048  1.0000
  C   C93       1.0  0.73487  0.21555000000000002  0.21262  1.0000
  C   C94       1.0  0.6422300000000002  0.29858  0.23101  1.0000
  C   C95       1.0  0.57721  0.67507  0.31562  1.0000
  C   C96       1.0  0.62604  0.63681  0.26606  1.0000
  C   C97       1.0  0.55838  0.60609  0.3531  1.0000
  C   C98       1.0  0.6576400000000002  0.531  0.25406  1.0000
  C   C99       1.0  0.5863  0.49983999999999995  0.34118  1.0000
  C   C100      1.0  0.63692  0.46134000000000003  0.29151  1.0000
  C   C101      1.0  0.7228900000000001  0.29782  0.32054  1.0000
  C   C102      1.0  0.6534600000000002  0.20564  0.33148  1.0000
  C   C103      1.0  0.84528  0.33457  0.34936  1.0000
  C   C104      1.0  0.8988800000000001  0.27857  0.38810999999999996  1.0000
  C   C105      1.0  0.70599  0.151  0.37095  1.0000
  C   C106      1.0  0.82989  0.18643000000000004  0.39915  1.0000
  C   C107      1.0  0.8911800000000001  0.12474  0.43911  1.0000
  C   C108      1.0  0.57485  0.89023  0.46599  1.0000
  C   C109      1.0  0.44664000000000004  0.8351500000000001  0.45572  1.0000
  C   C110      1.0  0.6470600000000002  0.78039  0.5257  1.0000
  C   C111      1.0  0.5209400000000001  0.7204000000000002  0.51767  1.0000
  C   C112      1.0  0.41742  0.74833  0.48223  1.0000
  C   C113      1.0  0.27513  0.69268  0.4719499999999999  1.0000
  C   C114      1.0  0.13218000000000002  0.55437  0.49881  1.0000
  C   C115      1.0  0.008690000000000002  0.58913  0.47383  1.0000
  C   C116      1.0  0.12244  0.46516  0.52477  1.0000
  N   N1        1.0  0.8307  0.35365  0.78013  1.0000
  N   N2        1.0  0.82632  0.8644400000000001  0.00062  1.0000
  N   N3        1.0  0.33151000000000014  0.64637  0.7197899999999999  1.0000
  N   N4        1.0  0.32595  0.13545  0.4993  1.0000
  N   N5        1.0  0.1693  0.64634  0.21985999999999997  1.0000
  N   N6        1.0  0.17368  0.13554999999999998  0.99938  1.0000
  N   N7        1.0  0.66849  0.35363  0.28021  1.0000
  N   N8        1.0  0.67406  0.86455  0.50069  1.0000
  O   O1        1.0  0.05881  0.14089  0.56068  1.0000
  O   O2        1.0  0.84918  0.04989  0.56795  1.0000
  O   O3        1.0  0.4751600000000001  0.1455  0.95283  1.0000
  O   O4        1.0  0.6886500000000002  0.05591000000000004  0.95601  1.0000
  O   O5        1.0  0.23465  0.60405  0.0  1.0000
  O   O6        1.0  0.5554500000000002  0.8589  0.93989  1.0000
  O   O7        1.0  0.34722000000000003  0.95109  0.93181  1.0000
  O   O8        1.0  0.97769  0.8546500000000001  0.54677  1.0000
  O   O9        1.0  0.19166  0.94384  0.54382  1.0000
  O   O10       1.0  0.7338700000000002  0.3962800000000001  0.49986999999999987  1.0000
  O   O11       1.0  0.9412  0.85911  0.43932  1.0000
  O   O12       1.0  0.15082  0.9501  0.4320399999999999  1.0000
  O   O13       1.0  0.52484  0.85449  0.04716999999999999  1.0000
  O   O14       1.0  0.31135000000000007  0.9440900000000001  0.04398  1.0000
  O   O15       1.0  0.76535  0.39594  0.0  1.0000
  O   O16       1.0  0.44455  0.14109  0.06011  1.0000
  O   O17       1.0  0.6527800000000002  0.04891  0.06819  1.0000
  O   O18       1.0  0.02231  0.14533999999999997  0.45321999999999996  1.0000
  O   O19       1.0  0.80834  0.05614999999999998  0.4561799999999999  1.0000
  O   O20       1.0  0.26613000000000003  0.60372  0.50012  1.0000
