data_image0
_chemical_formula_structural       Cd12H72C152O48
_chemical_formula_sum              "Cd12 H72 C152 O48"
_cell_length_a       18.58658
_cell_length_b       20.08528
_cell_length_c       24.1198
_cell_angle_alpha    68.16061
_cell_angle_beta     67.41169
_cell_angle_gamma    62.65357

_symmetry_space_group_name_H-M    'P 1'
_symmetry_Int_Tables_number       1

loop_
  _symmetry_equiv_pos_as_xyz
  'x,y,z'

loop_
  _atom_site_type_symbol
  _atom_site_label
  _atom_site_symmetry_multiplicity
  _atom_site_fract_x
  _atom_site_fract_y
  _atom_site_fract_z
  _atom_site_occupancy
  Cd  Cd1       1.0  0.3410800000000001  0.89122  0.69664  1.0000
  Cd  Cd2       1.0  0.4779700000000002  0.68688  0.6720699999999998  1.0000
  Cd  Cd3       1.0  0.3922500000000001  0.81231  0.55488  1.0000
  Cd  Cd4       1.0  0.9285800000000005  0.60804  0.8033299999999998  1.0000
  Cd  Cd5       1.0  0.8380100000000001  0.81256  0.82797  1.0000
  Cd  Cd6       1.0  0.7606400000000001  0.6869  0.94516  1.0000
  Cd  Cd7       1.0  0.6589300000000001  0.10876999999999999  0.30336  1.0000
  Cd  Cd8       1.0  0.5220300000000001  0.31311000000000005  0.32792999999999994  1.0000
  Cd  Cd9       1.0  0.60776  0.18769  0.44512  1.0000
  Cd  Cd10      1.0  0.07143000000000001  0.39194999999999997  0.19668  1.0000
  Cd  Cd11      1.0  0.162  0.18743000000000004  0.17203999999999997  1.0000
  Cd  Cd12      1.0  0.23937000000000003  0.31309  0.05483999999999999  1.0000
  H   H1        1.0  0.09849999999999984  0.8239000000000001  0.74434  1.0000
  H   H2        1.0  0.06831999999999995  0.67559  0.67041  1.0000
  H   H3        1.0  0.3109200000000001  0.68538  0.6273399999999999  1.0000
  H   H4        1.0  0.13912000000000005  0.6653  0.55675  1.0000
  H   H5        1.0  0.21987999999999996  0.5798000000000001  0.4839999999999999  1.0000
  H   H6        1.0  0.3543400000000001  0.47751999999999994  0.44224  1.0000
  H   H7        1.0  0.5484499999999999  0.36204  0.538  1.0000
  H   H8        1.0  0.46659000000000006  0.44834  0.61103  1.0000
  H   H9        1.0  0.3405300000000001  0.55586  0.6455399999999999  1.0000
  H   H10       1.0  0.45076  0.02651000000000001  0.44235  1.0000
  H   H11       1.0  0.36044000000000004  0.24248000000000008  0.48899999999999993  1.0000
  H   H12       1.0  0.25159000000000004  0.07181000000000005  0.6069599999999999  1.0000
  H   H13       1.0  0.3208499999999999  0.27834000000000003  0.57055  1.0000
  H   H14       1.0  0.28668999999999994  0.39049000000000006  0.6077499999999999  1.0000
  H   H15       1.0  0.18530000000000005  0.48601000000000005  0.67076  1.0000
  H   H16       1.0  0.005719999999999979  0.37886000000000003  0.7318  1.0000
  H   H17       1.0  0.039500000000000014  0.2670500000000002  0.6896799999999997  1.0000
  H   H18       1.0  0.13803999999999994  0.17515  0.62473  1.0000
  H   H19       1.0  0.66713  0.6754599999999998  0.75551  1.0000
  H   H20       1.0  0.4158600000000002  0.82416  0.82914  1.0000
  H   H21       1.0  0.62502  0.8132400000000002  0.87316  1.0000
  H   H22       1.0  0.3625  0.83359  0.94227  1.0000
  H   H23       1.0  0.28451000000000004  0.91886  0.015239999999999998  1.0000
  H   H24       1.0  0.27369  0.021990000000000003  0.057  1.0000
  H   H25       1.0  0.4478100000000001  0.13850000000000004  0.9625699999999999  1.0000
  H   H26       1.0  0.5262700000000001  0.05183000000000002  0.89  1.0000
  H   H27       1.0  0.5429300000000001  0.94387  0.8549399999999999  1.0000
  H   H28       1.0  0.91902  0.47351000000000004  0.057319999999999996  1.0000
  H   H29       1.0  0.09098999999999997  0.25724  0.011629999999999998  1.0000
  H   H30       1.0  0.9319900000000002  0.42708000000000007  0.8922999999999999  1.0000
  H   H31       1.0  0.16977  0.22098000000000004  0.93026  1.0000
  H   H32       1.0  0.28485000000000005  0.10911999999999998  0.89309  1.0000
  H   H33       1.0  0.34227000000000013  0.01367000000000005  0.8298699999999999  1.0000
  H   H34       1.0  0.11827999999999995  0.12011000000000001  0.76755  1.0000
  H   H35       1.0  0.9984600000000001  0.23199000000000006  0.8092199999999999  1.0000
  H   H36       1.0  0.9398199999999999  0.32398999999999994  0.87422  1.0000
  H   H37       1.0  0.9014999999999999  0.17609999999999998  0.25566  1.0000
  H   H38       1.0  0.93169  0.3244  0.3296  1.0000
  H   H39       1.0  0.6890899999999998  0.31461000000000006  0.37266  1.0000
  H   H40       1.0  0.8608900000000002  0.33469000000000004  0.44324999999999987  1.0000
  H   H41       1.0  0.7801299999999998  0.42019  0.516  1.0000
  H   H42       1.0  0.64567  0.5224700000000001  0.55776  1.0000
  H   H43       1.0  0.45155999999999985  0.6379600000000001  0.4619999999999999  1.0000
  H   H44       1.0  0.5334200000000001  0.55166  0.38898  1.0000
  H   H45       1.0  0.6594800000000001  0.44414  0.35446999999999995  1.0000
  H   H46       1.0  0.5492399999999998  0.9734800000000001  0.55766  1.0000
  H   H47       1.0  0.6395600000000001  0.7575199999999999  0.511  1.0000
  H   H48       1.0  0.74842  0.92819  0.39305  1.0000
  H   H49       1.0  0.6791599999999999  0.72165  0.42945  1.0000
  H   H50       1.0  0.71332  0.6095  0.39225  1.0000
  H   H51       1.0  0.8147099999999999  0.51398  0.32924  1.0000
  H   H52       1.0  0.9942899999999999  0.62114  0.2682  1.0000
  H   H53       1.0  0.9605100000000002  0.73294  0.31032  1.0000
  H   H54       1.0  0.8619600000000001  0.82485  0.37526999999999994  1.0000
  H   H55       1.0  0.33288000000000006  0.32453  0.24449999999999997  1.0000
  H   H56       1.0  0.58415  0.17583000000000001  0.17087  1.0000
  H   H57       1.0  0.37499  0.18675000000000003  0.12684  1.0000
  H   H58       1.0  0.63751  0.16640000000000002  0.05773999999999999  1.0000
  H   H59       1.0  0.7155000000000002  0.08114000000000007  0.9847699999999998  1.0000
  H   H60       1.0  0.72632  0.978  0.943  1.0000
  H   H61       1.0  0.5521999999999999  0.86149  0.03742999999999999  1.0000
  H   H62       1.0  0.4737400000000001  0.9481599999999999  0.11  1.0000
  H   H63       1.0  0.45708000000000004  0.056119999999999996  0.14506  1.0000
  H   H64       1.0  0.08098999999999999  0.5264800000000001  0.94269  1.0000
  H   H65       1.0  0.9090099999999999  0.7427500000000001  0.9883699999999997  1.0000
  H   H66       1.0  0.06801  0.57291  0.10769999999999999  1.0000
  H   H67       1.0  0.8302400000000001  0.77902  0.06975  1.0000
  H   H68       1.0  0.7151600000000004  0.89087  0.10690999999999999  1.0000
  H   H69       1.0  0.65774  0.98633  0.17013  1.0000
  H   H70       1.0  0.88173  0.8798800000000001  0.23245  1.0000
  H   H71       1.0  0.0015500000000000182  0.768  0.19077999999999998  1.0000
  H   H72       1.0  0.060189999999999994  0.676  0.12578  1.0000
  C   C1        1.0  0.21123999999999998  0.7571800000000002  0.68689  1.0000
  C   C2        1.0  0.12554000000000007  0.7823600000000002  0.71625  1.0000
  C   C3        1.0  0.07473999999999993  0.7528900000000002  0.70956  1.0000
  C   C4        1.0  0.1085399999999998  0.6993600000000001  0.67331  1.0000
  C   C5        1.0  0.1944600000000001  0.67412  0.64363  1.0000
  C   C6        1.0  0.2445899999999999  0.70359  0.6510099999999999  1.0000
  C   C7        1.0  0.26821  0.78741  0.6911  1.0000
  C   C8        1.0  0.9847900000000002  0.77662  0.74415  1.0000
  C   C9        1.0  0.23620999999999995  0.6177100000000002  0.6048399999999999  1.0000
  C   C10       1.0  0.20118000000000005  0.62241  0.55981  1.0000
  C   C11       1.0  0.24630000000000002  0.57499  0.51914  1.0000
  C   C12       1.0  0.32812999999999987  0.5195200000000001  0.52181  1.0000
  C   C13       1.0  0.37761000000000006  0.47171  0.47951999999999995  1.0000
  C   C14       1.0  0.45549  0.4158600000000001  0.4857899999999999  1.0000
  C   C15       1.0  0.4873  0.40632  0.5344  1.0000
  C   C16       1.0  0.44174  0.45371  0.57478  1.0000
  C   C17       1.0  0.36170000000000013  0.5113600000000001  0.5695599999999998  1.0000
  C   C18       1.0  0.31451000000000007  0.56162  0.6097999999999999  1.0000
  C   C19       1.0  0.5049500000000002  0.36292  0.44328999999999996  1.0000
  C   C20       1.0  0.34893  0.042770000000000016  0.52522  1.0000
  C   C21       1.0  0.4077400000000001  0.06512  0.47273  1.0000
  C   C22       1.0  0.4127499999999999  0.13658000000000003  0.46133  1.0000
  C   C23       1.0  0.3563700000000001  0.18647000000000005  0.5002399999999999  1.0000
  C   C24       1.0  0.2957600000000001  0.16579  0.5523  1.0000
  C   C25       1.0  0.29405000000000003  0.09212000000000001  0.56507  1.0000
  C   C26       1.0  0.34927  0.96399  0.53987  1.0000
  C   C27       1.0  0.48108999999999996  0.15794000000000002  0.41007  1.0000
  C   C28       1.0  0.23714000000000002  0.22029  0.59227  1.0000
  C   C29       1.0  0.2590299999999999  0.27593  0.59572  1.0000
  C   C30       1.0  0.20345000000000008  0.33004  0.6322099999999999  1.0000
  C   C31       1.0  0.22533999999999998  0.38793000000000005  0.63464  1.0000
  C   C32       1.0  0.16960000000000008  0.44071  0.6696799999999999  1.0000
  C   C33       1.0  0.08962000000000003  0.43726000000000004  0.7053799999999999  1.0000
  C   C34       1.0  0.06700999999999999  0.38092000000000004  0.70423  1.0000
  C   C35       1.0  0.12236999999999999  0.3269000000000001  0.66746  1.0000
  C   C36       1.0  0.10111000000000007  0.26945  0.6635999999999999  1.0000
  C   C37       1.0  0.15637000000000004  0.21792  0.62728  1.0000
  C   C38       1.0  0.030170000000000034  0.4953700000000001  0.7429099999999998  1.0000
  C   C39       1.0  0.65599  0.74205  0.81311  1.0000
  C   C40       1.0  0.6246500000000001  0.71694  0.78363  1.0000
  C   C41       1.0  0.5379400000000002  0.7464099999999999  0.79024  1.0000
  C   C42       1.0  0.48252  0.80002  0.82645  1.0000
  C   C43       1.0  0.51364  0.8249200000000002  0.85648  1.0000
  C   C44       1.0  0.6003600000000001  0.7953499999999999  0.84927  1.0000
  C   C45       1.0  0.7471599999999999  0.7119600000000001  0.80882  1.0000
  C   C46       1.0  0.50588  0.7225400000000001  0.7558499999999999  1.0000
  C   C47       1.0  0.4602199999999999  0.88135  0.89521  1.0000
  C   C48       1.0  0.38466000000000006  0.87651  0.9396799999999998  1.0000
  C   C49       1.0  0.3412900000000001  0.9239199999999999  0.9803699999999999  1.0000
  C   C50       1.0  0.36989000000000005  0.9798000000000001  0.97803  1.0000
  C   C51       1.0  0.32863  0.02795  0.02014  1.0000
  C   C52       1.0  0.35645  0.08424  0.014239999999999997  1.0000
  C   C53       1.0  0.42752000000000007  0.09395999999999999  0.96603  1.0000
  C   C54       1.0  0.47034  0.04630000000000007  0.9258199999999999  1.0000
  C   C55       1.0  0.4431399999999999  0.9882800000000002  0.9306799999999998  1.0000
  C   C56       1.0  0.4869700000000001  0.93787  0.8904899999999998  1.0000
  C   C57       1.0  0.30951  0.13764  0.056489999999999985  1.0000
  C   C58       1.0  0.9171200000000003  0.45643  0.9744699999999997  1.0000
  C   C59       1.0  0.9453099999999999  0.43457  0.027119999999999995  1.0000
  C   C60       1.0  0.01013000000000001  0.36341  0.038849999999999996  1.0000
  C   C61       1.0  0.042720000000000015  0.31326  4e-05  1.0000
  C   C62       1.0  0.01434000000000007  0.33358000000000015  0.9476199999999998  1.0000
  C   C63       1.0  0.9519900000000002  0.40703  0.93454  1.0000
  C   C64       1.0  0.8535100000000001  0.53504  0.95983  1.0000
  C   C65       1.0  0.04826  0.34256  0.09020999999999998  1.0000
  C   C66       1.0  0.050590000000000045  0.27898000000000006  0.9076099999999999  1.0000
  C   C67       1.0  0.1311700000000001  0.22341000000000005  0.9046399999999999  1.0000
  C   C68       1.0  0.16638000000000003  0.16931000000000004  0.8680299999999999  1.0000
  C   C69       1.0  0.24820000000000006  0.1115500000000001  0.8659199999999998  1.0000
  C   C70       1.0  0.2804100000000001  0.05873000000000004  0.8308099999999999  1.0000
  C   C71       1.0  0.23312  0.06204  0.79477  1.0000
  C   C72       1.0  0.1534800000000001  0.11824000000000008  0.7955399999999998  1.0000
  C   C73       1.0  0.11803000000000001  0.17230000000000006  0.8322899999999999  1.0000
  C   C74       1.0  0.03592000000000008  0.22969000000000006  0.8356699999999999  1.0000
  C   C75       1.0  0.0031200000000000385  0.28123999999999993  0.87206  1.0000
  C   C76       1.0  0.26913  0.00409000000000001  0.75709  1.0000
  C   C77       1.0  0.78877  0.24281000000000003  0.31311  1.0000
  C   C78       1.0  0.8744699999999999  0.21764  0.28375  1.0000
  C   C79       1.0  0.9252700000000001  0.2471  0.29044  1.0000
  C   C80       1.0  0.89147  0.30064  0.32669  1.0000
  C   C81       1.0  0.8055499999999999  0.32587  0.35638  1.0000
  C   C82       1.0  0.7554100000000001  0.2964  0.34899  1.0000
  C   C83       1.0  0.73179  0.21258000000000002  0.3089  1.0000
  C   C84       1.0  0.015219999999999964  0.22337  0.25585  1.0000
  C   C85       1.0  0.7638  0.38228000000000006  0.39515999999999996  1.0000
  C   C86       1.0  0.7988300000000003  0.3775800000000001  0.44019  1.0000
  C   C87       1.0  0.7537100000000002  0.42500000000000004  0.48087  1.0000
  C   C88       1.0  0.6718699999999999  0.48047000000000006  0.47819999999999996  1.0000
  C   C89       1.0  0.6223999999999998  0.5282800000000001  0.5204799999999999  1.0000
  C   C90       1.0  0.54452  0.58414  0.51421  1.0000
  C   C91       1.0  0.5127100000000001  0.59367  0.4656  1.0000
  C   C92       1.0  0.5582699999999998  0.5462800000000001  0.42521999999999993  1.0000
  C   C93       1.0  0.63831  0.4886400000000001  0.43044  1.0000
  C   C94       1.0  0.6854999999999999  0.43837  0.3902  1.0000
  C   C95       1.0  0.4950599999999999  0.63708  0.55672  1.0000
  C   C96       1.0  0.65108  0.9572199999999998  0.47478  1.0000
  C   C97       1.0  0.5922699999999997  0.93487  0.52728  1.0000
  C   C98       1.0  0.5872600000000001  0.86341  0.5386699999999999  1.0000
  C   C99       1.0  0.6436400000000001  0.8135300000000001  0.4997699999999999  1.0000
  C   C100      1.0  0.7042500000000002  0.8341999999999999  0.44771  1.0000
  C   C101      1.0  0.7059599999999999  0.90788  0.43492999999999993  1.0000
  C   C102      1.0  0.6507399999999999  0.03599999999999998  0.46014  1.0000
  C   C103      1.0  0.51891  0.84205  0.58993  1.0000
  C   C104      1.0  0.76287  0.7797  0.4077299999999999  1.0000
  C   C105      1.0  0.7409800000000004  0.72406  0.40428  1.0000
  C   C106      1.0  0.7965600000000002  0.66995  0.36778999999999995  1.0000
  C   C107      1.0  0.77467  0.61206  0.36536  1.0000
  C   C108      1.0  0.8304000000000002  0.55928  0.33032  1.0000
  C   C109      1.0  0.91039  0.56274  0.29462  1.0000
  C   C110      1.0  0.9330000000000006  0.61908  0.29577  1.0000
  C   C111      1.0  0.87764  0.67309  0.33253999999999995  1.0000
  C   C112      1.0  0.8989  0.7305400000000001  0.3363999999999999  1.0000
  C   C113      1.0  0.84364  0.78207  0.37273  1.0000
  C   C114      1.0  0.96984  0.50463  0.25709  1.0000
  C   C115      1.0  0.34401  0.25794  0.18688999999999997  1.0000
  C   C116      1.0  0.37534999999999996  0.28306  0.21637  1.0000
  C   C117      1.0  0.4620699999999999  0.25358  0.20977  1.0000
  C   C118      1.0  0.5174900000000001  0.19997000000000004  0.17356  1.0000
  C   C119      1.0  0.48635999999999996  0.17507  0.14352  1.0000
  C   C120      1.0  0.3996500000000001  0.20465000000000005  0.15072999999999998  1.0000
  C   C121      1.0  0.25284999999999996  0.28803999999999996  0.19118  1.0000
  C   C122      1.0  0.49413  0.27745000000000003  0.24415  1.0000
  C   C123      1.0  0.53979  0.11864000000000001  0.10478999999999997  1.0000
  C   C124      1.0  0.61535  0.12348000000000002  0.060319999999999985  1.0000
  C   C125      1.0  0.65872  0.07608000000000001  0.01963  1.0000
  C   C126      1.0  0.63012  0.02019  0.021979999999999996  1.0000
  C   C127      1.0  0.67138  0.9720400000000001  0.97986  1.0000
  C   C128      1.0  0.6435600000000001  0.91575  0.98576  1.0000
  C   C129      1.0  0.57248  0.90604  0.03396999999999999  1.0000
  C   C130      1.0  0.52966  0.95369  0.07418  1.0000
  C   C131      1.0  0.55687  0.011720000000000001  0.06931999999999999  1.0000
  C   C132      1.0  0.51304  0.06212  0.10950999999999998  1.0000
  C   C133      1.0  0.6905000000000002  0.8623500000000001  0.9435199999999998  1.0000
  C   C134      1.0  0.08288999999999996  0.5435600000000002  0.025529999999999997  1.0000
  C   C135      1.0  0.05470000000000005  0.5654200000000001  0.9728899999999998  1.0000
  C   C136      1.0  0.9898800000000001  0.63658  0.96115  1.0000
  C   C137      1.0  0.9572900000000001  0.6867300000000001  0.99997  1.0000
  C   C138      1.0  0.9856700000000002  0.66642  0.05238  1.0000
  C   C139      1.0  0.04800999999999994  0.5929600000000002  0.06546  1.0000
  C   C140      1.0  0.14650000000000002  0.46495999999999993  0.04018  1.0000
  C   C141      1.0  0.9517499999999999  0.6574300000000002  0.9097899999999999  1.0000
  C   C142      1.0  0.94942  0.72102  0.09238999999999999  1.0000
  C   C143      1.0  0.86884  0.77658  0.09537  1.0000
  C   C144      1.0  0.83363  0.83068  0.13197  1.0000
  C   C145      1.0  0.7518100000000002  0.88844  0.13408  1.0000
  C   C146      1.0  0.7196  0.9412599999999999  0.16918999999999998  1.0000
  C   C147      1.0  0.76689  0.93796  0.20522999999999997  1.0000
  C   C148      1.0  0.84653  0.88175  0.20446999999999999  1.0000
  C   C149      1.0  0.88197  0.82769  0.16772  1.0000
  C   C150      1.0  0.9640899999999999  0.7703000000000001  0.16434  1.0000
  C   C151      1.0  0.9968900000000002  0.71875  0.12795  1.0000
  C   C152      1.0  0.73088  0.9959000000000002  0.24290999999999993  1.0000
  O   O1        1.0  0.24276000000000011  0.8352  0.72256  1.0000
  O   O2        1.0  0.34604000000000007  0.7624500000000001  0.6582099999999999  1.0000
  O   O3        1.0  0.9547  0.8330499999999998  0.76999  1.0000
  O   O4        1.0  0.9393499999999999  0.74119  0.74947  1.0000
  O   O5        1.0  0.5626899999999998  0.30045  0.46244999999999997  1.0000
  O   O6        1.0  0.4865800000000001  0.38387000000000004  0.3918299999999999  1.0000
  O   O7        1.0  0.38908  0.9267900000000001  0.49667  1.0000
  O   O8        1.0  0.3136300000000001  0.93267  0.59373  1.0000
  O   O9        1.0  0.5263200000000001  0.11738000000000004  0.3711799999999999  1.0000
  O   O10       1.0  0.4910900000000001  0.2178  0.41118  1.0000
  O   O11       1.0  0.9642400000000001  0.4864100000000002  0.7827499999999998  1.0000
  O   O12       1.0  0.0474700000000001  0.55472  0.7332599999999999  1.0000
  O   O13       1.0  0.8004400000000002  0.66429  0.77714  1.0000
  O   O14       1.0  0.7674700000000003  0.7368700000000001  0.8417099999999997  1.0000
  O   O15       1.0  0.5571899999999999  0.66568  0.73046  1.0000
  O   O16       1.0  0.4306600000000001  0.7582699999999999  0.75032  1.0000
  O   O17       1.0  0.32378000000000007  0.20041  0.037239999999999995  1.0000
  O   O18       1.0  0.2599100000000001  0.11696000000000004  0.10754999999999998  1.0000
  O   O19       1.0  0.8138  0.57235  0.0029799999999999996  1.0000
  O   O20       1.0  0.83986  0.56609  0.90617  1.0000
  O   O21       1.0  0.014089999999999986  0.38294  0.12928  1.0000
  O   O22       1.0  0.11915999999999999  0.28306  0.08897999999999999  1.0000
  O   O23       1.0  0.2340300000000001  0.01285  0.7173699999999998  1.0000
  O   O24       1.0  0.33612000000000003  0.9451500000000002  0.7666  1.0000
  O   O25       1.0  0.75725  0.16480000000000003  0.27744  1.0000
  O   O26       1.0  0.6539700000000002  0.23753999999999997  0.34179  1.0000
  O   O27       1.0  0.045300000000000014  0.16694000000000003  0.23001  1.0000
  O   O28       1.0  0.060660000000000026  0.2588  0.2505299999999999  1.0000
  O   O29       1.0  0.4373200000000003  0.69955  0.53755  1.0000
  O   O30       1.0  0.5134199999999999  0.61613  0.60818  1.0000
  O   O31       1.0  0.6109300000000001  0.0732  0.50334  1.0000
  O   O32       1.0  0.6863799999999999  0.06732  0.40627  1.0000
  O   O33       1.0  0.4736900000000001  0.88262  0.62882  1.0000
  O   O34       1.0  0.50892  0.7822000000000002  0.5888199999999999  1.0000
  O   O35       1.0  0.035760000000000014  0.51358  0.21725999999999998  1.0000
  O   O36       1.0  0.95254  0.44528  0.26674  1.0000
  O   O37       1.0  0.19957000000000005  0.33571  0.22285999999999997  1.0000
  O   O38       1.0  0.23254000000000002  0.2631299999999999  0.1583  1.0000
  O   O39       1.0  0.44281999999999994  0.33432  0.26954  1.0000
  O   O40       1.0  0.5693500000000001  0.24172000000000002  0.24967999999999996  1.0000
  O   O41       1.0  0.6762299999999999  0.79958  0.96276  1.0000
  O   O42       1.0  0.7401000000000001  0.8830300000000001  0.8924499999999999  1.0000
  O   O43       1.0  0.1862  0.4276500000000001  0.99702  1.0000
  O   O44       1.0  0.16015  0.4339  0.09382999999999998  1.0000
  O   O45       1.0  0.9859100000000001  0.6170500000000002  0.8707199999999998  1.0000
  O   O46       1.0  0.88085  0.71693  0.91103  1.0000
  O   O47       1.0  0.76598  0.9871499999999999  0.28263999999999995  1.0000
  O   O48       1.0  0.66389  0.05485000000000001  0.23341  1.0000
