data_image0
_chemical_formula_structural       Zn6H112C176N8O24
_chemical_formula_sum              "Zn6 H112 C176 N8 O24"
_cell_length_a       18.00504
_cell_length_b       20.57256
_cell_length_c       21.98608
_cell_angle_alpha    63.24556
_cell_angle_beta     76.47437
_cell_angle_gamma    84.36768

_space_group_name_H-M_alt    "P 1"
_space_group_IT_number       1

loop_
  _space_group_symop_operation_xyz
  'x, y, z'

loop_
  _atom_site_type_symbol
  _atom_site_label
  _atom_site_symmetry_multiplicity
  _atom_site_fract_x
  _atom_site_fract_y
  _atom_site_fract_z
  _atom_site_occupancy
  Zn  Zn1       1.0  0.53569  0.10641999999999999  0.04868  1.0000
  Zn  Zn2       1.0  0.72368  0.10254  0.09182  1.0000
  Zn  Zn3       1.0  0.90983  0.04475  0.09103  1.0000
  Zn  Zn4       1.0  0.46430999999999994  0.8935799999999999  0.95132  1.0000
  Zn  Zn5       1.0  0.27631999999999995  0.8974599999999999  0.9081800000000001  1.0000
  Zn  Zn6       1.0  0.09016999999999997  0.9552499999999998  0.9089700000000001  1.0000
  H   H1        1.0  0.009609999999999999  0.023789999999999995  0.18580000000000002  1.0000
  H   H2        1.0  0.24582  0.13203  0.12459  1.0000
  H   H3        1.0  0.14842  0.03456999999999999  0.18181  1.0000
  H   H4        1.0  0.38522  0.14531999999999998  0.11564  1.0000
  H   H5        1.0  0.30866999999999994  0.00186  0.0115  1.0000
  H   H6        1.0  0.05536999999999988  0.06661999999999989  0.9772400000000001  1.0000
  H   H7        1.0  0.71058  0.8960899999999999  0.23067000000000001  1.0000
  H   H8        1.0  0.88509  0.8141099999999998  0.14469  1.0000
  H   H9        1.0  0.19445  0.07595999999999996  0.9651400000000001  1.0000
  H   H10       1.0  0.59325  0.12526999999999994  0.8305500000000001  1.0000
  H   H11       1.0  0.682  0.23946999999999996  0.59958  1.0000
  H   H12       1.0  0.71697  0.7620799999999999  0.29491  1.0000
  H   H13       1.0  0.52577  0.6447399999999998  0.27496000000000004  1.0000
  H   H14       1.0  0.52817  0.5102899999999999  0.33928  1.0000
  H   H15       1.0  0.69076  0.29658999999999996  0.47327  1.0000
  H   H16       1.0  0.55823  0.74163  0.18431  1.0000
  H   H17       1.0  0.44351999999999997  0.022129999999999997  0.00526  1.0000
  H   H18       1.0  0.9732399999999999  0.14141  0.87254  1.0000
  H   H19       1.0  0.55503  0.23669999999999994  0.37776000000000004  1.0000
  H   H20       1.0  0.5883799999999998  0.49073999999999995  0.48297  1.0000
  H   H21       1.0  0.69174  0.2726699999999999  0.08522000000000003  1.0000
  H   H22       1.0  0.68824  0.47535  0.26121  1.0000
  H   H23       1.0  0.75089  0.52192  0.37339  1.0000
  H   H24       1.0  0.6131799999999997  0.18619000000000002  0.70196  1.0000
  H   H25       1.0  0.58115  0.43414  0.60884  1.0000
  H   H26       1.0  0.5926999999999997  0.33241  0.83305  1.0000
  H   H27       1.0  0.74678  0.20296999999999993  0.7646800000000001  1.0000
  H   H28       1.0  0.55045  0.8752999999999997  0.12333  1.0000
  H   H29       1.0  0.5001699999999999  0.22466  0.30403  1.0000
  H   H30       1.0  0.56929  0.29873999999999995  0.44709000000000004  1.0000
  H   H31       1.0  0.7987099999999997  0.39849999999999997  0.37472  1.0000
  H   H32       1.0  0.8720899999999999  0.7042599999999999  0.39963  1.0000
  H   H33       1.0  0.7293399999999999  0.14096999999999998  0.89352  1.0000
  H   H34       1.0  0.75057  0.6556500000000001  0.30674  1.0000
  H   H35       1.0  0.67093  0.41497999999999996  0.19147  1.0000
  H   H36       1.0  0.73691  0.21756  0.32815  1.0000
  H   H37       1.0  0.4881599999999999  0.16384999999999997  0.23161000000000004  1.0000
  H   H38       1.0  0.8006399999999997  0.18422999999999998  0.66025  1.0000
  H   H39       1.0  0.89461  0.68062  0.21099  1.0000
  H   H40       1.0  0.62361  0.39374999999999993  0.70361  1.0000
  H   H41       1.0  0.7182000000000002  0.16392999999999994  0.25146  1.0000
  H   H42       1.0  0.70473  0.33348999999999995  0.15694  1.0000
  H   H43       1.0  0.99039  0.20498999999999995  0.74378  1.0000
  H   H44       1.0  0.8628300000000001  0.83841  0.33172000000000007  1.0000
  H   H45       1.0  0.97968  0.39539999999999986  0.53072  1.0000
  H   H46       1.0  0.8171199999999998  0.25473  0.53194  1.0000
  H   H47       1.0  0.96336  0.5904  0.25946  1.0000
  H   H48       1.0  0.96986  0.45684  0.3196  1.0000
  H   H49       1.0  0.7780099999999998  0.33069999999999994  0.31138  1.0000
  H   H50       1.0  0.9642399999999999  0.32435  0.6584700000000001  1.0000
  H   H51       1.0  0.9608799999999998  0.15878999999999993  0.18098  1.0000
  H   H52       1.0  0.98069  0.21120999999999987  0.25855  1.0000
  H   H53       1.0  0.82802  0.59187  0.44847000000000004  1.0000
  H   H54       1.0  0.83602  0.45835000000000004  0.50885  1.0000
  H   H55       1.0  0.9871  0.25950999999999996  0.44140000000000007  1.0000
  H   H56       1.0  0.9674099999999999  0.19170999999999996  0.37699000000000005  1.0000
  H   H57       1.0  0.9903900000000002  0.9762099999999998  0.8142  1.0000
  H   H58       1.0  0.7541799999999996  0.8679699999999999  0.87541  1.0000
  H   H59       1.0  0.8515799999999998  0.9654299999999998  0.8181900000000002  1.0000
  H   H60       1.0  0.61478  0.8546799999999999  0.8843600000000001  1.0000
  H   H61       1.0  0.6913299999999998  0.99814  0.9885  1.0000
  H   H62       1.0  0.94463  0.93338  0.02276  1.0000
  H   H63       1.0  0.2894199999999999  0.10391000000000002  0.76933  1.0000
  H   H64       1.0  0.11491  0.18589  0.85531  1.0000
  H   H65       1.0  0.80555  0.92404  0.03486  1.0000
  H   H66       1.0  0.40675  0.87473  0.16945  1.0000
  H   H67       1.0  0.31799999999999995  0.76054  0.40042  1.0000
  H   H68       1.0  0.2830199999999998  0.23791999999999994  0.70509  1.0000
  H   H69       1.0  0.47423  0.35526  0.72504  1.0000
  H   H70       1.0  0.4718300000000001  0.48971  0.66072  1.0000
  H   H71       1.0  0.30923999999999996  0.7034099999999999  0.5267300000000001  1.0000
  H   H72       1.0  0.44177000000000005  0.25836999999999993  0.81569  1.0000
  H   H73       1.0  0.55648  0.9778699999999998  0.99474  1.0000
  H   H74       1.0  0.02676  0.8585899999999999  0.12746  1.0000
  H   H75       1.0  0.44496999999999987  0.7632999999999999  0.6222400000000001  1.0000
  H   H76       1.0  0.41161999999999993  0.50926  0.5170300000000001  1.0000
  H   H77       1.0  0.3082599999999999  0.7273299999999998  0.91478  1.0000
  H   H78       1.0  0.31176  0.52465  0.73879  1.0000
  H   H79       1.0  0.24910000000000004  0.47808  0.62661  1.0000
  H   H80       1.0  0.38681999999999994  0.81381  0.2980400000000001  1.0000
  H   H81       1.0  0.41885  0.56586  0.39116000000000006  1.0000
  H   H82       1.0  0.40729999999999994  0.66759  0.16695  1.0000
  H   H83       1.0  0.25322000000000006  0.7970299999999998  0.23532  1.0000
  H   H84       1.0  0.44954999999999995  0.12469999999999995  0.8766700000000001  1.0000
  H   H85       1.0  0.4998300000000001  0.7753399999999998  0.69597  1.0000
  H   H86       1.0  0.43071  0.7012599999999999  0.55291  1.0000
  H   H87       1.0  0.20129000000000002  0.6015  0.62528  1.0000
  H   H88       1.0  0.12791  0.2957399999999999  0.60037  1.0000
  H   H89       1.0  0.27065999999999996  0.8590299999999998  0.10648  1.0000
  H   H90       1.0  0.24942999999999999  0.34434999999999977  0.6932600000000001  1.0000
  H   H91       1.0  0.32906999999999986  0.58502  0.8085300000000001  1.0000
  H   H92       1.0  0.26309000000000005  0.78244  0.67185  1.0000
  H   H93       1.0  0.51184  0.8361500000000001  0.76839  1.0000
  H   H94       1.0  0.19936  0.8157699999999999  0.33975000000000005  1.0000
  H   H95       1.0  0.10539000000000001  0.31937999999999994  0.78901  1.0000
  H   H96       1.0  0.37638999999999995  0.60625  0.29639000000000004  1.0000
  H   H97       1.0  0.2818  0.83607  0.74854  1.0000
  H   H98       1.0  0.2952699999999999  0.6665099999999999  0.8430600000000001  1.0000
  H   H99       1.0  0.009609999999999995  0.7950099999999999  0.25621  1.0000
  H   H100      1.0  0.13717  0.16158999999999996  0.66828  1.0000
  H   H101      1.0  0.02032  0.6046  0.46928  1.0000
  H   H102      1.0  0.18288  0.74527  0.46806  1.0000
  H   H103      1.0  0.03663999999999998  0.4095999999999999  0.7405400000000001  1.0000
  H   H104      1.0  0.030139999999999997  0.5431599999999999  0.6804000000000001  1.0000
  H   H105      1.0  0.22198999999999997  0.6692999999999998  0.6886100000000002  1.0000
  H   H106      1.0  0.03576  0.67565  0.34152  1.0000
  H   H107      1.0  0.03912000000000003  0.84121  0.81902  1.0000
  H   H108      1.0  0.01931000000000001  0.7887899999999998  0.7414400000000001  1.0000
  H   H109      1.0  0.1719799999999999  0.40812999999999994  0.55153  1.0000
  H   H110      1.0  0.16398000000000004  0.5416499999999997  0.49115  1.0000
  H   H111      1.0  0.012899999999999995  0.74049  0.5586  1.0000
  H   H112      1.0  0.03258999999999999  0.8082899999999997  0.6230100000000001  1.0000
  C   C1        1.0  0.05288  0.0366  0.13809  1.0000
  C   C2        1.0  0.28807  0.10602999999999997  0.0986  1.0000
  C   C3        1.0  0.12988  0.04259  0.13528  1.0000
  C   C4        1.0  0.36527  0.11413999999999998  0.09352  1.0000
  C   C5        1.0  0.6394799999999999  0.5078499999999998  0.36016000000000004  1.0000
  C   C6        1.0  0.63839  0.66092  0.28507  1.0000
  C   C7        1.0  0.18339  0.05741  0.07274  1.0000
  C   C8        1.0  0.624  0.9754399999999998  0.13773  1.0000
  C   C9        1.0  0.6372  0.7410299999999999  0.24552  1.0000
  C   C10       1.0  0.5686  0.18873999999999994  0.9180600000000001  1.0000
  C   C11       1.0  0.6379199999999999  0.39715  0.4689  1.0000
  C   C12       1.0  0.32245999999999997  0.03511  0.03438  1.0000
  C   C13       1.0  0.07797  0.0595  0.02158  1.0000
  C   C14       1.0  0.60321  0.28429  0.23592000000000002  1.0000
  C   C15       1.0  0.5888699999999999  0.21451  0.15355  1.0000
  C   C16       1.0  0.8793799999999999  0.9155399999999998  0.19320000000000004  1.0000
  C   C17       1.0  0.6771099999999998  0.8615299999999998  0.22147000000000003  1.0000
  C   C18       1.0  0.6202  0.29498999999999986  0.69214  1.0000
  C   C19       1.0  0.88056  0.24950999999999984  0.66895  1.0000
  C   C20       1.0  0.58256  0.17697  0.1109  1.0000
  C   C21       1.0  0.26529  0.06596999999999999  0.06837  1.0000
  C   C22       1.0  0.8823599999999999  0.7895999999999999  0.20052000000000003  1.0000
  C   C23       1.0  0.6309  0.3914199999999999  0.35949  1.0000
  C   C24       1.0  0.62923  0.8944599999999999  0.17364000000000002  1.0000
  C   C25       1.0  0.1562  0.06486  0.01514  1.0000
  C   C26       1.0  0.6120099999999999  0.32034  0.27865  1.0000
  C   C27       1.0  0.8281199999999996  0.13241999999999995  0.16066000000000005  1.0000
  C   C28       1.0  0.59926  0.1841999999999999  0.8022600000000001  1.0000
  C   C29       1.0  0.84183  0.10682999999999984  0.96785  1.0000
  C   C30       1.0  0.66008  0.29417999999999994  0.5748  1.0000
  C   C31       1.0  0.68073  0.7861299999999999  0.25704  1.0000
  C   C32       1.0  0.57598  0.6183399999999999  0.29501  1.0000
  C   C33       1.0  0.5906499999999999  0.22490999999999997  0.8402200000000001  1.0000
  C   C34       1.0  0.57646  0.54294  0.33189  1.0000
  C   C35       1.0  0.6651  0.32617999999999997  0.5032  1.0000
  C   C36       1.0  0.5912  0.7746099999999999  0.19586  1.0000
  C   C37       1.0  0.8743399999999998  0.8347599999999996  0.23401000000000002  1.0000
  C   C38       1.0  0.39862  0.04554999999999999  0.03168000000000001  1.0000
  C   C39       1.0  0.9240099999999998  0.15521000000000004  0.84852  1.0000
  C   C40       1.0  0.89412  0.60238  0.34858  1.0000
  C   C41       1.0  0.5840699999999998  0.2892899999999999  0.3514  1.0000
  C   C42       1.0  0.88563  0.6818599999999999  0.31036  1.0000
  C   C43       1.0  0.8384500000000001  0.15913999999999998  0.21072000000000002  1.0000
  C   C44       1.0  0.6092  0.43567  0.50848  1.0000
  C   C45       1.0  0.8983599999999999  0.33018999999999993  0.52302  1.0000
  C   C46       1.0  0.86019  0.2190099999999999  0.29821  1.0000
  C   C47       1.0  0.64959  0.26306  0.1328  1.0000
  C   C48       1.0  0.6593099999999997  0.4228499999999999  0.28679  1.0000
  C   C49       1.0  0.70178  0.54904  0.35156  1.0000
  C   C50       1.0  0.61204  0.21872  0.72977  1.0000
  C   C51       1.0  0.8504399999999996  0.13779999999999998  0.89124  1.0000
  C   C52       1.0  0.6057799999999998  0.4032599999999999  0.5799200000000001  1.0000
  C   C53       1.0  0.59915  0.3008899999999998  0.8035300000000002  1.0000
  C   C54       1.0  0.62959  0.33116  0.61557  1.0000
  C   C55       1.0  0.7964599999999995  0.18859999999999988  0.7882400000000003  1.0000
  C   C56       1.0  0.5868900000000001  0.85003  0.16083  1.0000
  C   C57       1.0  0.54259  0.23526999999999998  0.25633  1.0000
  C   C58       1.0  0.5926899999999999  0.3238400000000001  0.39126  1.0000
  C   C59       1.0  0.8357400000000001  0.3534  0.3748  1.0000
  C   C60       1.0  0.8737899999999998  0.72758  0.34401000000000004  1.0000
  C   C61       1.0  0.78649  0.15408999999999998  0.86056  1.0000
  C   C62       1.0  0.7009199999999999  0.6246199999999998  0.3144600000000001  1.0000
  C   C63       1.0  0.8698899999999997  0.20879999999999996  0.7453300000000002  1.0000
  C   C64       1.0  0.6496499999999997  0.38818999999999987  0.24764  1.0000
  C   C65       1.0  0.7861800000000001  0.20467999999999997  0.29609  1.0000
  C   C66       1.0  0.53523  0.2013299999999999  0.21568000000000004  1.0000
  C   C67       1.0  0.8397399999999999  0.23055  0.6320300000000001  1.0000
  C   C68       1.0  0.88842  0.7146399999999999  0.23799000000000006  1.0000
  C   C69       1.0  0.6153799999999999  0.3349899999999999  0.7308900000000002  1.0000
  C   C70       1.0  0.7753199999999999  0.17463999999999996  0.25331  1.0000
  C   C71       1.0  0.65616  0.29757999999999996  0.17304  1.0000
  C   C72       1.0  0.8948199999999998  0.33379  0.41141  1.0000
  C   C73       1.0  0.9334599999999998  0.19102  0.77653  1.0000
  C   C74       1.0  0.8686699999999999  0.80276  0.3064  1.0000
  C   C75       1.0  0.9405799999999999  0.3490699999999999  0.55906  1.0000
  C   C76       1.0  0.8715399999999998  0.25642999999999994  0.33904  1.0000
  C   C77       1.0  0.8487899999999999  0.2697799999999999  0.56015  1.0000
  C   C78       1.0  0.9341599999999999  0.56201  0.3138  1.0000
  C   C79       1.0  0.93877  0.48669999999999985  0.34762000000000004  1.0000
  C   C80       1.0  0.82408  0.3148399999999999  0.33956  1.0000
  C   C81       1.0  0.90306  0.44793  0.41833  1.0000
  C   C82       1.0  0.9317599999999996  0.30894000000000005  0.63096  1.0000
  C   C83       1.0  0.9124900000000002  0.17108999999999996  0.21417000000000003  1.0000
  C   C84       1.0  0.9232  0.20011999999999994  0.25770000000000004  1.0000
  C   C85       1.0  0.8608699999999997  0.5631099999999998  0.41997  1.0000
  C   C86       1.0  0.8647299999999999  0.4874599999999999  0.45446  1.0000
  C   C87       1.0  0.9420699999999999  0.27514  0.41206  1.0000
  C   C88       1.0  0.9306499999999999  0.23729  0.37597  1.0000
  C   C89       1.0  0.9471199999999997  0.9634  0.8619100000000001  1.0000
  C   C90       1.0  0.7119299999999998  0.8939699999999998  0.9014000000000001  1.0000
  C   C91       1.0  0.8701199999999999  0.95741  0.8647200000000002  1.0000
  C   C92       1.0  0.6347299999999999  0.8858599999999999  0.90648  1.0000
  C   C93       1.0  0.36051999999999995  0.4921499999999998  0.6398400000000002  1.0000
  C   C94       1.0  0.3616099999999999  0.3390799999999999  0.7149200000000002  1.0000
  C   C95       1.0  0.8166099999999997  0.94259  0.92726  1.0000
  C   C96       1.0  0.37599999999999995  0.02455999999999995  0.86227  1.0000
  C   C97       1.0  0.3628  0.25896999999999987  0.7544800000000002  1.0000
  C   C98       1.0  0.43140000000000006  0.81126  0.08194  1.0000
  C   C99       1.0  0.36208  0.6028499999999999  0.53109  1.0000
  C   C100      1.0  0.6775400000000001  0.96489  0.9656200000000001  1.0000
  C   C101      1.0  0.9220300000000002  0.9404999999999998  0.9784200000000001  1.0000
  C   C102      1.0  0.39679  0.7157099999999997  0.76407  1.0000
  C   C103      1.0  0.41113  0.78549  0.84644  1.0000
  C   C104      1.0  0.12061999999999999  0.08445999999999998  0.80679  1.0000
  C   C105      1.0  0.32289  0.13846999999999998  0.7785300000000002  1.0000
  C   C106      1.0  0.3798  0.7050099999999999  0.30786  1.0000
  C   C107      1.0  0.11944  0.75049  0.33105  1.0000
  C   C108      1.0  0.41744  0.82303  0.8891  1.0000
  C   C109      1.0  0.7347099999999995  0.9340300000000001  0.93163  1.0000
  C   C110      1.0  0.11763999999999995  0.21040000000000006  0.79948  1.0000
  C   C111      1.0  0.3691  0.60858  0.64051  1.0000
  C   C112      1.0  0.3707699999999999  0.10553999999999986  0.8263600000000002  1.0000
  C   C113      1.0  0.8437999999999999  0.9351399999999999  0.98486  1.0000
  C   C114      1.0  0.3879899999999998  0.67966  0.72135  1.0000
  C   C115      1.0  0.17187999999999992  0.86758  0.83934  1.0000
  C   C116      1.0  0.4007399999999999  0.8157999999999997  0.19773  1.0000
  C   C117      1.0  0.15817000000000003  0.8931699999999999  0.03215  1.0000
  C   C118      1.0  0.33991999999999994  0.7058200000000001  0.42520000000000013  1.0000
  C   C119      1.0  0.31927  0.21386999999999998  0.74296  1.0000
  C   C120      1.0  0.42402  0.38165999999999994  0.7049900000000001  1.0000
  C   C121      1.0  0.40935  0.7750900000000001  0.15978000000000003  1.0000
  C   C122      1.0  0.4235299999999999  0.45706  0.66811  1.0000
  C   C123      1.0  0.3349  0.6738199999999999  0.4968  1.0000
  C   C124      1.0  0.4088  0.22538999999999995  0.80414  1.0000
  C   C125      1.0  0.12565999999999997  0.16523999999999986  0.7659900000000002  1.0000
  C   C126      1.0  0.6013799999999999  0.9544499999999994  0.9683200000000001  1.0000
  C   C127      1.0  0.07599000000000002  0.8447899999999999  0.15148  1.0000
  C   C128      1.0  0.10588000000000002  0.39761999999999986  0.65142  1.0000
  C   C129      1.0  0.41592999999999997  0.7107099999999998  0.6485900000000001  1.0000
  C   C130      1.0  0.11437000000000001  0.31814000000000003  0.68964  1.0000
  C   C131      1.0  0.16155  0.8408599999999999  0.78928  1.0000
  C   C132      1.0  0.3908  0.56433  0.49152  1.0000
  C   C133      1.0  0.10163999999999997  0.66981  0.47698000000000007  1.0000
  C   C134      1.0  0.13981  0.7809899999999997  0.7017900000000001  1.0000
  C   C135      1.0  0.35041  0.73694  0.8671900000000001  1.0000
  C   C136      1.0  0.34069  0.57715  0.71321  1.0000
  C   C137      1.0  0.29821000000000003  0.45096  0.64843  1.0000
  C   C138      1.0  0.38796  0.78128  0.27023  1.0000
  C   C139      1.0  0.1495499999999999  0.8622  0.10876000000000001  1.0000
  C   C140      1.0  0.39420999999999995  0.5967399999999999  0.42008  1.0000
  C   C141      1.0  0.40085  0.69911  0.19647000000000003  1.0000
  C   C142      1.0  0.37041  0.6688400000000001  0.38443  1.0000
  C   C143      1.0  0.20354  0.8114  0.21176  1.0000
  C   C144      1.0  0.41311000000000003  0.14997  0.83916  1.0000
  C   C145      1.0  0.4574100000000001  0.7647299999999999  0.74367  1.0000
  C   C146      1.0  0.40730999999999995  0.67616  0.60874  1.0000
  C   C147      1.0  0.16425999999999996  0.6466000000000001  0.62519  1.0000
  C   C148      1.0  0.12620999999999996  0.2724199999999999  0.6559900000000001  1.0000
  C   C149      1.0  0.21351000000000003  0.8459099999999999  0.13944  1.0000
  C   C150      1.0  0.2990799999999999  0.37538  0.68554  1.0000
  C   C151      1.0  0.13010999999999998  0.7912  0.25467  1.0000
  C   C152      1.0  0.3503499999999999  0.61181  0.7523600000000001  1.0000
  C   C153      1.0  0.21381999999999998  0.79532  0.7039100000000001  1.0000
  C   C154      1.0  0.46477  0.79867  0.78432  1.0000
  C   C155      1.0  0.16025999999999996  0.7694499999999999  0.3679700000000001  1.0000
  C   C156      1.0  0.11157999999999997  0.28535999999999995  0.7620100000000001  1.0000
  C   C157      1.0  0.38462  0.66501  0.26911  1.0000
  C   C158      1.0  0.22468  0.82536  0.74669  1.0000
  C   C159      1.0  0.34384  0.70242  0.82695  1.0000
  C   C160      1.0  0.10517999999999994  0.66621  0.58858  1.0000
  C   C161      1.0  0.06653999999999999  0.80898  0.22347  1.0000
  C   C162      1.0  0.13133  0.19723999999999997  0.6936  1.0000
  C   C163      1.0  0.05942000000000002  0.65093  0.44094  1.0000
  C   C164      1.0  0.12845999999999988  0.74357  0.66096  1.0000
  C   C165      1.0  0.15120999999999998  0.7302200000000001  0.4398500000000001  1.0000
  C   C166      1.0  0.06584000000000002  0.43799  0.68619  1.0000
  C   C167      1.0  0.06122999999999999  0.5133  0.6523800000000001  1.0000
  C   C168      1.0  0.17591999999999985  0.68516  0.66043  1.0000
  C   C169      1.0  0.09694000000000004  0.5520699999999997  0.58167  1.0000
  C   C170      1.0  0.06823999999999998  0.69106  0.36904  1.0000
  C   C171      1.0  0.08751  0.8289099999999999  0.78583  1.0000
  C   C172      1.0  0.07679999999999997  0.79988  0.7423000000000001  1.0000
  C   C173      1.0  0.13913  0.43688999999999995  0.58003  1.0000
  C   C174      1.0  0.13527  0.5125400000000001  0.54554  1.0000
  C   C175      1.0  0.057930000000000016  0.72486  0.58794  1.0000
  C   C176      1.0  0.06935  0.7627099999999999  0.62402  1.0000
  N   N1        1.0  0.42021  0.08427  0.06054  1.0000
  N   N2        1.0  0.026969999999999997  0.04587999999999998  0.08178000000000003  1.0000
  N   N3        1.0  0.63987  0.4299799999999999  0.39667  1.0000
  N   N4        1.0  0.9051399999999998  0.37118999999999996  0.45000000000000007  1.0000
  N   N5        1.0  0.5797899999999999  0.91573  0.93945  1.0000
  N   N6        1.0  0.9730299999999998  0.9541199999999999  0.91822  1.0000
  N   N7        1.0  0.36013  0.57002  0.60333  1.0000
  N   N8        1.0  0.09485999999999997  0.62881  0.55  1.0000
  O   O1        1.0  0.7595899999999998  0.12219999999999996  0.15927000000000002  1.0000
  O   O2        1.0  0.9030099999999998  0.09117999999999993  0.99144  1.0000
  O   O3        1.0  0.5775799999999998  0.003510000000000001  0.09677  1.0000
  O   O4        1.0  0.7736599999999999  0.09792  0.00522  1.0000
  O   O5        1.0  0.66726  0.010630000000000006  0.15154  1.0000
  O   O6        1.0  0.64096  0.17548  0.06454  1.0000
  O   O7        1.0  0.8772799999999997  0.94215  0.12718000000000002  1.0000
  O   O8        1.0  0.5192299999999999  0.14705  0.12048000000000002  1.0000
  O   O9        1.0  0.5816499999999998  0.11926999999999995  0.94978  1.0000
  O   O10       1.0  0.88835  0.12313000000000003  0.12123  1.0000
  O   O11       1.0  0.88905  0.95487  0.22084  1.0000
  O   O12       1.0  0.53694  0.22409999999999997  0.95114  1.0000
  O   O13       1.0  0.24039999999999995  0.8778  0.8407200000000001  1.0000
  O   O14       1.0  0.09699  0.90882  0.008560000000000002  1.0000
  O   O15       1.0  0.4224099999999999  0.9964899999999998  0.9032300000000001  1.0000
  O   O16       1.0  0.22633999999999993  0.90208  0.9947800000000001  1.0000
  O   O17       1.0  0.3327399999999999  0.98937  0.84846  1.0000
  O   O18       1.0  0.35904  0.82452  0.93546  1.0000
  O   O19       1.0  0.12272000000000001  0.05784999999999999  0.87282  1.0000
  O   O20       1.0  0.4807699999999999  0.85295  0.8795200000000001  1.0000
  O   O21       1.0  0.41834999999999994  0.8807299999999999  0.05022000000000001  1.0000
  O   O22       1.0  0.11165000000000003  0.87687  0.87877  1.0000
  O   O23       1.0  0.11095  0.04513  0.77915  1.0000
  O   O24       1.0  0.4630600000000001  0.7758999999999998  0.04885000000000001  1.0000
