data_image0
_chemical_formula_structural       Zn8H96C160N8O40
_chemical_formula_sum              "Zn8 H96 C160 N8 O40"
_cell_length_a       14.23729
_cell_length_b       14.22205
_cell_length_c       26.06293
_cell_angle_alpha    80.28918999999999
_cell_angle_beta     80.31013000000002
_cell_angle_gamma    87.39845

_symmetry_space_group_name_H-M    'P 1'
_symmetry_Int_Tables_number       1

loop_
  _symmetry_equiv_pos_as_xyz
  'x,y,z'

loop_
  _atom_site_type_symbol
  _atom_site_label
  _atom_site_symmetry_multiplicity
  _atom_site_fract_x
  _atom_site_fract_y
  _atom_site_fract_z
  _atom_site_occupancy
  Zn  Zn1       1.0  0.13576000000000005  0.8163300000000004  0.91305  1.0000
  Zn  Zn2       1.0  0.5968599999999998  0.15403999999999998  0.43502  1.0000
  Zn  Zn3       1.0  0.82082  0.13581  0.41406  1.0000
  Zn  Zn4       1.0  0.15429  0.5919600000000002  0.9364500000000001  1.0000
  Zn  Zn5       1.0  0.17918  0.8641800000000002  0.58594  1.0000
  Zn  Zn6       1.0  0.86424  0.18368000000000007  0.08695000000000001  1.0000
  Zn  Zn7       1.0  0.40313999999999994  0.8459500000000001  0.56498  1.0000
  Zn  Zn8       1.0  0.8456600000000002  0.4080700000000001  0.06352  1.0000
  H   H1        1.0  0.025819999999999965  0.63185  0.76503  1.0000
  H   H2        1.0  0.9937400000000001  0.23905000000000004  0.34749  1.0000
  H   H3        1.0  0.5653300000000004  0.5750199999999999  0.28876  1.0000
  H   H4        1.0  0.08759000000000003  0.24085000000000006  0.01609  1.0000
  H   H5        1.0  0.10814  0.08427000000000004  0.50931  1.0000
  H   H6        1.0  0.08600000000000005  0.41378  0.0163  1.0000
  H   H7        1.0  0.56818  0.4094600000000001  0.33912  1.0000
  H   H8        1.0  0.0026399999999999896  0.5497900000000002  0.19837  1.0000
  H   H9        1.0  0.87269  0.99585  0.2624  1.0000
  H   H10       1.0  0.41841  0.08863000000000001  0.51588  1.0000
  H   H11       1.0  0.44266  0.85451  0.8575200000000001  1.0000
  H   H12       1.0  0.07855999999999999  0.8464100000000002  0.17009  1.0000
  H   H13       1.0  0.11637  0.84204  0.07415  1.0000
  H   H14       1.0  0.046380000000000005  0.54511  0.10204  1.0000
  H   H15       1.0  0.22896999999999995  0.2999  0.8527300000000001  1.0000
  H   H16       1.0  0.99497  0.8721100000000003  0.76234  1.0000
  H   H17       1.0  0.30473  0.2264300000000001  0.35135  1.0000
  H   H18       1.0  0.21848  0.46965000000000007  0.85998  1.0000
  H   H19       1.0  0.41322000000000003  0.56106  0.84339  1.0000
  H   H20       1.0  0.8639000000000004  0.9252100000000001  0.7114000000000001  1.0000
  H   H21       1.0  0.97807  0.8391400000000002  0.39737  1.0000
  H   H22       1.0  0.7241  0.7176599999999999  0.36762  1.0000
  H   H23       1.0  0.09013  0.9322300000000001  0.9991  1.0000
  H   H24       1.0  0.87769  0.6568600000000003  0.7234  1.0000
  H   H25       1.0  0.85884  0.44407000000000013  0.35647000000000006  1.0000
  H   H26       1.0  0.84319  0.11891000000000003  0.57511  1.0000
  H   H27       1.0  0.54641  0.049610000000000015  0.6009  1.0000
  H   H28       1.0  0.08686  0.10172000000000003  0.01037  1.0000
  H   H29       1.0  0.7074900000000002  0.036889999999999985  0.8448400000000001  1.0000
  H   H30       1.0  0.24590000000000004  0.08879000000000005  0.51547  1.0000
  H   H31       1.0  0.70099  0.86556  0.40832  1.0000
  H   H32       1.0  0.23724  0.99015  0.8469000000000001  1.0000
  H   H33       1.0  0.8459099999999999  0.07832999999999998  0.67125  1.0000
  H   H34       1.0  0.5786900000000005  0.5595100000000002  0.79311  1.0000
  H   H35       1.0  0.92735  0.86541  0.21130000000000002  1.0000
  H   H36       1.0  0.9384900000000002  0.08836  0.49904  1.0000
  H   H37       1.0  0.8676400000000001  0.7022900000000002  0.90914  1.0000
  H   H38       1.0  0.61046  0.8512900000000002  0.81277  1.0000
  H   H39       1.0  0.71949  0.7240300000000002  0.86899  1.0000
  H   H40       1.0  0.83881  0.9798700000000001  0.89664  1.0000
  H   H41       1.0  0.24007999999999996  0.16349999999999998  0.84981  1.0000
  H   H42       1.0  0.6568300000000001  0.8768800000000002  0.22232  1.0000
  H   H43       1.0  0.03738999999999998  0.7086300000000002  0.34536  1.0000
  H   H44       1.0  0.6318200000000002  0.025100000000000004  0.26422  1.0000
  H   H45       1.0  0.4743200000000001  0.2176900000000001  0.35892  1.0000
  H   H46       1.0  0.16735  0.2415300000000001  0.34951  1.0000
  H   H47       1.0  0.54993  0.0026599999999999875  0.69734  1.0000
  H   H48       1.0  0.85352  0.61231  0.31212  1.0000
  H   H49       1.0  0.8838500000000005  0.15792  0.92585  1.0000
  H   H50       1.0  0.29901  0.13443  0.59168  1.0000
  H   H51       1.0  0.7541000000000001  0.91121  0.48452  1.0000
  H   H52       1.0  0.2925000000000001  0.9631100000000001  0.15517  1.0000
  H   H53       1.0  0.58678  0.4389200000000001  0.15662  1.0000
  H   H54       1.0  0.3431699999999999  0.12311000000000004  0.77768  1.0000
  H   H55       1.0  0.5573300000000001  0.14545  0.1425  1.0000
  H   H56       1.0  0.43466999999999995  0.4249700000000002  0.7112400000000001  1.0000
  H   H57       1.0  0.16116  0.020110000000000003  0.10337  1.0000
  H   H58       1.0  0.005020000000000009  0.12787  0.23769  1.0000
  H   H59       1.0  0.99731  0.45022000000000006  0.8016100000000002  1.0000
  H   H60       1.0  0.58158  0.9113600000000002  0.48411  1.0000
  H   H61       1.0  0.97416  0.36814000000000013  0.23468  1.0000
  H   H62       1.0  0.43182000000000004  0.59053  0.66088  1.0000
  H   H63       1.0  0.9125  0.7591899999999999  0.9838900000000002  1.0000
  H   H64       1.0  0.38950999999999997  0.14871000000000006  0.18722  1.0000
  H   H65       1.0  0.14648  0.38767999999999997  0.68788  1.0000
  H   H66       1.0  0.9626  0.29136000000000006  0.65462  1.0000
  H   H67       1.0  0.75995  0.8365400000000002  0.15018  1.0000
  H   H68       1.0  0.92141  0.15361  0.8299  1.0000
  H   H69       1.0  0.36818  0.9748900000000005  0.73578  1.0000
  H   H70       1.0  0.1541  0.9216500000000002  0.32875  1.0000
  H   H71       1.0  0.14115999999999995  0.5559200000000001  0.6435300000000002  1.0000
  H   H72       1.0  0.27590000000000003  0.28233  0.63237  1.0000
  H   H73       1.0  0.42128  0.4404900000000001  0.20687  1.0000
  H   H74       1.0  0.021929999999999988  0.16085  0.60263  1.0000
  H   H75       1.0  0.95374  0.45488  0.8979500000000001  1.0000
  H   H76       1.0  0.45359999999999984  0.9503800000000003  0.3991  1.0000
  H   H77       1.0  0.13612  0.07479000000000005  0.28861  1.0000
  H   H78       1.0  0.8918600000000002  0.91572  0.49068  1.0000
  H   H79       1.0  0.69527  0.7735800000000004  0.64864  1.0000
  H   H80       1.0  0.91315  0.8983300000000004  0.9896  1.0000
  H   H81       1.0  0.77102  0.7001100000000001  0.14724  1.0000
  H   H82       1.0  0.06151999999999999  0.9116300000000003  0.50095  1.0000
  H   H83       1.0  0.4500800000000002  0.9973300000000003  0.30267  1.0000
  H   H84       1.0  0.76275  0.009880000000000002  0.15307  1.0000
  H   H85       1.0  0.07262999999999996  0.13459999999999994  0.7887000000000001  1.0000
  H   H86       1.0  0.006259999999999993  0.7609400000000001  0.65251  1.0000
  H   H87       1.0  0.13269000000000006  0.29762  0.09069  1.0000
  H   H88       1.0  0.5256799999999999  0.7823100000000002  0.6410800000000001  1.0000
  H   H89       1.0  0.7814700000000002  0.53036  0.13995  1.0000
  H   H90       1.0  0.15680999999999995  0.8810800000000001  0.42489000000000005  1.0000
  H   H91       1.0  0.9098800000000002  0.06782  0.0008800000000000001  1.0000
  H   H92       1.0  0.28064  0.2759  0.13097  1.0000
  H   H93       1.0  0.12730000000000002  0.00416  0.7376  1.0000
  H   H94       1.0  0.12218000000000001  0.34317000000000003  0.27647  1.0000
  H   H95       1.0  0.83264  0.75848  0.65048  1.0000
  H   H96       1.0  0.91404  0.58629  0.98365  1.0000
  C   C1        1.0  0.0682  0.7810000000000001  0.15549  1.0000
  C   C2        1.0  0.15952999999999998  0.25269  0.934  1.0000
  C   C3        1.0  0.63046  0.45412  0.3321  1.0000
  C   C4        1.0  0.08336999999999999  0.6934400000000001  0.08213  1.0000
  C   C5        1.0  0.022979999999999976  0.20599  0.38237  1.0000
  C   C6        1.0  0.3247100000000001  0.19529000000000005  0.38906  1.0000
  C   C7        1.0  0.01663999999999998  0.6927500000000002  0.24939  1.0000
  C   C8        1.0  0.69191  0.8673100000000001  0.36761000000000005  1.0000
  C   C9        1.0  0.9321300000000001  0.90849  0.78016  1.0000
  C   C10       1.0  0.64112  0.040969999999999986  0.36339  1.0000
  C   C11       1.0  0.08778999999999998  0.11957999999999996  0.4722900000000001  1.0000
  C   C12       1.0  0.96881  0.8441700000000002  0.3564000000000001  1.0000
  C   C13       1.0  0.54916  0.6234700000000002  0.8079600000000001  1.0000
  C   C14       1.0  0.09074  0.7785600000000001  0.10151000000000002  1.0000
  C   C15       1.0  0.29252  0.11987000000000005  0.47966000000000003  1.0000
  C   C16       1.0  0.20519  0.018709999999999994  0.88219  1.0000
  C   C17       1.0  0.79413  0.47365000000000024  0.34252  1.0000
  C   C18       1.0  0.45669999999999994  0.6243400000000002  0.8356  1.0000
  C   C19       1.0  0.7134100000000001  0.41661000000000004  0.3509800000000001  1.0000
  C   C20       1.0  0.78111  0.06861  0.65598  1.0000
  C   C21       1.0  0.69389  0.78868  0.29181  1.0000
  C   C22       1.0  0.98738  0.7784200000000002  0.275  1.0000
  C   C23       1.0  0.9408200000000002  0.8597800000000002  0.25157  1.0000
  C   C24       1.0  0.7033  0.6995900000000003  0.76779  1.0000
  C   C25       1.0  0.69242  0.11198999999999999  0.52431  1.0000
  C   C26       1.0  0.7055800000000002  0.7849600000000001  0.34459  1.0000
  C   C27       1.0  0.11918999999999995  0.2875800000000001  0.9804200000000001  1.0000
  C   C28       1.0  0.20580000000000004  0.11567  0.88429  1.0000
  C   C29       1.0  0.70849  0.60484  0.29746  1.0000
  C   C30       1.0  0.036050000000000006  0.6983400000000002  0.1908  1.0000
  C   C31       1.0  0.001509999999999997  0.7720399999999998  0.32774  1.0000
  C   C32       1.0  0.6118  0.053970000000000025  0.61663  1.0000
  C   C33       1.0  0.70023  0.7026799999999999  0.2661  1.0000
  C   C34       1.0  0.66475  0.95344  0.33864  1.0000
  C   C35       1.0  0.95845  0.65372  0.78665  1.0000
  C   C36       1.0  0.69192  0.013790000000000016  0.74899  1.0000
  C   C37       1.0  0.15480999999999998  0.16177  0.42972000000000005  1.0000
  C   C38       1.0  0.25768  0.15902  0.43304000000000004  1.0000
  C   C39       1.0  0.042609999999999974  0.6398400000000002  0.86411  1.0000
  C   C40       1.0  0.051719999999999995  0.61081  0.11735  1.0000
  C   C41       1.0  0.02752000000000001  0.6134900000000002  0.17096  1.0000
  C   C42       1.0  0.66831  0.8760200000000002  0.26259  1.0000
  C   C43       1.0  0.38995  0.11898000000000003  0.48035  1.0000
  C   C44       1.0  0.77102  0.0011800000000000144  0.82729  1.0000
  C   C45       1.0  0.41757  0.7078200000000002  0.8533200000000001  1.0000
  C   C46       1.0  0.9550600000000005  0.6649500000000003  0.83952  1.0000
  C   C47       1.0  0.9243199999999999  0.9222400000000004  0.83272  1.0000
  C   C48       1.0  0.79095  0.5684300000000002  0.31723000000000007  1.0000
  C   C49       1.0  0.6536  0.9574800000000002  0.28572  1.0000
  C   C50       1.0  0.7795200000000001  0.09266000000000005  0.60202  1.0000
  C   C51       1.0  0.8588100000000003  0.9394400000000004  0.7515  1.0000
  C   C52       1.0  0.8832900000000001  0.99953  0.36556  1.0000
  C   C53       1.0  0.90898  0.9329  0.28026  1.0000
  C   C54       1.0  0.12116  0.08202000000000001  0.97301  1.0000
  C   C55       1.0  0.12319999999999999  0.9865100000000003  0.96755  1.0000
  C   C56       1.0  0.9976000000000003  0.8834700000000001  0.86606  1.0000
  C   C57       1.0  0.19650999999999996  0.31987  0.89022  1.0000
  C   C58       1.0  0.77737  0.9858400000000004  0.77478  1.0000
  C   C59       1.0  0.42074999999999996  0.19193000000000005  0.39269000000000004  1.0000
  C   C60       1.0  0.16238  0.14974000000000012  0.93047  1.0000
  C   C61       1.0  0.47322999999999993  0.78967  0.8441000000000001  1.0000
  C   C62       1.0  0.9921600000000002  0.12200000000000005  0.46735  1.0000
  C   C63       1.0  0.62879  0.54651  0.30443  1.0000
  C   C64       1.0  0.71169  0.31674  0.38053  1.0000
  C   C65       1.0  0.10945  0.6889100000000002  0.02454  1.0000
  C   C66       1.0  0.11757  0.3852000000000002  0.981  1.0000
  C   C67       1.0  0.92179  0.9251  0.33298  1.0000
  C   C68       1.0  0.5678400000000002  0.78758  0.81874  1.0000
  C   C69       1.0  0.19231999999999996  0.4160800000000002  0.8937  1.0000
  C   C70       1.0  0.61373  0.028020000000000014  0.67022  1.0000
  C   C71       1.0  0.8692200000000004  0.69246  0.86856  1.0000
  C   C72       1.0  0.6949700000000001  0.08587000000000006  0.58206  1.0000
  C   C73       1.0  0.7865600000000003  0.70541  0.84583  1.0000
  C   C74       1.0  0.12004999999999998  0.20641000000000004  0.38398000000000004  1.0000
  C   C75       1.0  0.60569  0.7048000000000002  0.79981  1.0000
  C   C76       1.0  0.78964  0.69326  0.79317  1.0000
  C   C77       1.0  0.87684  0.66821  0.7637000000000002  1.0000
  C   C78       1.0  0.31729000000000007  0.7064700000000004  0.88213  1.0000
  C   C79       1.0  0.8434700000000002  0.9696300000000003  0.85586  1.0000
  C   C80       1.0  0.6982099999999999  0.03532999999999995  0.6905200000000001  1.0000
  C   C81       1.0  0.3862800000000001  0.9719700000000002  0.32979  1.0000
  C   C82       1.0  0.20904999999999999  0.43155999999999994  0.6827700000000001  1.0000
  C   C83       1.0  0.29151  0.39515000000000017  0.7025400000000002  1.0000
  C   C84       1.0  0.33170000000000005  0.12397000000000002  0.7374  1.0000
  C   C85       1.0  0.031189999999999954  0.15582000000000001  0.6435900000000001  1.0000
  C   C86       1.0  0.87885  0.9180300000000002  0.02697  1.0000
  C   C87       1.0  0.30758  0.8880000000000002  0.47568000000000005  1.0000
  C   C88       1.0  0.9167900000000001  0.30653  0.91786  1.0000
  C   C89       1.0  0.9483999999999999  0.38917  0.88264  1.0000
  C   C90       1.0  0.84051  0.7473400000000002  0.06598  1.0000
  C   C91       1.0  0.007840000000000024  0.87799  0.53265  1.0000
  C   C92       1.0  0.61005  0.88102  0.51965  1.0000
  C   C93       1.0  0.8799500000000001  0.7935900000000002  0.61602  1.0000
  C   C94       1.0  0.21037999999999996  0.3067400000000001  0.20674  1.0000
  C   C95       1.0  0.45082  0.37653  0.19203000000000003  1.0000
  C   C96       1.0  0.07567000000000002  0.07775000000000003  0.16730000000000003  1.0000
  C   C97       1.0  0.01259999999999999  0.22157999999999997  0.72499  1.0000
  C   C98       1.0  0.15652000000000002  0.030350000000000005  0.14415  1.0000
  C   C99       1.0  0.8768200000000003  0.013530000000000002  0.03243  1.0000
  C   C100      1.0  0.98333  0.30725  0.7506  1.0000
  C   C101      1.0  0.34639999999999993  0.04251999999999991  0.7142700000000002  1.0000
  C   C102      1.0  0.29977999999999994  0.2973100000000001  0.7338900000000002  1.0000
  C   C103      1.0  0.7948200000000002  0.98132  0.11779  1.0000
  C   C104      1.0  0.9574399999999997  0.3601200000000001  0.13579  1.0000
  C   C105      1.0  0.041599999999999984  0.34627000000000013  0.21314  1.0000
  C   C106      1.0  0.29441999999999996  0.21503000000000008  0.6554000000000001  1.0000
  C   C107      1.0  0.13093999999999995  0.3075000000000001  0.13127  1.0000
  C   C108      1.0  0.6827000000000002  0.29351000000000005  0.11787000000000003  1.0000
  C   C109      1.0  0.54329  0.37564  0.1644  1.0000
  C   C110      1.0  0.88246  0.6148500000000002  0.01896  1.0000
  C   C111      1.0  0.9094300000000003  0.22141000000000002  0.89849  1.0000
  C   C112      1.0  0.8451899999999999  0.8382300000000003  0.57027  1.0000
  C   C113      1.0  0.0024000000000000007  0.11652000000000004  0.13395  1.0000
  C   C114      1.0  0.28658  0.5833900000000002  0.64902  1.0000
  C   C115      1.0  0.22048999999999996  0.9073300000000002  0.39798  1.0000
  C   C116      1.0  0.9725199999999999  0.3865100000000001  0.82902  1.0000
  C   C117      1.0  0.3588799999999999  0.9590299999999999  0.6366000000000002  1.0000
  C   C118      1.0  0.3943  0.29520000000000013  0.20016  1.0000
  C   C119      1.0  0.3712100000000001  0.4534900000000002  0.69557  1.0000
  C   C120      1.0  0.36954000000000004  0.54587  0.6679  1.0000
  C   C121      1.0  0.7074800000000001  0.8801200000000001  0.52033  1.0000
  C   C122      1.0  0.33525  0.04655000000000003  0.66135  1.0000
  C   C123      1.0  0.30611  0.21131000000000003  0.70819  1.0000
  C   C124      1.0  0.38821  0.94602  0.38338  1.0000
  C   C125      1.0  0.22263  0.014149999999999982  0.22523000000000007  1.0000
  C   C126      1.0  0.20586999999999994  0.5263400000000001  0.65748  1.0000
  C   C127      1.0  0.74232  0.8409700000000003  0.56695  1.0000
  C   C128      1.0  0.52677  0.21031000000000005  0.1559  1.0000
  C   C129      1.0  0.9122200000000003  0.88042  0.5277  1.0000
  C   C130      1.0  0.11671000000000001  0.0004600000000000199  0.63444  1.0000
  C   C131      1.0  0.29668  0.30044  0.23215  1.0000
  C   C132      1.0  0.14119  0.060550000000000014  0.24852  1.0000
  C   C133      1.0  0.89057  0.3110899999999999  0.97544  1.0000
  C   C134      1.0  0.05916999999999996  0.14021999999999998  0.7484200000000001  1.0000
  C   C135      1.0  0.09100999999999995  0.06709999999999995  0.7197400000000003  1.0000
  C   C136      1.0  0.57925  0.80806  0.60731  1.0000
  C   C137      1.0  0.99849  0.22795000000000012  0.67225  1.0000
  C   C138      1.0  0.9639600000000005  0.30165000000000014  0.80919  1.0000
  C   C139      1.0  0.12314000000000001  0.3318  0.23616  1.0000
  C   C140      1.0  0.58242  0.2921600000000001  0.14668  1.0000
  C   C141      1.0  0.30503  0.9141200000000003  0.41794  1.0000
  C   C142      1.0  0.43213999999999997  0.2124000000000001  0.18126000000000003  1.0000
  C   C143      1.0  0.6752999999999999  0.8047100000000003  0.61093  1.0000
  C   C144      1.0  0.83765  0.8502900000000001  0.06951  1.0000
  C   C145      1.0  0.9318600000000001  0.21898999999999996  0.84451  1.0000
  C   C146      1.0  0.21354000000000006  0.29456  0.15407  1.0000
  C   C147      1.0  0.30809  0.13267999999999996  0.6323900000000001  1.0000
  C   C148      1.0  0.9770200000000002  0.7940100000000001  0.61763  1.0000
  C   C149      1.0  0.3018  0.9646600000000002  0.30948  1.0000
  C   C150      1.0  0.2289700000000001  0.9988000000000001  0.17272  1.0000
  C   C151      1.0  0.28831  0.6832500000000001  0.61946  1.0000
  C   C152      1.0  0.06786999999999999  0.09150000000000004  0.21986000000000003  1.0000
  C   C153      1.0  0.07820000000000002  0.0749  0.66702  1.0000
  C   C154      1.0  0.8808700000000003  0.71247  0.01956  1.0000
  C   C155      1.0  0.8034900000000003  0.6801600000000001  0.10975  1.0000
  C   C156      1.0  0.7942299999999999  0.8843600000000003  0.1157  1.0000
  C   C157      1.0  0.30809  0.9862  0.25101  1.0000
  C   C158      1.0  0.04506  0.33501000000000003  0.16028  1.0000
  C   C159      1.0  0.21890000000000012  0.93138  0.34402  1.0000
  C   C160      1.0  0.80767  0.58395  0.10625000000000001  1.0000
  N   N1        1.0  0.16404  0.9546400000000005  0.92305  1.0000
  N   N2        1.0  0.95953  0.16397000000000003  0.42325  1.0000
  N   N3        1.0  0.45353  0.15444999999999995  0.4376200000000001  1.0000
  N   N4        1.0  0.15351  0.44891000000000003  0.93841  1.0000
  N   N5        1.0  0.8464900000000002  0.55112  0.06154  1.0000
  N   N6        1.0  0.83597  0.04539000000000001  0.07693  1.0000
  N   N7        1.0  0.54647  0.8455400000000002  0.56237  1.0000
  N   N8        1.0  0.040470000000000006  0.83602  0.57674  1.0000
  O   O1        1.0  0.11027999999999996  0.7671200000000001  0.9923000000000001  1.0000
  O   O2        1.0  0.61305  0.01861000000000005  0.77715  1.0000
  O   O3        1.0  0.85735  0.08147000000000003  0.34285  1.0000
  O   O4        1.0  0.12828000000000006  0.60586  0.01237  1.0000
  O   O5        1.0  0.041890000000000004  0.66199  0.9112400000000002  1.0000
  O   O6        1.0  0.2716299999999999  0.78548  0.8831100000000001  1.0000
  O   O7        1.0  0.08005000000000001  0.85732  0.84386  1.0000
  O   O8        1.0  0.023719999999999998  0.6143400000000001  0.27784  1.0000
  O   O9        1.0  0.7096100000000002  0.69392  0.72033  1.0000
  O   O10       1.0  0.79044  0.27197  0.38429  1.0000
  O   O11       1.0  0.62867  0.2845  0.4002200000000001  1.0000
  O   O12       1.0  0.77155  0.11045000000000006  0.49307  1.0000
  O   O13       1.0  0.6907600000000003  0.70943  0.21912  1.0000
  O   O14       1.0  0.60002  0.11026000000000001  0.34  1.0000
  O   O15       1.0  0.9763100000000001  0.8761000000000003  0.91591  1.0000
  O   O16       1.0  0.10995000000000002  0.5956600000000002  0.84119  1.0000
  O   O17       1.0  0.28556000000000004  0.6240100000000002  0.90388  1.0000
  O   O18       1.0  0.6106300000000002  0.13275000000000003  0.51098  1.0000
  O   O19       1.0  0.8763  0.9802100000000004  0.41558  1.0000
  O   O20       1.0  0.66183  0.038160000000000006  0.41093  1.0000
  O   O21       1.0  0.8717500000000001  0.39415  0.98759  1.0000
  O   O22       1.0  0.8901700000000002  0.40434  0.15876000000000004  1.0000
  O   O23       1.0  0.38695  0.9813800000000001  0.22285  1.0000
  O   O24       1.0  0.1237  0.019790000000000033  0.58442  1.0000
  O   O25       1.0  0.38936999999999994  0.86724  0.48902  1.0000
  O   O26       1.0  0.91994  0.14267  0.15615  1.0000
  O   O27       1.0  0.72837  0.21451000000000003  0.11689000000000001  1.0000
  O   O28       1.0  0.29035  0.30617999999999995  0.2796  1.0000
  O   O29       1.0  0.97624  0.38565000000000016  0.7221500000000001  1.0000
  O   O30       1.0  0.71442  0.3759800000000001  0.09612  1.0000
  O   O31       1.0  0.14265000000000008  0.9185200000000002  0.65715  1.0000
  O   O32       1.0  0.3381700000000001  0.9618300000000004  0.58907  1.0000
  O   O33       1.0  0.9579800000000003  0.3379200000000001  0.08869  1.0000
  O   O34       1.0  0.20956  0.72802  0.61571  1.0000
  O   O35       1.0  0.39998000000000006  0.8897300000000001  0.66  1.0000
  O   O36       1.0  0.023690000000000003  0.12390000000000001  0.08410000000000001  1.0000
  O   O37       1.0  0.30926999999999993  0.29056999999999994  0.7808700000000001  1.0000
  O   O38       1.0  0.22845000000000001  0.8895400000000001  0.50692  1.0000
  O   O39       1.0  0.37133000000000016  0.7154900000000001  0.59978  1.0000
  O   O40       1.0  0.88958  0.23287000000000005  0.00769  1.0000
