data_image0
_chemical_formula_structural       Cd8H100C116N16O24
_chemical_formula_sum              "Cd8 H100 C116 N16 O24"
_cell_length_a       13.21491
_cell_length_b       15.26031
_cell_length_c       17.44385
_cell_angle_alpha    90.00046
_cell_angle_beta     90.0
_cell_angle_gamma    89.98838

_symmetry_space_group_name_H-M    'P 1'
_symmetry_Int_Tables_number       1

loop_
  _symmetry_equiv_pos_as_xyz
  'x,y,z'

loop_
  _atom_site_type_symbol
  _atom_site_label
  _atom_site_symmetry_multiplicity
  _atom_site_fract_x
  _atom_site_fract_y
  _atom_site_fract_z
  _atom_site_occupancy
  Cd  Cd1       1.0  0.89209  0.7615599999999998  0.9494000000000001  1.0000
  Cd  Cd2       1.0  0.89781  0.26162  0.45001  1.0000
  Cd  Cd3       1.0  0.10733  0.26153  0.04978  1.0000
  Cd  Cd4       1.0  0.09891  0.7617099999999998  0.5489  1.0000
  Cd  Cd5       1.0  0.39209  0.7615599999999998  0.5506  1.0000
  Cd  Cd6       1.0  0.39781  0.26162  0.04999  1.0000
  Cd  Cd7       1.0  0.60733  0.26153  0.45021  1.0000
  Cd  Cd8       1.0  0.59891  0.76172  0.9511000000000001  1.0000
  H   H1        1.0  0.13947  0.60576  0.80395  1.0000
  H   H2        1.0  0.14471  0.5580599999999998  0.9741100000000001  1.0000
  H   H3        1.0  0.08153000000000002  0.5005099999999999  0.90061  1.0000
  H   H4        1.0  0.24642  0.46278  0.84021  1.0000
  H   H5        1.0  0.40904000000000007  0.50014  0.90436  1.0000
  H   H6        1.0  0.34288  0.5582  0.9761599999999999  1.0000
  H   H7        1.0  0.35356  0.6042699999999999  0.80567  1.0000
  H   H8        1.0  0.24533999999999997  0.7036499999999998  0.9352899999999998  1.0000
  H   H9        1.0  0.24643  0.7343999999999998  0.83884  1.0000
  H   H10       1.0  0.88243  0.75595  0.12466000000000002  1.0000
  H   H11       1.0  0.8877  0.65465  0.23449000000000003  1.0000
  H   H12       1.0  0.88168  0.4401199999999999  0.07086  1.0000
  H   H13       1.0  0.88276  0.55158  0.96817  1.0000
  H   H14       1.0  0.8989700000000002  0.2554799999999999  0.27004  1.0000
  H   H15       1.0  0.89563  0.35416  0.1589  1.0000
  H   H16       1.0  0.8708699999999999  0.5707799999999997  0.32004  1.0000
  H   H17       1.0  0.87024  0.46189999999999987  0.42334  1.0000
  H   H18       1.0  0.87792  0.9615299999999998  0.9231900000000001  1.0000
  H   H19       1.0  0.88249  0.07096999999999998  0.82063  1.0000
  H   H20       1.0  0.8609199999999999  0.85578  0.65779  1.0000
  H   H21       1.0  0.86218  0.75594  0.76799  1.0000
  H   H22       1.0  0.86663  0.25813  0.6261900000000002  1.0000
  H   H23       1.0  0.8643299999999999  0.15605999999999995  0.73534  1.0000
  H   H24       1.0  0.8846500000000002  0.94296  0.57093  1.0000
  H   H25       1.0  0.89133  0.05532  0.46904  1.0000
  H   H26       1.0  0.85828  0.10668  0.19512000000000002  1.0000
  H   H27       1.0  0.85533  0.057749999999999996  0.02535  1.0000
  H   H28       1.0  0.91817  0.0014199999999999996  0.09976  1.0000
  H   H29       1.0  0.7532899999999999  0.96386  0.15969  1.0000
  H   H30       1.0  0.59078  0.9995199999999999  0.09458000000000003  1.0000
  H   H31       1.0  0.6569  0.05759  0.02274  1.0000
  H   H32       1.0  0.6458499999999999  0.10410999999999997  0.1931  1.0000
  H   H33       1.0  0.75287  0.20379999999999998  0.06308  1.0000
  H   H34       1.0  0.7514  0.23488999999999993  0.15952  1.0000
  H   H35       1.0  0.11644  0.25469  0.8752  1.0000
  H   H36       1.0  0.11091  0.15273999999999993  0.76609  1.0000
  H   H37       1.0  0.11997  0.9391499999999998  0.9306800000000001  1.0000
  H   H38       1.0  0.1184  0.05124999999999998  0.03279  1.0000
  H   H39       1.0  0.10412  0.7536099999999999  0.73056  1.0000
  H   H40       1.0  0.10856  0.85187  0.84199  1.0000
  H   H41       1.0  0.12498  0.06926  0.68103  1.0000
  H   H42       1.0  0.12607  0.9608499999999998  0.57761  1.0000
  H   H43       1.0  0.12877  0.4607599999999999  0.07463  1.0000
  H   H44       1.0  0.1235  0.5708199999999998  0.17661  1.0000
  H   H45       1.0  0.134  0.3561499999999999  0.3406  1.0000
  H   H46       1.0  0.13499  0.25575  0.23091  1.0000
  H   H47       1.0  0.12973  0.75845  0.37192  1.0000
  H   H48       1.0  0.13558  0.6565999999999997  0.26262  1.0000
  H   H49       1.0  0.11232  0.44321  0.42647  1.0000
  H   H50       1.0  0.1029  0.5551499999999998  0.52837  1.0000
  H   H51       1.0  0.63947  0.60576  0.6960500000000001  1.0000
  H   H52       1.0  0.64471  0.5580599999999998  0.5259  1.0000
  H   H53       1.0  0.58153  0.5005099999999999  0.59939  1.0000
  H   H54       1.0  0.74641  0.46278  0.65979  1.0000
  H   H55       1.0  0.90904  0.50014  0.59564  1.0000
  H   H56       1.0  0.84287  0.5582  0.52384  1.0000
  H   H57       1.0  0.85355  0.60426  0.69434  1.0000
  H   H58       1.0  0.74534  0.7036499999999998  0.56472  1.0000
  H   H59       1.0  0.74643  0.7343999999999998  0.66117  1.0000
  H   H60       1.0  0.38242999999999994  0.7559599999999997  0.3753400000000001  1.0000
  H   H61       1.0  0.3877  0.65465  0.26551  1.0000
  H   H62       1.0  0.38168  0.4401199999999999  0.42914  1.0000
  H   H63       1.0  0.38275  0.55158  0.53184  1.0000
  H   H64       1.0  0.39897  0.2554799999999999  0.22995999999999997  1.0000
  H   H65       1.0  0.39563  0.35416  0.3411  1.0000
  H   H66       1.0  0.37087  0.5707799999999997  0.17996  1.0000
  H   H67       1.0  0.37023999999999996  0.46189999999999987  0.07666  1.0000
  H   H68       1.0  0.3779199999999999  0.9615199999999998  0.57681  1.0000
  H   H69       1.0  0.38249  0.07096999999999998  0.6793700000000001  1.0000
  H   H70       1.0  0.36092  0.85578  0.84221  1.0000
  H   H71       1.0  0.36218  0.75594  0.73202  1.0000
  H   H72       1.0  0.36663  0.25813  0.87382  1.0000
  H   H73       1.0  0.36433  0.15605999999999995  0.76467  1.0000
  H   H74       1.0  0.38466  0.94296  0.9290800000000001  1.0000
  H   H75       1.0  0.39133  0.05532  0.030960000000000005  1.0000
  H   H76       1.0  0.35828000000000004  0.10668  0.30488  1.0000
  H   H77       1.0  0.35533  0.057749999999999996  0.47465  1.0000
  H   H78       1.0  0.41816999999999993  0.0014199999999999996  0.40024  1.0000
  H   H79       1.0  0.25329  0.96386  0.34031  1.0000
  H   H80       1.0  0.09078  0.9995199999999999  0.40542  1.0000
  H   H81       1.0  0.15691  0.05759  0.47726  1.0000
  H   H82       1.0  0.14586  0.10410999999999997  0.3069  1.0000
  H   H83       1.0  0.25287  0.20379999999999998  0.43692  1.0000
  H   H84       1.0  0.2514  0.23488999999999993  0.34048  1.0000
  H   H85       1.0  0.61644  0.25469  0.6248000000000001  1.0000
  H   H86       1.0  0.61091  0.15273999999999993  0.7339100000000001  1.0000
  H   H87       1.0  0.61996  0.9391499999999998  0.56933  1.0000
  H   H88       1.0  0.6184  0.051259999999999986  0.46722  1.0000
  H   H89       1.0  0.60412  0.7536099999999999  0.76944  1.0000
  H   H90       1.0  0.60856  0.85187  0.65802  1.0000
  H   H91       1.0  0.62498  0.06926  0.81898  1.0000
  H   H92       1.0  0.62607  0.9608499999999998  0.92239  1.0000
  H   H93       1.0  0.62877  0.4607599999999999  0.42537  1.0000
  H   H94       1.0  0.6235  0.5708199999999998  0.32339  1.0000
  H   H95       1.0  0.634  0.3561499999999999  0.1594  1.0000
  H   H96       1.0  0.63499  0.25575  0.26909  1.0000
  H   H97       1.0  0.62973  0.75845  0.12808  1.0000
  H   H98       1.0  0.63557  0.6565999999999997  0.23737000000000003  1.0000
  H   H99       1.0  0.61232  0.44321  0.07353  1.0000
  H   H100      1.0  0.6029  0.55516  0.9716299999999999  1.0000
  C   C1        1.0  0.14883  0.62432  0.86453  1.0000
  C   C2        1.0  0.14902  0.53969  0.91312  1.0000
  C   C3        1.0  0.24521  0.4850199999999999  0.90051  1.0000
  C   C4        1.0  0.34103  0.5393599999999997  0.91522  1.0000
  C   C5        1.0  0.34314  0.6236099999999998  0.866  1.0000
  C   C6        1.0  0.246  0.6771  0.8769  1.0000
  C   C7        1.0  0.05446999999999999  0.6762999999999998  0.88715  1.0000
  C   C8        1.0  0.24328999999999998  0.40046  0.9486700000000001  1.0000
  C   C9        1.0  0.43711  0.6758199999999998  0.88924  1.0000
  C   C10       1.0  0.8824000000000001  0.6853499999999998  0.11595  1.0000
  C   C11       1.0  0.88441  0.62766  0.17692  1.0000
  C   C12       1.0  0.88196  0.5360699999999998  0.1643  1.0000
  C   C13       1.0  0.8820099999999998  0.50915  0.08648  1.0000
  C   C14       1.0  0.8813499999999999  0.57076  0.028260000000000004  1.0000
  C   C15       1.0  0.8902  0.32591  0.27775  1.0000
  C   C16       1.0  0.88901  0.38246999999999987  0.21591  1.0000
  C   C17       1.0  0.8818600000000001  0.4740199999999999  0.22766  1.0000
  C   C18       1.0  0.87565  0.5018399999999998  0.30492  1.0000
  C   C19       1.0  0.8756  0.4416  0.3637300000000001  1.0000
  C   C20       1.0  0.87352  0.9414699999999998  0.86343  1.0000
  C   C21       1.0  0.87538  0.00236  0.80495  1.0000
  C   C22       1.0  0.87046  0.9752599999999998  0.72739  1.0000
  C   C23       1.0  0.86425  0.8836799999999998  0.71512  1.0000
  C   C24       1.0  0.86381  0.8265799999999998  0.77652  1.0000
  C   C25       1.0  0.87112  0.18767999999999996  0.61711  1.0000
  C   C26       1.0  0.86958  0.12952999999999998  0.67769  1.0000
  C   C27       1.0  0.87324  0.03791  0.66459  1.0000
  C   C28       1.0  0.87998  0.011819999999999997  0.5867  1.0000
  C   C29       1.0  0.88305  0.07378999999999997  0.529  1.0000
  C   C30       1.0  0.84976  0.12513  0.13444  1.0000
  C   C31       1.0  0.85049  0.039969999999999985  0.0864  1.0000
  C   C32       1.0  0.75461  0.9849199999999998  0.09908  1.0000
  C   C33       1.0  0.65863  0.03888  0.08372  1.0000
  C   C34       1.0  0.65574  0.12330999999999998  0.13268000000000002  1.0000
  C   C35       1.0  0.75231  0.17747  0.12154999999999999  1.0000
  C   C36       1.0  0.94433  0.17752999999999994  0.11252  1.0000
  C   C37       1.0  0.75647  0.8993299999999997  0.05212  1.0000
  C   C38       1.0  0.56075  0.17429999999999995  0.10954  1.0000
  C   C39       1.0  0.11668  0.18414  0.8843400000000001  1.0000
  C   C40       1.0  0.11469  0.12607999999999994  0.82375  1.0000
  C   C41       1.0  0.11723  0.03446  0.83679  1.0000
  C   C42       1.0  0.11899  0.0081  0.91477  1.0000
  C   C43       1.0  0.11923  0.07006999999999997  0.9725999999999999  1.0000
  C   C44       1.0  0.11176  0.82416  0.7229900000000002  1.0000
  C   C45       1.0  0.11331  0.88049  0.78497  1.0000
  C   C46       1.0  0.1177  0.97225  0.77353  1.0000
  C   C47       1.0  0.12154  0.00029999999999999987  0.69623  1.0000
  C   C48       1.0  0.12195000000000002  0.9401699999999997  0.63722  1.0000
  C   C49       1.0  0.13129  0.4410399999999999  0.13451000000000002  1.0000
  C   C50       1.0  0.12913  0.5021799999999997  0.19262  1.0000
  C   C51       1.0  0.1304  0.4754599999999999  0.27036  1.0000
  C   C52       1.0  0.1337  0.3838399999999999  0.28312  1.0000
  C   C53       1.0  0.13513  0.32636  0.22195000000000006  1.0000
  C   C54       1.0  0.12541  0.6879799999999998  0.38081  1.0000
  C   C55       1.0  0.12905  0.62989  0.32015  1.0000
  C   C56       1.0  0.12629  0.5382599999999997  0.33302  1.0000
  C   C57       1.0  0.11674  0.51209  0.41073  1.0000
  C   C58       1.0  0.11202  0.57394  0.46854  1.0000
  C   C59       1.0  0.6488299999999999  0.62432  0.63548  1.0000
  C   C60       1.0  0.64902  0.53969  0.58688  1.0000
  C   C61       1.0  0.74521  0.4850199999999999  0.59949  1.0000
  C   C62       1.0  0.8410299999999999  0.5393499999999998  0.58478  1.0000
  C   C63       1.0  0.84313  0.6236099999999998  0.63401  1.0000
  C   C64       1.0  0.746  0.6771  0.6231  1.0000
  C   C65       1.0  0.55447  0.6762999999999998  0.61286  1.0000
  C   C66       1.0  0.74329  0.40046  0.55133  1.0000
  C   C67       1.0  0.9371  0.6758199999999998  0.61077  1.0000
  C   C68       1.0  0.3824  0.6853499999999998  0.38404  1.0000
  C   C69       1.0  0.38441  0.62766  0.32309  1.0000
  C   C70       1.0  0.38196  0.5360699999999998  0.3357  1.0000
  C   C71       1.0  0.38201  0.5091599999999998  0.41352  1.0000
  C   C72       1.0  0.38135  0.57075  0.47174  1.0000
  C   C73       1.0  0.3902  0.32592  0.22225000000000006  1.0000
  C   C74       1.0  0.38900999999999997  0.38246999999999987  0.28408  1.0000
  C   C75       1.0  0.38186  0.4740199999999999  0.27234  1.0000
  C   C76       1.0  0.37565  0.5018399999999998  0.19508  1.0000
  C   C77       1.0  0.37560000000000004  0.4416  0.13628  1.0000
  C   C78       1.0  0.37352  0.9414699999999998  0.63658  1.0000
  C   C79       1.0  0.37538  0.00235  0.69505  1.0000
  C   C80       1.0  0.37046  0.9752599999999998  0.77262  1.0000
  C   C81       1.0  0.36425  0.8836799999999998  0.7848800000000002  1.0000
  C   C82       1.0  0.36381  0.8265799999999998  0.72349  1.0000
  C   C83       1.0  0.37112  0.18767  0.88289  1.0000
  C   C84       1.0  0.36958  0.12952999999999998  0.8223200000000002  1.0000
  C   C85       1.0  0.37323999999999996  0.03791  0.83541  1.0000
  C   C86       1.0  0.37998  0.011829999999999997  0.91331  1.0000
  C   C87       1.0  0.38304999999999995  0.07378999999999997  0.9710000000000001  1.0000
  C   C88       1.0  0.34976  0.12513  0.3655600000000001  1.0000
  C   C89       1.0  0.35049  0.039969999999999985  0.4136  1.0000
  C   C90       1.0  0.25461  0.9849199999999998  0.40092  1.0000
  C   C91       1.0  0.15863  0.03888  0.41628  1.0000
  C   C92       1.0  0.15574  0.12330999999999998  0.36732  1.0000
  C   C93       1.0  0.25231  0.17747  0.37845000000000006  1.0000
  C   C94       1.0  0.44433  0.17752999999999994  0.38748  1.0000
  C   C95       1.0  0.25647  0.8993299999999997  0.44788  1.0000
  C   C96       1.0  0.06075  0.17429999999999995  0.39046  1.0000
  C   C97       1.0  0.61668  0.18414999999999995  0.61566  1.0000
  C   C98       1.0  0.6146899999999998  0.12607999999999994  0.6762600000000001  1.0000
  C   C99       1.0  0.61723  0.03446  0.66322  1.0000
  C   C100      1.0  0.6189899999999999  0.0081  0.58524  1.0000
  C   C101      1.0  0.61923  0.07006999999999997  0.5274  1.0000
  C   C102      1.0  0.61176  0.82415  0.77702  1.0000
  C   C103      1.0  0.61331  0.8804999999999997  0.71502  1.0000
  C   C104      1.0  0.6177  0.97225  0.72647  1.0000
  C   C105      1.0  0.62154  0.00031  0.80377  1.0000
  C   C106      1.0  0.62195  0.9401599999999998  0.86279  1.0000
  C   C107      1.0  0.63129  0.4410399999999999  0.36549  1.0000
  C   C108      1.0  0.6291300000000001  0.50219  0.30738000000000004  1.0000
  C   C109      1.0  0.6304  0.4754599999999999  0.22964000000000004  1.0000
  C   C110      1.0  0.63369  0.3838399999999999  0.21687  1.0000
  C   C111      1.0  0.6351300000000001  0.32636  0.27805  1.0000
  C   C112      1.0  0.62541  0.6879799999999998  0.11919  1.0000
  C   C113      1.0  0.62906  0.62989  0.17986  1.0000
  C   C114      1.0  0.62629  0.5382599999999997  0.16698  1.0000
  C   C115      1.0  0.6167399999999998  0.51209  0.08927  1.0000
  C   C116      1.0  0.61203  0.57394  0.03146  1.0000
  N   N1        1.0  0.87987  0.65839  0.04184  1.0000
  N   N2        1.0  0.88226  0.3539299999999999  0.35135  1.0000
  N   N3        1.0  0.86801  0.8539799999999997  0.85059  1.0000
  N   N4        1.0  0.87781  0.16139999999999993  0.54294  1.0000
  N   N5        1.0  0.11937  0.15772999999999995  0.9586099999999999  1.0000
  N   N6        1.0  0.11682  0.85255  0.6492500000000001  1.0000
  N   N7        1.0  0.13488  0.3533699999999999  0.14782000000000003  1.0000
  N   N8        1.0  0.11726  0.66157  0.4549  1.0000
  N   N9        1.0  0.37987  0.6584  0.45816  1.0000
  N   N10       1.0  0.38226  0.35392  0.14865  1.0000
  N   N11       1.0  0.36801  0.8539799999999997  0.6494100000000003  1.0000
  N   N12       1.0  0.37781  0.16139999999999993  0.95707  1.0000
  N   N13       1.0  0.61937  0.15772999999999995  0.54139  1.0000
  N   N14       1.0  0.61682  0.85256  0.85075  1.0000
  N   N15       1.0  0.63488  0.3533699999999999  0.35218  1.0000
  N   N16       1.0  0.61727  0.6615599999999998  0.04510000000000001  1.0000
  O   O1        1.0  0.9683599999999999  0.6492499999999998  0.86434  1.0000
  O   O2        1.0  0.06519  0.74296  0.9315100000000001  1.0000
  O   O3        1.0  0.15625  0.36803999999999987  0.9627100000000001  1.0000
  O   O4        1.0  0.32816999999999996  0.3689899999999999  0.9696000000000001  1.0000
  O   O5        1.0  0.52414  0.64866  0.86802  1.0000
  O   O6        1.0  0.42510000000000003  0.7432399999999999  0.9324200000000001  1.0000
  O   O7        1.0  0.03034  0.15075999999999995  0.13596  1.0000
  O   O8        1.0  0.93413  0.24439  0.06824  1.0000
  O   O9        1.0  0.84339  0.8669599999999997  0.03734  1.0000
  O   O10       1.0  0.67134  0.8667899999999998  0.03313  1.0000
  O   O11       1.0  0.47465999999999997  0.14689999999999995  0.13236  1.0000
  O   O12       1.0  0.57101  0.24069999999999994  0.06486  1.0000
  O   O13       1.0  0.46836  0.6492499999999998  0.63567  1.0000
  O   O14       1.0  0.56519  0.74296  0.5685  1.0000
  O   O15       1.0  0.65625  0.3680299999999999  0.5373  1.0000
  O   O16       1.0  0.8281799999999999  0.3689899999999999  0.53041  1.0000
  O   O17       1.0  0.02414  0.64866  0.63199  1.0000
  O   O18       1.0  0.9251  0.7432399999999999  0.56759  1.0000
  O   O19       1.0  0.53034  0.15076999999999993  0.36404000000000003  1.0000
  O   O20       1.0  0.43413  0.24439999999999995  0.43176  1.0000
  O   O21       1.0  0.34339  0.8669699999999998  0.46266000000000007  1.0000
  O   O22       1.0  0.17133999999999996  0.8667899999999998  0.4668800000000001  1.0000
  O   O23       1.0  0.97466  0.14689999999999995  0.36764  1.0000
  O   O24       1.0  0.07101  0.24069999999999994  0.43514000000000014  1.0000
