data_image0
_chemical_formula_structural       Gd8Cd12H48C144O96
_chemical_formula_sum              "Gd8 Cd12 H48 C144 O96"
_cell_length_a       19.71989
_cell_length_b       19.71565
_cell_length_c       26.6377
_cell_angle_alpha    90.00905
_cell_angle_beta     90.03606
_cell_angle_gamma    89.94245

_space_group_name_H-M_alt    "P 1"
_space_group_IT_number       1

loop_
  _space_group_symop_operation_xyz
  'x, y, z'

loop_
  _atom_site_type_symbol
  _atom_site_label
  _atom_site_symmetry_multiplicity
  _atom_site_fract_x
  _atom_site_fract_y
  _atom_site_fract_z
  _atom_site_occupancy
  Gd  Gd1       1.0  0.54745  0.54739  0.29198  1.0000
  Gd  Gd2       1.0  0.95375  0.9528399999999999  0.29231  1.0000
  Gd  Gd3       1.0  0.9535900000000002  0.54729  0.79226  1.0000
  Gd  Gd4       1.0  0.54723  0.95264  0.79228  1.0000
  Gd  Gd5       1.0  0.45273  0.04666  0.20783  1.0000
  Gd  Gd6       1.0  0.04749  0.45265  0.20781  1.0000
  Gd  Gd7       1.0  0.04621  0.04639  0.70751  1.0000
  Gd  Gd8       1.0  0.45279  0.45260000000000006  0.70795  1.0000
  Cd  Cd1       1.0  0.46956000000000003  0.46947  0.19834000000000004  1.0000
  Cd  Cd2       1.0  0.031180000000000003  0.03133  0.19917000000000004  1.0000
  Cd  Cd3       1.0  0.03073  0.46896000000000004  0.6985800000000002  1.0000
  Cd  Cd4       1.0  0.46908000000000005  0.0306  0.69889  1.0000
  Cd  Cd5       1.0  0.5310300000000001  0.96911  0.30139  1.0000
  Cd  Cd6       1.0  0.9694500000000001  0.53098  0.30096  1.0000
  Cd  Cd7       1.0  0.96882  0.9686500000000001  0.80117  1.0000
  Cd  Cd8       1.0  0.53054  0.53038  0.80176  1.0000
  Cd  Cd9       1.0  0.25044  0.74977  0.9999300000000001  1.0000
  Cd  Cd10      1.0  0.75001  0.25064  0.49995  1.0000
  Cd  Cd11      1.0  0.74994  0.25019  0.0  1.0000
  Cd  Cd12      1.0  0.25026  0.74959  0.5002  1.0000
  H   H1        1.0  0.40232  0.87407  0.13475  1.0000
  H   H2        1.0  0.4053300000000001  0.66009  0.11248  1.0000
  H   H3        1.0  0.51459  0.74704  0.23795  1.0000
  H   H4        1.0  0.09694  0.62583  0.13395  1.0000
  H   H5        1.0  0.09574  0.83997  0.1132  1.0000
  H   H6        1.0  0.98499  0.75237  0.2377  1.0000
  H   H7        1.0  0.62548  0.403  0.6355600000000001  1.0000
  H   H8        1.0  0.8393699999999998  0.40559  0.6130800000000001  1.0000
  H   H9        1.0  0.75276  0.51508  0.73855  1.0000
  H   H10       1.0  0.8736600000000001  0.09627  0.6352000000000001  1.0000
  H   H11       1.0  0.65966  0.09533  0.61352  1.0000
  H   H12       1.0  0.7465600000000001  0.98441  0.73829  1.0000
  H   H13       1.0  0.59704  0.37466  0.36479  1.0000
  H   H14       1.0  0.59473  0.16067  0.38730000000000003  1.0000
  H   H15       1.0  0.48523  0.24723000000000003  0.2617  1.0000
  H   H16       1.0  0.9034999999999999  0.12612  0.36544  1.0000
  H   H17       1.0  0.90472  0.3405  0.3864  1.0000
  H   H18       1.0  0.015219999999999997  0.25267  0.26192  1.0000
  H   H19       1.0  0.37413  0.90321  0.8656  1.0000
  H   H20       1.0  0.16003  0.9045300000000001  0.88639  1.0000
  H   H21       1.0  0.24749  0.01509  0.76179  1.0000
  H   H22       1.0  0.1262  0.59747  0.86471  1.0000
  H   H23       1.0  0.34003  0.59428  0.8872700000000002  1.0000
  H   H24       1.0  0.25322  0.4849800000000001  0.76177  1.0000
  H   H25       1.0  0.59774  0.12572  0.86533  1.0000
  H   H26       1.0  0.59468  0.33972  0.8874800000000002  1.0000
  H   H27       1.0  0.4854800000000001  0.25264  0.76203  1.0000
  H   H28       1.0  0.9039400000000001  0.37454  0.8651000000000001  1.0000
  H   H29       1.0  0.90448  0.16032  0.8863  1.0000
  H   H30       1.0  0.01529  0.24721999999999997  0.76161  1.0000
  H   H31       1.0  0.37478  0.59701  0.36474  1.0000
  H   H32       1.0  0.16094  0.59483  0.38737  1.0000
  H   H33       1.0  0.24725  0.48526  0.26172  1.0000
  H   H34       1.0  0.1268  0.90278  0.36578  1.0000
  H   H35       1.0  0.34101  0.90479  0.38668  1.0000
  H   H36       1.0  0.25282  0.01501  0.26212  1.0000
  H   H37       1.0  0.40282  0.62546  0.6355200000000002  1.0000
  H   H38       1.0  0.40551999999999994  0.83933  0.61296  1.0000
  H   H39       1.0  0.51516  0.75262  0.73845  1.0000
  H   H40       1.0  0.09646  0.8738  0.63468  1.0000
  H   H41       1.0  0.0955  0.65956  0.6134200000000001  1.0000
  H   H42       1.0  0.9847000000000001  0.74694  0.73798  1.0000
  H   H43       1.0  0.6255  0.09596  0.13483  1.0000
  H   H44       1.0  0.8396399999999999  0.09555  0.11369  1.0000
  H   H45       1.0  0.75294  0.9845899999999999  0.23838000000000006  1.0000
  H   H46       1.0  0.8742300000000001  0.40229  0.1347  1.0000
  H   H47       1.0  0.66026  0.40536  0.11253  1.0000
  H   H48       1.0  0.7474  0.51453  0.23796000000000006  1.0000
  C   C1        1.0  0.48211000000000004  0.62702  0.19411  1.0000
  C   C2        1.0  0.4209  0.8247800000000001  0.14687  1.0000
  C   C3        1.0  0.42216999999999993  0.70377  0.1341  1.0000
  C   C4        1.0  0.40056  0.7682  0.11919000000000003  1.0000
  C   C5        1.0  0.48139  0.87678  0.2202  1.0000
  C   C6        1.0  0.35181  0.77685  0.07538  1.0000
  C   C7        1.0  0.4622800000000001  0.8174200000000001  0.18950000000000006  1.0000
  C   C8        1.0  0.46336000000000005  0.69585  0.17686  1.0000
  C   C9        1.0  0.48354  0.7527  0.20457  1.0000
  C   C10       1.0  0.01828  0.8727799999999999  0.19502  1.0000
  C   C11       1.0  0.07862  0.67503  0.14651  1.0000
  C   C12       1.0  0.07837  0.79624  0.13452  1.0000
  C   C13       1.0  0.09943000000000002  0.73174  0.11922  1.0000
  C   C14       1.0  0.01832  0.6224  0.21947000000000005  1.0000
  C   C15       1.0  0.14811  0.72226  0.07538  1.0000
  C   C16       1.0  0.03724  0.68215  0.18911  1.0000
  C   C17       1.0  0.03692  0.80402  0.17722000000000002  1.0000
  C   C18       1.0  0.01622  0.7469  0.20442  1.0000
  C   C19       1.0  0.87295  0.48217  0.69435  1.0000
  C   C20       1.0  0.67482  0.42145  0.6475900000000001  1.0000
  C   C21       1.0  0.79571  0.42242  0.6347100000000001  1.0000
  C   C22       1.0  0.73129  0.40081  0.6199400000000003  1.0000
  C   C23       1.0  0.62241  0.48178  0.72037  1.0000
  C   C24       1.0  0.72188  0.35185  0.57637  1.0000
  C   C25       1.0  0.6822  0.46296  0.69007  1.0000
  C   C26       1.0  0.8038  0.46372  0.67743  1.0000
  C   C27       1.0  0.747  0.48405999999999993  0.70517  1.0000
  C   C28       1.0  0.627  0.01792  0.6951300000000001  1.0000
  C   C29       1.0  0.82447  0.07788  0.6475  1.0000
  C   C30       1.0  0.70354  0.07814  0.6348400000000002  1.0000
  C   C31       1.0  0.76815  0.09928  0.6199800000000002  1.0000
  C   C32       1.0  0.8766000000000002  0.01699  0.72031  1.0000
  C   C33       1.0  0.7791  0.14837  0.57649  1.0000
  C   C34       1.0  0.8171300000000001  0.03629  0.68988  1.0000
  C   C35       1.0  0.69562  0.03652  0.67747  1.0000
  C   C36       1.0  0.75237  0.015570000000000002  0.705  1.0000
  C   C37       1.0  0.51806  0.12702  0.3058  1.0000
  C   C38       1.0  0.57865  0.3253  0.35274  1.0000
  C   C39       1.0  0.57785  0.20432000000000003  0.3656200000000001  1.0000
  C   C40       1.0  0.59924  0.26885  0.38048  1.0000
  C   C41       1.0  0.5184  0.37765  0.27975  1.0000
  C   C42       1.0  0.64796  0.27824  0.4242700000000001  1.0000
  C   C43       1.0  0.5373  0.31788  0.31015  1.0000
  C   C44       1.0  0.53664  0.19617  0.32282  1.0000
  C   C45       1.0  0.51628  0.25302  0.29508  1.0000
  C   C46       1.0  0.98206  0.37283  0.30485  1.0000
  C   C47       1.0  0.92161  0.17543  0.3530800000000001  1.0000
  C   C48       1.0  0.9219  0.29658  0.36517000000000005  1.0000
  C   C49       1.0  0.90067  0.23218999999999998  0.38044  1.0000
  C   C50       1.0  0.98271  0.12316  0.27999  1.0000
  C   C51       1.0  0.85197  0.2233  0.42435  1.0000
  C   C52       1.0  0.96308  0.18254  0.31052  1.0000
  C   C53       1.0  0.96336  0.30421  0.32252  1.0000
  C   C54       1.0  0.98403  0.24719999999999998  0.29522  1.0000
  C   C55       1.0  0.12702  0.98168  0.80487  1.0000
  C   C56       1.0  0.32492  0.9215100000000002  0.85307  1.0000
  C   C57       1.0  0.20385000000000003  0.92179  0.86516  1.0000
  C   C58       1.0  0.26832  0.9006900000000001  0.8804800000000003  1.0000
  C   C59       1.0  0.3775  0.98169  0.78  1.0000
  C   C60       1.0  0.27779  0.85201  0.92441  1.0000
  C   C61       1.0  0.31775  0.96282  0.81038  1.0000
  C   C62       1.0  0.19598  0.96321  0.82243  1.0000
  C   C63       1.0  0.25299  0.9838500000000001  0.7951  1.0000
  C   C64       1.0  0.37308  0.5177  0.80581  1.0000
  C   C65       1.0  0.17541  0.57872  0.85264  1.0000
  C   C66       1.0  0.29629  0.57755  0.8656800000000002  1.0000
  C   C67       1.0  0.23185000000000003  0.59924  0.88034  1.0000
  C   C68       1.0  0.12329  0.51829  0.7796  1.0000
  C   C69       1.0  0.22220999999999996  0.64833  0.9237600000000002  1.0000
  C   C70       1.0  0.18276  0.53722  0.81016  1.0000
  C   C71       1.0  0.30423  0.53626  0.8229700000000001  1.0000
  C   C72       1.0  0.2475  0.516  0.79516  1.0000
  C   C73       1.0  0.5179  0.37274  0.80585  1.0000
  C   C74       1.0  0.57915  0.17499  0.8531600000000001  1.0000
  C   C75       1.0  0.57785  0.29602  0.86588  1.0000
  C   C76       1.0  0.5995  0.23161000000000004  0.88081  1.0000
  C   C77       1.0  0.51854  0.12288  0.77985  1.0000
  C   C78       1.0  0.64826  0.22305  0.9246500000000002  1.0000
  C   C79       1.0  0.53777  0.18226  0.8105200000000002  1.0000
  C   C80       1.0  0.53666  0.30389  0.82311  1.0000
  C   C81       1.0  0.51655  0.24700000000000003  0.79542  1.0000
  C   C82       1.0  0.98166  0.12701  0.80484  1.0000
  C   C83       1.0  0.92192  0.32511  0.8527800000000002  1.0000
  C   C84       1.0  0.9217800000000002  0.20404999999999998  0.86495  1.0000
  C   C85       1.0  0.90076  0.26859  0.8802000000000002  1.0000
  C   C86       1.0  0.98279  0.37749  0.7799700000000003  1.0000
  C   C87       1.0  0.85204  0.278  0.9241400000000002  1.0000
  C   C88       1.0  0.96339  0.31777  0.8102200000000002  1.0000
  C   C89       1.0  0.96323  0.19601  0.82228  1.0000
  C   C90       1.0  0.98412  0.25292  0.79492  1.0000
  C   C91       1.0  0.12719  0.51803  0.3058600000000001  1.0000
  C   C92       1.0  0.32539  0.57865  0.35273  1.0000
  C   C93       1.0  0.20446  0.57786  0.3656200000000001  1.0000
  C   C94       1.0  0.26897  0.59926  0.38045  1.0000
  C   C95       1.0  0.37768  0.51838  0.27972  1.0000
  C   C96       1.0  0.27818  0.64805  0.42421  1.0000
  C   C97       1.0  0.31795  0.53731  0.31014000000000014  1.0000
  C   C98       1.0  0.19629  0.53665  0.32285000000000014  1.0000
  C   C99       1.0  0.25309  0.5163  0.29509  1.0000
  C   C100      1.0  0.37291  0.98203  0.30497  1.0000
  C   C101      1.0  0.17592  0.92121  0.3533  1.0000
  C   C102      1.0  0.29702  0.92187  0.3654700000000001  1.0000
  C   C103      1.0  0.23269  0.90056  0.38073  1.0000
  C   C104      1.0  0.12333000000000001  0.9815800000000001  0.2801  1.0000
  C   C105      1.0  0.22361  0.8518499999999999  0.4245900000000001  1.0000
  C   C106      1.0  0.18283  0.9626099999999999  0.31069  1.0000
  C   C107      1.0  0.30443  0.96333  0.32278  1.0000
  C   C108      1.0  0.24738  0.9838500000000001  0.29544  1.0000
  C   C109      1.0  0.48215  0.87284  0.69423  1.0000
  C   C110      1.0  0.4214  0.67475  0.6475500000000002  1.0000
  C   C111      1.0  0.42239999999999994  0.79566  0.6346  1.0000
  C   C112      1.0  0.40081  0.73123  0.61987  1.0000
  C   C113      1.0  0.48175000000000007  0.62231  0.7203800000000001  1.0000
  C   C114      1.0  0.35178  0.72185  0.57635  1.0000
  C   C115      1.0  0.46293  0.68211  0.69003  1.0000
  C   C116      1.0  0.46370000000000006  0.80373  0.67732  1.0000
  C   C117      1.0  0.48407  0.74692  0.70509  1.0000
  C   C118      1.0  0.01801  0.62705  0.69504  1.0000
  C   C119      1.0  0.07829  0.82447  0.64695  1.0000
  C   C120      1.0  0.07814  0.70335  0.63472  1.0000
  C   C121      1.0  0.09928  0.7678  0.6195300000000001  1.0000
  C   C122      1.0  0.01727  0.8766  0.7201000000000001  1.0000
  C   C123      1.0  0.14805  0.77664  0.57566  1.0000
  C   C124      1.0  0.03681  0.81724  0.68952  1.0000
  C   C125      1.0  0.03667  0.69562  0.67734  1.0000
  C   C126      1.0  0.01595  0.75254  0.70472  1.0000
  C   C127      1.0  0.87306  0.01825  0.19513000000000003  1.0000
  C   C128      1.0  0.67493  0.07803  0.14719  1.0000
  C   C129      1.0  0.79596  0.07817  0.13503  1.0000
  C   C130      1.0  0.73142  0.09919  0.11976000000000003  1.0000
  C   C131      1.0  0.62256  0.01723  0.22006000000000003  1.0000
  C   C132      1.0  0.72207  0.14795  0.07580000000000003  1.0000
  C   C133      1.0  0.68229  0.03658  0.18978  1.0000
  C   C134      1.0  0.8040500000000002  0.03669  0.17770000000000005  1.0000
  C   C135      1.0  0.74716  0.0158  0.20508  1.0000
  C   C136      1.0  0.62722  0.48209  0.19415000000000002  1.0000
  C   C137      1.0  0.82497  0.42085999999999996  0.14685  1.0000
  C   C138      1.0  0.70395  0.42217  0.13414  1.0000
  C   C139      1.0  0.76835  0.40054  0.1192  1.0000
  C   C140      1.0  0.8771399999999999  0.48144  0.22013000000000005  1.0000
  C   C141      1.0  0.77691  0.35177  0.07538  1.0000
  C   C142      1.0  0.8177200000000001  0.46224  0.18947  1.0000
  C   C143      1.0  0.69608  0.46334000000000003  0.1769  1.0000
  C   C144      1.0  0.75299  0.48347000000000007  0.20457  1.0000
  O   O1        1.0  0.46125  0.57604  0.1695  1.0000
  O   O2        1.0  0.51862  0.62224  0.23483000000000007  1.0000
  O   O3        1.0  0.33637  0.72124  0.05308  1.0000
  O   O4        1.0  0.46115000000000006  0.93633  0.20471000000000003  1.0000
  O   O5        1.0  0.51541  0.8689899999999999  0.26017  1.0000
  O   O6        1.0  0.33007  0.8351599999999999  0.06598  1.0000
  O   O7        1.0  0.04071  0.9240000000000002  0.17156  1.0000
  O   O8        1.0  0.98022  0.8775700000000001  0.23492000000000005  1.0000
  O   O9        1.0  0.16495  0.77752  0.05323  1.0000
  O   O10       1.0  0.0399  0.56317  0.20444000000000007  1.0000
  O   O11       1.0  0.9832699999999999  0.62968  0.25909  1.0000
  O   O12       1.0  0.16829  0.6634  0.06593  1.0000
  O   O13       1.0  0.92349  0.46108  0.6694100000000001  1.0000
  O   O14       1.0  0.8787600000000001  0.51854  0.73503  1.0000
  O   O15       1.0  0.77685  0.33647  0.55319  1.0000
  O   O16       1.0  0.5631  0.46144  0.70459  1.0000
  O   O17       1.0  0.62968  0.51561  0.7605  1.0000
  O   O18       1.0  0.66329  0.33011  0.56815  1.0000
  O   O19       1.0  0.57578  0.04036  0.6715800000000001  1.0000
  O   O20       1.0  0.6225300000000001  0.97995  0.73508  1.0000
  O   O21       1.0  0.72451  0.16494  0.55324  1.0000
  O   O22       1.0  0.93603  0.03714  0.7047100000000002  1.0000
  O   O23       1.0  0.86896  0.9830200000000001  0.76031  1.0000
  O   O24       1.0  0.83823  0.1686  0.56848  1.0000
  O   O25       1.0  0.53899  0.07632  0.33068  1.0000
  O   O26       1.0  0.48164000000000007  0.12133000000000001  0.26509  1.0000
  O   O27       1.0  0.6637600000000001  0.22301  0.44697  1.0000
  O   O28       1.0  0.53864  0.43706  0.2954  1.0000
  O   O29       1.0  0.48451  0.37026  0.23964000000000002  1.0000
  O   O30       1.0  0.6693  0.3368  0.43318000000000006  1.0000
  O   O31       1.0  0.9595800000000001  0.4240900000000001  0.32833000000000007  1.0000
  O   O32       1.0  0.020160000000000004  0.3773  0.26498  1.0000
  O   O33       1.0  0.8352400000000001  0.27879  0.44636  1.0000
  O   O34       1.0  0.96302  0.06347  0.29539  1.0000
  O   O35       1.0  0.01673  0.13117  0.24001  1.0000
  O   O36       1.0  0.83162  0.16468  0.4341  1.0000
  O   O37       1.0  0.0761  0.9593000000000002  0.8287000000000002  1.0000
  O   O38       1.0  0.12163999999999998  0.01943  0.76487  1.0000
  O   O39       1.0  0.22256  0.8352  0.94659  1.0000
  O   O40       1.0  0.4366900000000001  0.9604799999999999  0.79541  1.0000
  O   O41       1.0  0.37031  0.01638  0.74015  1.0000
  O   O42       1.0  0.33663  0.8317900000000001  0.9339100000000001  1.0000
  O   O43       1.0  0.42397  0.53868  0.8304700000000003  1.0000
  O   O44       1.0  0.378  0.48127  0.76508  1.0000
  O   O45       1.0  0.27707  0.66365  0.9470000000000001  1.0000
  O   O46       1.0  0.06386  0.53867  0.79524  1.0000
  O   O47       1.0  0.13091  0.48438000000000003  0.7396  1.0000
  O   O48       1.0  0.16369  0.67025  0.9318300000000003  1.0000
  O   O49       1.0  0.53873  0.42373  0.8304700000000003  1.0000
  O   O50       1.0  0.48143  0.37758  0.7651100000000002  1.0000
  O   O51       1.0  0.66371  0.27867  0.9469000000000002  1.0000
  O   O52       1.0  0.53852  0.0632  0.79531  1.0000
  O   O53       1.0  0.4845999999999999  0.13086  0.7398400000000003  1.0000
  O   O54       1.0  0.66997  0.16473  0.9340800000000001  1.0000
  O   O55       1.0  0.95929  0.0761  0.82867  1.0000
  O   O56       1.0  0.01948  0.12160999999999998  0.76488  1.0000
  O   O57       1.0  0.8351999999999999  0.22266000000000002  0.9462600000000002  1.0000
  O   O58       1.0  0.96274  0.43696000000000007  0.7955700000000001  1.0000
  O   O59       1.0  0.01691  0.37011  0.73994  1.0000
  O   O60       1.0  0.8318699999999999  0.33678  0.9337400000000001  1.0000
  O   O61       1.0  0.07648  0.53909  0.3306300000000001  1.0000
  O   O62       1.0  0.12151999999999999  0.4814  0.26527  1.0000
  O   O63       1.0  0.22288  0.66364  0.4468700000000001  1.0000
  O   O64       1.0  0.4371  0.53861  0.29538000000000003  1.0000
  O   O65       1.0  0.37026  0.48451  0.23963000000000004  1.0000
  O   O66       1.0  0.33667  0.66956  0.43311  1.0000
  O   O67       1.0  0.4242  0.9595400000000001  0.32841  1.0000
  O   O68       1.0  0.37729  0.02006  0.26505  1.0000
  O   O69       1.0  0.27898  0.8350799999999999  0.4467100000000001  1.0000
  O   O70       1.0  0.06409  0.96011  0.2952  1.0000
  O   O71       1.0  0.13084  0.01654  0.24048  1.0000
  O   O72       1.0  0.1649  0.83154  0.43413  1.0000
  O   O73       1.0  0.46106  0.92349  0.6694  1.0000
  O   O74       1.0  0.51864  0.87852  0.73488  1.0000
  O   O75       1.0  0.3364  0.77685  0.55318  1.0000
  O   O76       1.0  0.46145  0.56298  0.7046  1.0000
  O   O77       1.0  0.51557  0.62963  0.7605100000000001  1.0000
  O   O78       1.0  0.32996  0.66329  0.56818  1.0000
  O   O79       1.0  0.04041  0.57579  0.67156  1.0000
  O   O80       1.0  0.9800200000000001  0.62266  0.73497  1.0000
  O   O81       1.0  0.16473  0.72117  0.55362  1.0000
  O   O82       1.0  0.03717  0.9361499999999999  0.7046  1.0000
  O   O83       1.0  0.98326  0.86883  0.76009  1.0000
  O   O84       1.0  0.16852  0.8352700000000001  0.56599  1.0000
  O   O85       1.0  0.92397  0.04065  0.17132  1.0000
  O   O86       1.0  0.8784800000000001  0.98042  0.2351  1.0000
  O   O87       1.0  0.7774  0.16473  0.0537  1.0000
  O   O88       1.0  0.56307  0.03727  0.20447  1.0000
  O   O89       1.0  0.62995  0.9831000000000001  0.2601  1.0000
  O   O90       1.0  0.66332  0.16821  0.06616  1.0000
  O   O91       1.0  0.57623  0.46125000000000005  0.16953000000000004  1.0000
  O   O92       1.0  0.62238  0.51859  0.23487  1.0000
  O   O93       1.0  0.72131  0.3363  0.05311  1.0000
  O   O94       1.0  0.93684  0.46149000000000007  0.20471000000000003  1.0000
  O   O95       1.0  0.8691300000000001  0.51536  0.26014  1.0000
  O   O96       1.0  0.83521  0.33004  0.06597  1.0000
