data_image0
_chemical_formula_structural       Cu12H120C96I12N24
_chemical_formula_sum              "Cu12 H120 C96 I12 N24"
_cell_length_a       16.30263
_cell_length_b       16.30154
_cell_length_c       16.30128
_cell_angle_alpha    105.48475
_cell_angle_beta     105.50305
_cell_angle_gamma    105.50328999999999

_symmetry_space_group_name_H-M    'P 1'
_symmetry_Int_Tables_number       1

loop_
  _symmetry_equiv_pos_as_xyz
  'x,y,z'

loop_
  _atom_site_type_symbol
  _atom_site_label
  _atom_site_symmetry_multiplicity
  _atom_site_fract_x
  _atom_site_fract_y
  _atom_site_fract_z
  _atom_site_occupancy
  Cu  Cu1       1.0  0.74964  0.43382  0.06637  1.0000
  Cu  Cu2       1.0  0.56642  0.25027  0.93374  1.0000
  Cu  Cu3       1.0  0.43356000000000006  0.06637000000000004  0.74961  1.0000
  Cu  Cu4       1.0  0.25025  0.9337500000000002  0.5661999999999998  1.0000
  Cu  Cu5       1.0  0.06644000000000007  0.7496600000000002  0.43385  1.0000
  Cu  Cu6       1.0  0.93361  0.56619  0.25026  1.0000
  Cu  Cu7       1.0  0.25035999999999997  0.56619  0.9336299999999997  1.0000
  Cu  Cu8       1.0  0.43359  0.74973  0.06626  1.0000
  Cu  Cu9       1.0  0.56644  0.93363  0.25039  1.0000
  Cu  Cu10      1.0  0.74975  0.06624999999999996  0.4337899999999999  1.0000
  Cu  Cu11      1.0  0.9335599999999997  0.25035  0.56615  1.0000
  Cu  Cu12      1.0  0.06638999999999994  0.43380999999999986  0.7497399999999997  1.0000
  H   H1        1.0  0.09141000000000005  0.5302200000000002  0.25946  1.0000
  H   H2        1.0  0.13692  0.62975  0.23904  1.0000
  H   H3        1.0  0.7610999999999998  0.37009  0.86283  1.0000
  H   H4        1.0  0.7405499999999998  0.4695399999999999  0.9083699999999998  1.0000
  H   H5        1.0  0.20919000000000001  0.39428000000000013  0.14078  1.0000
  H   H6        1.0  0.09333000000000001  0.38221000000000005  0.09352999999999997  1.0000
  H   H7        1.0  0.14101999999999995  0.39424000000000003  0.20931  1.0000
  H   H8        1.0  0.25999  0.54417  0.32877  1.0000
  H   H9        1.0  0.29817  0.64033  0.29831  1.0000
  H   H10       1.0  0.3286  0.54412  0.26027  1.0000
  H   H11       1.0  0.7116399999999999  0.60612  0.9710799999999998  1.0000
  H   H12       1.0  0.76715  0.60027  0.07748  1.0000
  H   H13       1.0  0.39931999999999995  0.23276  0.92196  1.0000
  H   H14       1.0  0.39366999999999996  0.2879800000000001  0.028549999999999992  1.0000
  H   H15       1.0  0.7760699999999997  0.70614  0.22147  1.0000
  H   H16       1.0  0.6560499999999998  0.65687  0.19002  1.0000
  H   H17       1.0  0.70829  0.7766500000000002  0.22197  1.0000
  H   H18       1.0  0.77304  0.77214  0.01687  1.0000
  H   H19       1.0  0.8448  0.77587  0.12265  1.0000
  H   H20       1.0  0.77635  0.8445000000000001  0.12216  1.0000
  H   H21       1.0  0.5302299999999999  0.25943  0.09137999999999998  1.0000
  H   H22       1.0  0.62974  0.23899999999999996  0.13686999999999994  1.0000
  H   H23       1.0  0.37012000000000006  0.8628700000000002  0.76112  1.0000
  H   H24       1.0  0.46954  0.9084  0.74053  1.0000
  H   H25       1.0  0.3942999999999999  0.14079  0.2092  1.0000
  H   H26       1.0  0.38216  0.09352  0.09331  1.0000
  H   H27       1.0  0.3942999999999999  0.20935  0.14103999999999997  1.0000
  H   H28       1.0  0.5441499999999999  0.3287200000000001  0.25993  1.0000
  H   H29       1.0  0.64032  0.29829  0.29815  1.0000
  H   H30       1.0  0.5441  0.26021  0.3285599999999999  1.0000
  H   H31       1.0  0.60611  0.97108  0.71166  1.0000
  H   H32       1.0  0.60025  0.07746  0.76718  1.0000
  H   H33       1.0  0.23279999999999995  0.92195  0.3993  1.0000
  H   H34       1.0  0.288  0.028550000000000034  0.39365  1.0000
  H   H35       1.0  0.7061499999999998  0.2214800000000001  0.77608  1.0000
  H   H36       1.0  0.65689  0.19002  0.6560299999999999  1.0000
  H   H37       1.0  0.77664  0.22197000000000006  0.70827  1.0000
  H   H38       1.0  0.7721399999999998  0.01687000000000003  0.77304  1.0000
  H   H39       1.0  0.7759  0.12264999999999994  0.84482  1.0000
  H   H40       1.0  0.84447  0.12215999999999996  0.7763099999999998  1.0000
  H   H41       1.0  0.2594199999999999  0.09139  0.53023  1.0000
  H   H42       1.0  0.23902  0.13690999999999998  0.62977  1.0000
  H   H43       1.0  0.86283  0.7610899999999999  0.37010999999999994  1.0000
  H   H44       1.0  0.9083599999999996  0.74053  0.46956  1.0000
  H   H45       1.0  0.14077999999999996  0.20915999999999996  0.3942399999999999  1.0000
  H   H46       1.0  0.09353999999999996  0.09331000000000003  0.38221  1.0000
  H   H47       1.0  0.20934000000000003  0.14102000000000006  0.39427  1.0000
  H   H48       1.0  0.32876  0.25999  0.54417  1.0000
  H   H49       1.0  0.29831  0.29817  0.64033  1.0000
  H   H50       1.0  0.26027  0.32861  0.54411  1.0000
  H   H51       1.0  0.9710699999999997  0.71163  0.6060499999999998  1.0000
  H   H52       1.0  0.07746  0.76714  0.60023  1.0000
  H   H53       1.0  0.9219599999999998  0.39934  0.23279  1.0000
  H   H54       1.0  0.028559999999999985  0.39372  0.28802  1.0000
  H   H55       1.0  0.22145999999999996  0.77609  0.7061599999999999  1.0000
  H   H56       1.0  0.19004  0.65604  0.65688  1.0000
  H   H57       1.0  0.22194999999999987  0.7082999999999999  0.7766499999999997  1.0000
  H   H58       1.0  0.01686999999999998  0.77301  0.7721  1.0000
  H   H59       1.0  0.12266000000000005  0.8447700000000005  0.77583  1.0000
  H   H60       1.0  0.12217000000000008  0.7762800000000002  0.84444  1.0000
  H   H61       1.0  0.9085899999999997  0.46978  0.7405399999999998  1.0000
  H   H62       1.0  0.86308  0.37024999999999997  0.7609599999999997  1.0000
  H   H63       1.0  0.23891  0.62992  0.13717  1.0000
  H   H64       1.0  0.25945  0.53046  0.09163  1.0000
  H   H65       1.0  0.79082  0.60573  0.85922  1.0000
  H   H66       1.0  0.90668  0.6177900000000002  0.90647  1.0000
  H   H67       1.0  0.8589799999999999  0.60577  0.79068  1.0000
  H   H68       1.0  0.74001  0.45583  0.67123  1.0000
  H   H69       1.0  0.70183  0.3596700000000002  0.70168  1.0000
  H   H70       1.0  0.6714  0.4558800000000001  0.73973  1.0000
  H   H71       1.0  0.28836  0.39388  0.028919999999999998  1.0000
  H   H72       1.0  0.23285999999999993  0.39973000000000003  0.92252  1.0000
  H   H73       1.0  0.60069  0.76724  0.07804  1.0000
  H   H74       1.0  0.60633  0.71203  0.9714399999999997  1.0000
  H   H75       1.0  0.2239299999999999  0.29386999999999996  0.7785199999999998  1.0000
  H   H76       1.0  0.3439499999999998  0.34313  0.8099799999999998  1.0000
  H   H77       1.0  0.29170999999999997  0.22334999999999994  0.7780199999999999  1.0000
  H   H78       1.0  0.22695999999999994  0.22787  0.98313  1.0000
  H   H79       1.0  0.15520999999999988  0.22412999999999994  0.8773499999999999  1.0000
  H   H80       1.0  0.22366  0.1555  0.87784  1.0000
  H   H81       1.0  0.46977  0.74057  0.90862  1.0000
  H   H82       1.0  0.3702599999999999  0.7609999999999999  0.8631199999999998  1.0000
  H   H83       1.0  0.6298799999999998  0.13713  0.23887999999999995  1.0000
  H   H84       1.0  0.53046  0.09161  0.25947  1.0000
  H   H85       1.0  0.6057099999999997  0.85921  0.7908  1.0000
  H   H86       1.0  0.6178399999999998  0.9064800000000001  0.9066899999999998  1.0000
  H   H87       1.0  0.6057099999999996  0.79065  0.8589599999999997  1.0000
  H   H88       1.0  0.4558499999999999  0.67128  0.74007  1.0000
  H   H89       1.0  0.35967999999999994  0.70171  0.7018499999999998  1.0000
  H   H90       1.0  0.4559  0.73979  0.67144  1.0000
  H   H91       1.0  0.3939  0.02891999999999996  0.2883399999999999  1.0000
  H   H92       1.0  0.39975  0.92254  0.23282  1.0000
  H   H93       1.0  0.7672  0.07806  0.60069  1.0000
  H   H94       1.0  0.71201  0.97146  0.60635  1.0000
  H   H95       1.0  0.2938499999999999  0.7785300000000002  0.22391999999999995  1.0000
  H   H96       1.0  0.34311  0.80998  0.34397  1.0000
  H   H97       1.0  0.22336999999999996  0.77803  0.29173  1.0000
  H   H98       1.0  0.22786  0.9831300000000001  0.22695999999999997  1.0000
  H   H99       1.0  0.22411  0.87735  0.15518  1.0000
  H   H100      1.0  0.15552999999999995  0.8778399999999998  0.22367999999999993  1.0000
  H   H101      1.0  0.7405799999999999  0.9086100000000003  0.46976  1.0000
  H   H102      1.0  0.76098  0.86309  0.37023  1.0000
  H   H103      1.0  0.13717999999999997  0.23891  0.62989  1.0000
  H   H104      1.0  0.09163999999999997  0.25948  0.53044  1.0000
  H   H105      1.0  0.85923  0.79084  0.60576  1.0000
  H   H106      1.0  0.90646  0.9066900000000001  0.61779  1.0000
  H   H107      1.0  0.7906599999999998  0.85898  0.60572  1.0000
  H   H108      1.0  0.6712399999999997  0.74002  0.45583  1.0000
  H   H109      1.0  0.70169  0.7018299999999998  0.35967  1.0000
  H   H110      1.0  0.73973  0.6714  0.45588999999999996  1.0000
  H   H111      1.0  0.028929999999999973  0.28838  0.3939399999999999  1.0000
  H   H112      1.0  0.92254  0.23286  0.39977  1.0000
  H   H113      1.0  0.07803999999999997  0.60067  0.76721  1.0000
  H   H114      1.0  0.97144  0.6062900000000002  0.71198  1.0000
  H   H115      1.0  0.77855  0.22392  0.29384  1.0000
  H   H116      1.0  0.80997  0.34396  0.34312  1.0000
  H   H117      1.0  0.77805  0.29171  0.22334  1.0000
  H   H118      1.0  0.98313  0.22699  0.2279  1.0000
  H   H119      1.0  0.87734  0.15523  0.22416  1.0000
  H   H120      1.0  0.87783  0.22372000000000006  0.15555  1.0000
  C   C1        1.0  0.87581  0.47513  0.9715  1.0000
  C   C2        1.0  0.9612  0.48796  0.96119  1.0000
  C   C3        1.0  0.028390000000000054  0.52474  0.12416  1.0000
  C   C4        1.0  0.11103000000000006  0.5543800000000002  0.20815999999999998  1.0000
  C   C5        1.0  0.18688  0.5222800000000002  0.18698  1.0000
  C   C6        1.0  0.7918900000000001  0.4454700000000001  0.88879  1.0000
  C   C7        1.0  0.15538000000000002  0.4173400000000001  0.15542  1.0000
  C   C8        1.0  0.27345  0.56536  0.27361  1.0000
  C   C9        1.0  0.47273999999999994  0.37709  0.98186  1.0000
  C   C10       1.0  0.46210999999999997  0.46208  0.99251  1.0000
  C   C11       1.0  0.62282  0.52717  0.018049999999999993  1.0000
  C   C12       1.0  0.70539  0.60756  0.03719999999999998  1.0000
  C   C13       1.0  0.70039  0.7002  0.08718999999999998  1.0000
  C   C14       1.0  0.39222  0.2945000000000001  0.96253  1.0000
  C   C15       1.0  0.71072  0.71045  0.18617999999999998  1.0000
  C   C16       1.0  0.77818  0.7777400000000002  0.0869  1.0000
  C   C17       1.0  0.4751399999999999  0.9715300000000001  0.87579  1.0000
  C   C18       1.0  0.48800000000000004  0.9612500000000003  0.96125  1.0000
  C   C19       1.0  0.5247399999999999  0.12415000000000002  0.028399999999999998  1.0000
  C   C20       1.0  0.55437  0.20813000000000006  0.11099  1.0000
  C   C21       1.0  0.52227  0.18694  0.18684  1.0000
  C   C22       1.0  0.4455  0.88884  0.79191  1.0000
  C   C23       1.0  0.4173299999999999  0.15541  0.15536  1.0000
  C   C24       1.0  0.5653499999999999  0.2735700000000001  0.2734  1.0000
  C   C25       1.0  0.37712  0.9818499999999999  0.4726999999999999  1.0000
  C   C26       1.0  0.4620999999999999  0.99251  0.46208  1.0000
  C   C27       1.0  0.52713  0.018040000000000007  0.62285  1.0000
  C   C28       1.0  0.60753  0.037199999999999955  0.7054099999999999  1.0000
  C   C29       1.0  0.70018  0.0872  0.70041  1.0000
  C   C30       1.0  0.29453  0.9625300000000001  0.39219  1.0000
  C   C31       1.0  0.71045  0.18617999999999996  0.71072  1.0000
  C   C32       1.0  0.7777199999999999  0.08689999999999996  0.7781899999999998  1.0000
  C   C33       1.0  0.9715299999999998  0.8758100000000001  0.4751399999999999  1.0000
  C   C34       1.0  0.9612000000000003  0.9612100000000002  0.4879599999999999  1.0000
  C   C35       1.0  0.12414999999999998  0.028420000000000015  0.52475  1.0000
  C   C36       1.0  0.20814999999999986  0.1110399999999999  0.5543999999999998  1.0000
  C   C37       1.0  0.18697000000000003  0.18688000000000005  0.52228  1.0000
  C   C38       1.0  0.8887999999999998  0.7918900000000001  0.4454899999999999  1.0000
  C   C39       1.0  0.15542999999999996  0.15536999999999995  0.41732999999999987  1.0000
  C   C40       1.0  0.27361  0.27344  0.56536  1.0000
  C   C41       1.0  0.98184  0.4727199999999999  0.3770999999999999  1.0000
  C   C42       1.0  0.9925099999999999  0.46212  0.46211  1.0000
  C   C43       1.0  0.018050000000000063  0.6228300000000002  0.52714  1.0000
  C   C44       1.0  0.037190000000000056  0.7053700000000003  0.6075  1.0000
  C   C45       1.0  0.08718999999999995  0.70037  0.7001499999999998  1.0000
  C   C46       1.0  0.9625399999999997  0.39224  0.29453  1.0000
  C   C47       1.0  0.18616999999999984  0.7106999999999999  0.7104299999999998  1.0000
  C   C48       1.0  0.08690000000000006  0.7781500000000002  0.77768  1.0000
  C   C49       1.0  0.12418999999999998  0.52488  0.02849  1.0000
  C   C50       1.0  0.0388  0.51205  0.03881  1.0000
  C   C51       1.0  0.9716099999999999  0.47525999999999996  0.8758399999999997  1.0000
  C   C52       1.0  0.8889699999999999  0.44562  0.7918399999999998  1.0000
  C   C53       1.0  0.81313  0.4777200000000001  0.81302  1.0000
  C   C54       1.0  0.20810999999999996  0.5545399999999999  0.11120999999999998  1.0000
  C   C55       1.0  0.8446199999999998  0.58267  0.8445799999999998  1.0000
  C   C56       1.0  0.72656  0.4346400000000001  0.7263799999999999  1.0000
  C   C57       1.0  0.52727  0.62291  0.01814  1.0000
  C   C58       1.0  0.5378899999999998  0.53793  0.007489999999999998  1.0000
  C   C59       1.0  0.37718000000000007  0.4728300000000001  0.98195  1.0000
  C   C60       1.0  0.29461999999999977  0.39243999999999996  0.9627999999999998  1.0000
  C   C61       1.0  0.29961  0.2998  0.9128  1.0000
  C   C62       1.0  0.60779  0.70551  0.03746999999999999  1.0000
  C   C63       1.0  0.28929  0.28955  0.81382  1.0000
  C   C64       1.0  0.22181999999999996  0.22227000000000008  0.9131  1.0000
  C   C65       1.0  0.52486  0.02847  0.1242  1.0000
  C   C66       1.0  0.51201  0.03876  0.03874  1.0000
  C   C67       1.0  0.47526999999999997  0.87585  0.9715899999999997  1.0000
  C   C68       1.0  0.44563  0.7918800000000003  0.889  1.0000
  C   C69       1.0  0.47773999999999994  0.8130600000000001  0.8131499999999998  1.0000
  C   C70       1.0  0.5545  0.11116000000000001  0.20809  1.0000
  C   C71       1.0  0.58267  0.84459  0.84464  1.0000
  C   C72       1.0  0.43464999999999976  0.72643  0.7266  1.0000
  C   C73       1.0  0.6228899999999998  0.018150000000000013  0.5273  1.0000
  C   C74       1.0  0.5379  0.007490000000000001  0.53791  1.0000
  C   C75       1.0  0.47287000000000007  0.98196  0.37715  1.0000
  C   C76       1.0  0.39247  0.96281  0.29459  1.0000
  C   C77       1.0  0.29982999999999993  0.9128099999999999  0.29959  1.0000
  C   C78       1.0  0.70547  0.03747  0.60781  1.0000
  C   C79       1.0  0.28956000000000004  0.8138200000000002  0.2892799999999999  1.0000
  C   C80       1.0  0.2222799999999999  0.9131  0.22180999999999995  1.0000
  C   C81       1.0  0.028480000000000002  0.12419  0.52486  1.0000
  C   C82       1.0  0.038810000000000004  0.038799999999999994  0.51204  1.0000
  C   C83       1.0  0.87586  0.9715900000000001  0.4752499999999999  1.0000
  C   C84       1.0  0.7918599999999999  0.8889599999999999  0.44559999999999994  1.0000
  C   C85       1.0  0.8130299999999998  0.8131200000000002  0.47772  1.0000
  C   C86       1.0  0.11119999999999994  0.20811  0.55451  1.0000
  C   C87       1.0  0.84457  0.8446299999999999  0.5826599999999997  1.0000
  C   C88       1.0  0.72639  0.7265600000000002  0.4346399999999999  1.0000
  C   C89       1.0  0.018169999999999912  0.5272799999999999  0.6228999999999998  1.0000
  C   C90       1.0  0.007489999999999952  0.53788  0.53789  1.0000
  C   C91       1.0  0.9819599999999999  0.3771800000000001  0.47285  1.0000
  C   C92       1.0  0.96282  0.29463  0.39249  1.0000
  C   C93       1.0  0.91282  0.29963  0.2998399999999999  1.0000
  C   C94       1.0  0.03746999999999999  0.60777  0.70546  1.0000
  C   C95       1.0  0.8138299999999998  0.2893  0.28955999999999993  1.0000
  C   C96       1.0  0.91311  0.22184999999999996  0.22231  1.0000
  I   I1        1.0  0.73949  0.26063000000000003  5.999999999999999e-05  1.0000
  I   I2        1.0  0.7605  0.4998  0.23932  1.0000
  I   I3        1.0  0.2604599999999999  0.99988  0.73933  1.0000
  I   I4        1.0  0.49986  0.23924999999999993  0.76066  1.0000
  I   I5        1.0  0.9999499999999999  0.73931  0.26059  1.0000
  I   I6        1.0  0.23927999999999996  0.76059  0.49987  1.0000
  I   I7        1.0  0.26051  0.73937  0.99993  1.0000
  I   I8        1.0  0.2395  0.50021  0.76068  1.0000
  I   I9        1.0  0.7395399999999995  0.00012000000000000441  0.26067  1.0000
  I   I10       1.0  0.50014  0.76075  0.23934  1.0000
  I   I11       1.0  6.000000000001982e-05  0.26069  0.73941  1.0000
  I   I12       1.0  0.76073  0.23941000000000007  0.50012  1.0000
  N   N1        1.0  0.8693299999999998  0.48623  0.053499999999999985  1.0000
  N   N2        1.0  0.9463699999999997  0.51359  0.13057  1.0000
  N   N3        1.0  0.55369  0.36968999999999996  0.9878599999999997  1.0000
  N   N4        1.0  0.63021  0.44623  0.01212  1.0000
  N   N5        1.0  0.48622  0.05353999999999999  0.86932  1.0000
  N   N6        1.0  0.51362  0.13057999999999995  0.9463499999999998  1.0000
  N   N7        1.0  0.36969000000000013  0.9878000000000002  0.55364  1.0000
  N   N8        1.0  0.44618  0.01204999999999997  0.6301999999999999  1.0000
  N   N9        1.0  0.05352000000000009  0.8693500000000002  0.48626  1.0000
  N   N10       1.0  0.1305800000000001  0.9464000000000002  0.51361  1.0000
  N   N11       1.0  0.9877899999999998  0.5536800000000002  0.36967  1.0000
  N   N12       1.0  0.012080000000000006  0.6302  0.44617  1.0000
  N   N13       1.0  0.1306799999999999  0.51377  0.9465  1.0000
  N   N14       1.0  0.05363000000000001  0.48641999999999996  0.86943  1.0000
  N   N15       1.0  0.44631  0.63031  0.01214  1.0000
  N   N16       1.0  0.36979999999999985  0.5537699999999999  0.9878799999999998  1.0000
  N   N17       1.0  0.5137800000000001  0.9464600000000002  0.13068  1.0000
  N   N18       1.0  0.4863799999999999  0.86942  0.053639999999999986  1.0000
  N   N19       1.0  0.63032  0.012199999999999973  0.44634999999999997  1.0000
  N   N20       1.0  0.5538199999999998  0.98795  0.3698  1.0000
  N   N21       1.0  0.94649  0.13066000000000005  0.51374  1.0000
  N   N22       1.0  0.86943  0.05359999999999998  0.48639  1.0000
  N   N23       1.0  0.012210000000000023  0.44632  0.63032  1.0000
  N   N24       1.0  0.9879300000000001  0.36981000000000014  0.55382  1.0000
