data_image0
_chemical_formula_structural       Cd8H80C96N32O32
_chemical_formula_sum              "Cd8 H80 C96 N32 O32"
_cell_length_a       17.53577
_cell_length_b       17.69482
_cell_length_c       17.68816
_cell_angle_alpha    98.05306
_cell_angle_beta     115.63382999999999
_cell_angle_gamma    115.57331999999998

_symmetry_space_group_name_H-M    'P 1'
_symmetry_Int_Tables_number       1

loop_
  _symmetry_equiv_pos_as_xyz
  'x,y,z'

loop_
  _atom_site_type_symbol
  _atom_site_label
  _atom_site_symmetry_multiplicity
  _atom_site_fract_x
  _atom_site_fract_y
  _atom_site_fract_z
  _atom_site_occupancy
  Cd  Cd1       1.0  0.45523  0.40561999999999987  0.29214  1.0000
  Cd  Cd2       1.0  0.9555299999999994  0.16232999999999986  0.5505699999999998  1.0000
  Cd  Cd3       1.0  0.04446999999999988  0.8376699999999998  0.44943  1.0000
  Cd  Cd4       1.0  0.5447699999999999  0.5943799999999998  0.7078599999999999  1.0000
  Cd  Cd5       1.0  0.11253999999999986  0.9495899999999999  0.9052899999999998  1.0000
  Cd  Cd6       1.0  0.6131299999999998  0.20843000000000006  0.66252  1.0000
  Cd  Cd7       1.0  0.38687999999999984  0.7915699999999999  0.3374799999999999  1.0000
  Cd  Cd8       1.0  0.8874599999999998  0.05040999999999998  0.09470999999999997  1.0000
  H   H1        1.0  0.64958  0.60941  0.31385  1.0000
  H   H2        1.0  0.4430399999999998  0.5653799999999998  0.3909999999999999  1.0000
  H   H3        1.0  0.7612299999999996  0.80535  0.38554  1.0000
  H   H4        1.0  0.6879999999999998  0.8765999999999997  0.49081999999999987  1.0000
  H   H5        1.0  0.58608  0.30714999999999987  0.29826  1.0000
  H   H6        1.0  0.61921  0.4662  0.52526  1.0000
  H   H7        1.0  0.70313  0.24230999999999997  0.38744  1.0000
  H   H8        1.0  0.8199699999999998  0.33106999999999975  0.5982099999999998  1.0000
  H   H9        1.0  0.5538599999999997  0.7374699999999997  0.4422799999999999  1.0000
  H   H10       1.0  0.7091799999999998  0.3858099999999998  0.5847399999999999  1.0000
  H   H11       1.0  0.1500399999999998  0.33455999999999986  0.5407499999999997  1.0000
  H   H12       1.0  0.94303  0.051809999999999995  0.3775  1.0000
  H   H13       1.0  0.2605199999999998  0.37520999999999977  0.4552299999999999  1.0000
  H   H14       1.0  0.18775  0.19735  0.31074  1.0000
  H   H15       1.0  0.08567999999999996  0.28717  0.77858  1.0000
  H   H16       1.0  0.12043999999999999  0.09311999999999998  0.65516  1.0000
  H   H17       1.0  0.20418999999999982  0.3169599999999999  0.9611999999999998  1.0000
  H   H18       1.0  0.3203699999999999  0.22193999999999994  0.98951  1.0000
  H   H19       1.0  0.05382999999999998  0.11203999999999995  0.31577  1.0000
  H   H20       1.0  0.20959999999999993  0.12421999999999991  0.8252599999999999  1.0000
  H   H21       1.0  0.8499599999999998  0.6654399999999998  0.45925  1.0000
  H   H22       1.0  0.05696999999999988  0.9481899999999998  0.6225  1.0000
  H   H23       1.0  0.7394799999999999  0.62478  0.54477  1.0000
  H   H24       1.0  0.81225  0.8026499999999999  0.68926  1.0000
  H   H25       1.0  0.9143299999999999  0.7128299999999997  0.22142  1.0000
  H   H26       1.0  0.8795599999999999  0.90688  0.34484  1.0000
  H   H27       1.0  0.7958100000000001  0.68304  0.0388  1.0000
  H   H28       1.0  0.6796299999999998  0.7780599999999998  0.01049  1.0000
  H   H29       1.0  0.9461699999999997  0.8879499999999996  0.68423  1.0000
  H   H30       1.0  0.7903999999999998  0.8757799999999998  0.17473999999999995  1.0000
  H   H31       1.0  0.35042  0.3905899999999999  0.68615  1.0000
  H   H32       1.0  0.5569599999999998  0.43461999999999984  0.6089999999999998  1.0000
  H   H33       1.0  0.23877999999999985  0.19464999999999993  0.61446  1.0000
  H   H34       1.0  0.312  0.12339999999999994  0.50918  1.0000
  H   H35       1.0  0.4139199999999997  0.6928499999999996  0.7017399999999998  1.0000
  H   H36       1.0  0.3808  0.5338  0.4747399999999999  1.0000
  H   H37       1.0  0.29686999999999986  0.7576899999999996  0.61256  1.0000
  H   H38       1.0  0.18002999999999986  0.6689199999999997  0.40179  1.0000
  H   H39       1.0  0.4461399999999999  0.26253  0.55772  1.0000
  H   H40       1.0  0.29081999999999986  0.6141799999999997  0.4152599999999999  1.0000
  H   H41       1.0  0.2938499999999999  0.9590999999999997  0.10921  1.0000
  H   H42       1.0  0.17545  0.12279999999999998  0.06583999999999998  1.0000
  H   H43       1.0  0.41983999999999994  0.0445  0.30553  1.0000
  H   H44       1.0  0.38594  0.18869999999999998  0.37703  1.0000
  H   H45       1.0  0.009329999999999613  0.7222499999999995  0.8065199999999998  1.0000
  H   H46       1.0  0.9395799999999999  0.8450199999999998  0.96643  1.0000
  H   H47       1.0  0.85574  0.53945  0.742  1.0000
  H   H48       1.0  0.7336399999999998  0.5113799999999996  0.8311299999999998  1.0000
  H   H49       1.0  0.2963199999999999  0.18434999999999993  0.23778999999999995  1.0000
  H   H50       1.0  0.80021  0.6743199999999998  0.8856899999999998  1.0000
  H   H51       1.0  0.79521  0.18645  0.83456  1.0000
  H   H52       1.0  0.67598  0.10962999999999998  0.55236  1.0000
  H   H53       1.0  0.9195999999999998  0.1142399999999999  0.8749899999999998  1.0000
  H   H54       1.0  0.8856299999999999  0.008139999999999922  0.6973799999999998  1.0000
  H   H55       1.0  0.50808  0.20276999999999995  0.78685  1.0000
  H   H56       1.0  0.44084999999999974  0.9758499999999997  0.5934599999999998  1.0000
  H   H57       1.0  0.35556999999999983  0.1129199999999999  0.8163599999999998  1.0000
  H   H58       1.0  0.23313999999999968  0.9022999999999995  0.7220199999999998  1.0000
  H   H59       1.0  0.7961199999999999  0.057399999999999896  0.6121699999999998  1.0000
  H   H60       1.0  0.30102999999999985  0.9153099999999997  0.62463  1.0000
  H   H61       1.0  0.20479999999999995  0.8135499999999999  0.16543999999999998  1.0000
  H   H62       1.0  0.32401999999999986  0.8903699999999997  0.44763999999999987  1.0000
  H   H63       1.0  0.08041  0.88575  0.12501  1.0000
  H   H64       1.0  0.11436999999999992  0.9918599999999997  0.3026199999999999  1.0000
  H   H65       1.0  0.49193  0.79723  0.21314999999999995  1.0000
  H   H66       1.0  0.5591599999999997  0.02415  0.40654  1.0000
  H   H67       1.0  0.6444299999999997  0.8870799999999998  0.18363999999999994  1.0000
  H   H68       1.0  0.76687  0.09769999999999991  0.2779799999999999  1.0000
  H   H69       1.0  0.20387999999999976  0.9425999999999998  0.3878299999999999  1.0000
  H   H70       1.0  0.6989699999999998  0.08468999999999993  0.37536999999999987  1.0000
  H   H71       1.0  0.7061499999999999  0.04088999999999989  0.8907899999999997  1.0000
  H   H72       1.0  0.8245499999999999  0.8771999999999998  0.9341599999999999  1.0000
  H   H73       1.0  0.5801599999999998  0.9554999999999997  0.6944699999999998  1.0000
  H   H74       1.0  0.6140599999999999  0.8112999999999998  0.62298  1.0000
  H   H75       1.0  0.99067  0.2777499999999999  0.19348  1.0000
  H   H76       1.0  0.060419999999999974  0.15496999999999994  0.03357  1.0000
  H   H77       1.0  0.14425999999999992  0.4605499999999999  0.25799999999999995  1.0000
  H   H78       1.0  0.26636  0.48862  0.16887  1.0000
  H   H79       1.0  0.7036899999999999  0.8156499999999999  0.76221  1.0000
  H   H80       1.0  0.1997999999999999  0.3256799999999998  0.11430999999999997  1.0000
  C   C1        1.0  0.63507  0.70973  0.38832999999999995  1.0000
  C   C2        1.0  0.61249  0.6247099999999998  0.34326  1.0000
  C   C3        1.0  0.50502  0.59998  0.3827  1.0000
  C   C4        1.0  0.7135099999999999  0.8002699999999997  0.4111899999999999  1.0000
  C   C5        1.0  0.7328699999999998  0.8782299999999995  0.46286  1.0000
  C   C6        1.0  0.8151699999999998  0.9698899999999998  0.4856999999999999  1.0000
  C   C7        1.0  0.67193  0.33059999999999984  0.4457699999999999  1.0000
  C   C8        1.0  0.6108099999999996  0.3380299999999999  0.36866  1.0000
  C   C9        1.0  0.6251099999999999  0.42007999999999995  0.4839299999999999  1.0000
  C   C10       1.0  0.7226999999999999  0.2838299999999999  0.4526999999999999  1.0000
  C   C11       1.0  0.79413  0.28933  0.53029  1.0000
  C   C12       1.0  0.84571  0.24249999999999994  0.52764  1.0000
  C   C13       1.0  0.13483999999999988  0.24630999999999986  0.4250499999999999  1.0000
  C   C14       1.0  0.11253999999999986  0.26836999999999994  0.48798999999999987  1.0000
  C   C15       1.0  0.004980000000000012  0.12194999999999999  0.40492  1.0000
  C   C16       1.0  0.21313999999999994  0.30206  0.41277999999999987  1.0000
  C   C17       1.0  0.23246999999999987  0.26995999999999987  0.3539099999999999  1.0000
  C   C18       1.0  0.31443  0.32971  0.34418  1.0000
  C   C19       1.0  0.17191999999999985  0.22597999999999988  0.84203  1.0000
  C   C20       1.0  0.11069999999999974  0.24154999999999985  0.7730399999999997  1.0000
  C   C21       1.0  0.1256899999999998  0.14039999999999989  0.7065099999999997  1.0000
  C   C22       1.0  0.22319999999999993  0.2706199999999998  0.93933  1.0000
  C   C23       1.0  0.29487  0.26458  0.005149999999999998  1.0000
  C   C24       1.0  0.34682  0.31932  0.10321  1.0000
  C   C25       1.0  0.86516  0.7536899999999999  0.5749499999999999  1.0000
  C   C26       1.0  0.8874599999999998  0.7316300000000001  0.51201  1.0000
  C   C27       1.0  0.9950199999999996  0.8780499999999997  0.5950799999999998  1.0000
  C   C28       1.0  0.7868599999999996  0.6979399999999997  0.5872199999999997  1.0000
  C   C29       1.0  0.7675299999999999  0.7300399999999998  0.64609  1.0000
  C   C30       1.0  0.6855699999999998  0.6702799999999998  0.65582  1.0000
  C   C31       1.0  0.8280799999999998  0.7740099999999998  0.15797  1.0000
  C   C32       1.0  0.8893099999999999  0.7584499999999997  0.22695999999999994  1.0000
  C   C33       1.0  0.87431  0.8595999999999998  0.29349  1.0000
  C   C34       1.0  0.7767999999999998  0.7293799999999998  0.06066999999999999  1.0000
  C   C35       1.0  0.7051299999999998  0.7354199999999997  0.99485  1.0000
  C   C36       1.0  0.6531799999999996  0.6806699999999996  0.8967899999999998  1.0000
  C   C37       1.0  0.36494  0.29027  0.61167  1.0000
  C   C38       1.0  0.3875099999999999  0.3752899999999999  0.65674  1.0000
  C   C39       1.0  0.4949799999999998  0.4000199999999999  0.6173  1.0000
  C   C40       1.0  0.2864899999999999  0.19971999999999987  0.5888099999999997  1.0000
  C   C41       1.0  0.2671299999999998  0.12176999999999996  0.5371399999999998  1.0000
  C   C42       1.0  0.18483  0.030100000000000002  0.5143  1.0000
  C   C43       1.0  0.3280699999999998  0.6693999999999998  0.55423  1.0000
  C   C44       1.0  0.38918999999999987  0.66197  0.6313399999999998  1.0000
  C   C45       1.0  0.37490000000000007  0.57992  0.51607  1.0000
  C   C46       1.0  0.27731  0.71617  0.5473  1.0000
  C   C47       1.0  0.2058799999999998  0.7106599999999997  0.4697099999999999  1.0000
  C   C48       1.0  0.15429999999999994  0.7575  0.4723599999999999  1.0000
  C   C49       1.0  0.32154  0.0749  0.21003  1.0000
  C   C50       1.0  0.28081  0.012050000000000002  0.12479  1.0000
  C   C51       1.0  0.21795999999999993  0.09533999999999997  0.10033999999999997  1.0000
  C   C52       1.0  0.3891799999999998  0.08701999999999994  0.30053999999999986  1.0000
  C   C53       1.0  0.4154999999999999  0.14558999999999994  0.37853999999999993  1.0000
  C   C54       1.0  0.48417  0.15494999999999995  0.47013  1.0000
  C   C55       1.0  0.8850799999999998  0.6583499999999999  0.8303299999999999  1.0000
  C   C56       1.0  0.9695099999999999  0.7275499999999998  0.83764  1.0000
  C   C57       1.0  0.9353499999999997  0.7937299999999998  0.9201299999999998  1.0000
  C   C58       1.0  0.8318299999999996  0.5611599999999995  0.7835899999999998  1.0000
  C   C59       1.0  0.7598099999999998  0.4954599999999999  0.7892499999999998  1.0000
  C   C60       1.0  0.71578  0.39745999999999987  0.74238  1.0000
  C   C61       1.0  0.8215199999999998  0.11155000000000001  0.7464  1.0000
  C   C62       1.0  0.78147  0.15705999999999995  0.76848  1.0000
  C   C63       1.0  0.7182999999999999  0.11780999999999996  0.62237  1.0000
  C   C64       1.0  0.88892  0.08843999999999996  0.80195  1.0000
  C   C65       1.0  0.91517  0.036389999999999915  0.7698899999999997  1.0000
  C   C66       1.0  0.98389  0.013689999999999935  0.8296699999999998  1.0000
  C   C67       1.0  0.3847799999999998  0.054699999999999874  0.7261099999999998  1.0000
  C   C68       1.0  0.46892999999999985  0.1322499999999999  0.7415299999999998  1.0000
  C   C69       1.0  0.43601  0.01702000000000005  0.64077  1.0000
  C   C70       1.0  0.3315  0.04766999999999997  0.77038  1.0000
  C   C71       1.0  0.25952999999999987  0.9701999999999998  0.7643299999999998  1.0000
  C   C72       1.0  0.2158499999999997  0.9730199999999996  0.8189099999999998  1.0000
  C   C73       1.0  0.17847999999999992  0.8884499999999997  0.2536  1.0000
  C   C74       1.0  0.21852999999999986  0.8429299999999997  0.23152  1.0000
  C   C75       1.0  0.2817  0.88219  0.37763  1.0000
  C   C76       1.0  0.11108999999999981  0.9115599999999996  0.19805  1.0000
  C   C77       1.0  0.08482999999999992  0.9636099999999997  0.23010999999999995  1.0000
  C   C78       1.0  0.01610999999999993  0.9863099999999998  0.17032999999999995  1.0000
  C   C79       1.0  0.6152199999999998  0.9452899999999997  0.27389  1.0000
  C   C80       1.0  0.53107  0.86775  0.2584699999999999  1.0000
  C   C81       1.0  0.5639999999999997  0.9829699999999998  0.3592299999999999  1.0000
  C   C82       1.0  0.6684999999999998  0.9523299999999998  0.22962  1.0000
  C   C83       1.0  0.7404699999999997  0.029799999999999986  0.23566999999999996  1.0000
  C   C84       1.0  0.7841599999999999  0.026979999999999987  0.18109  1.0000
  C   C85       1.0  0.67846  0.9250999999999998  0.78997  1.0000
  C   C86       1.0  0.7191999999999997  0.9879499999999996  0.87521  1.0000
  C   C87       1.0  0.7820399999999996  0.9046599999999997  0.8996599999999998  1.0000
  C   C88       1.0  0.6108199999999999  0.9129799999999997  0.69946  1.0000
  C   C89       1.0  0.5845099999999999  0.8544099999999998  0.62146  1.0000
  C   C90       1.0  0.5158299999999999  0.8450499999999997  0.5298699999999998  1.0000
  C   C91       1.0  0.11491999999999988  0.34164999999999984  0.16966999999999993  1.0000
  C   C92       1.0  0.030499999999999975  0.27245  0.16235999999999995  1.0000
  C   C93       1.0  0.06464999999999996  0.20626999999999995  0.07986999999999997  1.0000
  C   C94       1.0  0.1681699999999999  0.4388299999999999  0.21641999999999997  1.0000
  C   C95       1.0  0.2401899999999999  0.5045399999999998  0.21075  1.0000
  C   C96       1.0  0.28422999999999976  0.6025399999999997  0.25762  1.0000
  N   N1        1.0  0.5653399999999997  0.69107  0.4124599999999999  1.0000
  N   N2        1.0  0.5319099999999999  0.5573499999999998  0.34067  1.0000
  N   N3        1.0  0.67958  0.38373  0.51797  1.0000
  N   N4        1.0  0.58298  0.3940299999999999  0.39328  1.0000
  N   N5        1.0  0.0651499999999999  0.15279999999999994  0.3737999999999999  1.0000
  N   N6        1.0  0.03202000000000001  0.1904  0.47483  1.0000
  N   N7        1.0  0.17989  0.1612199999999999  0.79731  1.0000
  N   N8        1.0  0.08327  0.18877000000000005  0.68968  1.0000
  N   N9        1.0  0.9348499999999998  0.8471999999999996  0.6262  1.0000
  N   N10       1.0  0.9679899999999998  0.8095999999999998  0.5251699999999999  1.0000
  N   N11       1.0  0.8201099999999999  0.8387699999999998  0.20268999999999998  1.0000
  N   N12       1.0  0.9167299999999998  0.8112299999999998  0.3103199999999999  1.0000
  N   N13       1.0  0.43465999999999977  0.3089299999999998  0.5875399999999997  1.0000
  N   N14       1.0  0.46809  0.44265  0.65933  1.0000
  N   N15       1.0  0.3204299999999998  0.6162699999999998  0.4820299999999999  1.0000
  N   N16       1.0  0.41702  0.6059699999999998  0.60672  1.0000
  N   N17       1.0  0.27954999999999997  0.1263199999999999  0.19155999999999998  1.0000
  N   N18       1.0  0.21644  0.02542999999999999  0.057469999999999986  1.0000
  N   N19       1.0  0.8654199999999999  0.7028199999999998  0.88374  1.0000
  N   N20       1.0  0.00029999999999984276  0.8108299999999998  0.89389  1.0000
  N   N21       1.0  0.7792999999999999  0.08746999999999995  0.65308  1.0000
  N   N22       1.0  0.7173099999999998  0.16012999999999994  0.6907199999999998  1.0000
  N   N23       1.0  0.36588999999999977  0.9825299999999998  0.6616899999999998  1.0000
  N   N24       1.0  0.5002799999999998  0.10791999999999986  0.6888899999999998  1.0000
  N   N25       1.0  0.22069999999999976  0.9125199999999996  0.3469199999999999  1.0000
  N   N26       1.0  0.28268999999999994  0.83987  0.30928  1.0000
  N   N27       1.0  0.63411  0.017469999999999975  0.33831  1.0000
  N   N28       1.0  0.4997199999999998  0.8920699999999998  0.3111099999999999  1.0000
  N   N29       1.0  0.7204499999999997  0.8736799999999997  0.8084399999999998  1.0000
  N   N30       1.0  0.7835599999999997  0.9745699999999997  0.9425299999999998  1.0000
  N   N31       1.0  0.13459  0.29718  0.11625999999999999  1.0000
  N   N32       1.0  0.9996999999999999  0.18917  0.10610999999999997  1.0000
  O   O1        1.0  0.9249399999999997  0.26518999999999976  0.6036299999999998  1.0000
  O   O2        1.0  0.81298  0.18243999999999994  0.45215  1.0000
  O   O3        1.0  0.83211  0.03762000000000001  0.54542  1.0000
  O   O4        1.0  0.86658  0.98376  0.45071  1.0000
  O   O5        1.0  0.42518999999999996  0.3212399999999999  0.15964  1.0000
  O   O6        1.0  0.31515  0.36368  0.13028  1.0000
  O   O7        1.0  0.33000999999999997  0.28738999999999987  0.29145  1.0000
  O   O8        1.0  0.36662999999999996  0.41580999999999985  0.38319  1.0000
  O   O9        1.0  0.5748099999999997  0.6787599999999997  0.8403599999999998  1.0000
  O   O10       1.0  0.6848599999999997  0.6363099999999996  0.8697199999999998  1.0000
  O   O11       1.0  0.6699999999999999  0.7126099999999997  0.70855  1.0000
  O   O12       1.0  0.6333699999999999  0.5841899999999999  0.6168099999999997  1.0000
  O   O13       1.0  0.07505999999999985  0.7348099999999996  0.3963699999999999  1.0000
  O   O14       1.0  0.1870199999999999  0.8175499999999998  0.54785  1.0000
  O   O15       1.0  0.1678999999999998  0.9623699999999996  0.4545799999999999  1.0000
  O   O16       1.0  0.13341999999999987  0.0162299999999999  0.5492899999999997  1.0000
  O   O17       1.0  0.66307  0.3415  0.76541  1.0000
  O   O18       1.0  0.7306699999999999  0.3699299999999998  0.6819299999999998  1.0000
  O   O19       1.0  0.4921999999999999  0.2058899999999999  0.5377699999999999  1.0000
  O   O20       1.0  0.5328999999999999  0.11729999999999993  0.48393999999999987  1.0000
  O   O21       1.0  0.16319000000000003  0.89734  0.8222  1.0000
  O   O22       1.0  0.23082000000000003  0.04818999999999997  0.86165  1.0000
  O   O23       1.0  0.9917099999999995  0.9534899999999996  0.7872699999999998  1.0000
  O   O24       1.0  0.032789999999999854  0.04935999999999992  0.9158399999999998  1.0000
  O   O25       1.0  0.8368099999999999  0.10264999999999995  0.17779999999999996  1.0000
  O   O26       1.0  0.7691799999999999  0.9518099999999998  0.13835999999999996  1.0000
  O   O27       1.0  0.00829  0.046499999999999986  0.21273  1.0000
  O   O28       1.0  0.96722  0.9506399999999998  0.08416  1.0000
  O   O29       1.0  0.3369299999999998  0.6584999999999995  0.23459  1.0000
  O   O30       1.0  0.26932999999999996  0.63007  0.3180699999999999  1.0000
  O   O31       1.0  0.5078  0.79411  0.46223  1.0000
  O   O32       1.0  0.4671  0.8826999999999998  0.51606  1.0000
