data_image0
_chemical_formula_structural       Zn8P8H88C104N16O32
_chemical_formula_sum              "Zn8 P8 H88 C104 N16 O32"
_cell_length_a       9.15847
_cell_length_b       16.56489
_cell_length_c       25.38428
_cell_angle_alpha    90.0
_cell_angle_beta     90.0
_cell_angle_gamma    89.81043000000001

_space_group_name_H-M_alt    "P 1"
_space_group_IT_number       1

loop_
  _space_group_symop_operation_xyz
  'x, y, z'

loop_
  _atom_site_type_symbol
  _atom_site_label
  _atom_site_symmetry_multiplicity
  _atom_site_fract_x
  _atom_site_fract_y
  _atom_site_fract_z
  _atom_site_occupancy
  Zn  Zn1       1.0  0.19431  0.20054  0.24988  1.0000
  Zn  Zn2       1.0  0.80569  0.7994699999999998  0.24988  1.0000
  Zn  Zn3       1.0  0.30216  0.70072  0.25014  1.0000
  Zn  Zn4       1.0  0.69783  0.29928  0.25014  1.0000
  Zn  Zn5       1.0  0.80569  0.7994699999999998  0.7501199999999999  1.0000
  Zn  Zn6       1.0  0.19431  0.20054  0.7501199999999999  1.0000
  Zn  Zn7       1.0  0.69784  0.29929  0.74986  1.0000
  Zn  Zn8       1.0  0.30216  0.70072  0.74986  1.0000
  P   P1        1.0  0.84955  0.13793  0.24336999999999998  1.0000
  P   P2        1.0  0.15044  0.86207  0.24336999999999998  1.0000
  P   P3        1.0  0.64909  0.63869  0.25645  1.0000
  P   P4        1.0  0.35091  0.3613099999999999  0.25645  1.0000
  P   P5        1.0  0.15044  0.86207  0.75663  1.0000
  P   P6        1.0  0.84955  0.13793  0.75663  1.0000
  P   P7        1.0  0.35091  0.3613099999999999  0.7435499999999999  1.0000
  P   P8        1.0  0.64909  0.63869  0.7435499999999999  1.0000
  H   H1        1.0  0.14268  0.06126  0.4269399999999999  1.0000
  H   H2        1.0  0.5828  0.0774  0.3654199999999999  1.0000
  H   H3        1.0  0.48169  0.14809  0.28824  1.0000
  H   H4        1.0  0.05837  0.1322  0.34733  1.0000
  H   H5        1.0  0.21832000000000001  0.03859  0.20724  1.0000
  H   H6        1.0  0.34245  0.96971  0.13475  1.0000
  H   H7        1.0  0.45013  0.20565  0.07178  1.0000
  H   H8        1.0  0.32645  0.26521  0.14831  1.0000
  H   H9        1.0  0.7546  0.04598  0.29409  1.0000
  H   H10       1.0  0.9447  0.12604  0.16512  1.0000
  H   H11       1.0  0.85732  0.93874  0.4269399999999999  1.0000
  H   H12       1.0  0.41719000000000006  0.9226  0.3654199999999999  1.0000
  H   H13       1.0  0.51831  0.8519099999999997  0.28824  1.0000
  H   H14       1.0  0.94162  0.8678  0.34733  1.0000
  H   H15       1.0  0.78168  0.96141  0.20724  1.0000
  H   H16       1.0  0.65755  0.030290000000000004  0.13475  1.0000
  H   H17       1.0  0.54987  0.79435  0.07178  1.0000
  H   H18       1.0  0.67354  0.73479  0.14831  1.0000
  H   H19       1.0  0.24539000000000002  0.95402  0.29409  1.0000
  H   H20       1.0  0.05537  0.87393  0.16509999999999997  1.0000
  H   H21       1.0  0.35513  0.56225  0.0737  1.0000
  H   H22       1.0  0.91333  0.57826  0.13401  1.0000
  H   H23       1.0  0.01182  0.65011  0.21108  1.0000
  H   H24       1.0  0.43660000000000004  0.6340999999999998  0.15325  1.0000
  H   H25       1.0  0.282  0.53848  0.2926  1.0000
  H   H26       1.0  0.15845000000000004  0.46936  0.36494  1.0000
  H   H27       1.0  0.04782  0.70509  0.4282399999999999  1.0000
  H   H28       1.0  0.17229  0.7650599999999997  0.35211  1.0000
  H   H29       1.0  0.7499500000000002  0.54611  0.20781  1.0000
  H   H30       1.0  0.53634  0.61964  0.33065  1.0000
  H   H31       1.0  0.64486  0.43775  0.0737  1.0000
  H   H32       1.0  0.08667  0.42174  0.13401  1.0000
  H   H33       1.0  0.98817  0.34989  0.21108  1.0000
  H   H34       1.0  0.5634  0.36591  0.15325  1.0000
  H   H35       1.0  0.718  0.46151  0.2926  1.0000
  H   H36       1.0  0.84156  0.53064  0.36494  1.0000
  H   H37       1.0  0.9521800000000001  0.29491  0.4282399999999999  1.0000
  H   H38       1.0  0.82771  0.23494  0.35211  1.0000
  H   H39       1.0  0.25006  0.45388  0.20779999999999998  1.0000
  H   H40       1.0  0.4636700000000001  0.38037  0.33065  1.0000
  H   H41       1.0  0.85732  0.93874  0.57306  1.0000
  H   H42       1.0  0.41719000000000006  0.92261  0.63458  1.0000
  H   H43       1.0  0.51831  0.8519099999999997  0.71176  1.0000
  H   H44       1.0  0.94163  0.8678  0.65267  1.0000
  H   H45       1.0  0.78168  0.96141  0.79276  1.0000
  H   H46       1.0  0.65755  0.0303  0.86525  1.0000
  H   H47       1.0  0.54987  0.79436  0.9282199999999999  1.0000
  H   H48       1.0  0.67355  0.73479  0.8516899999999998  1.0000
  H   H49       1.0  0.2454  0.95402  0.70591  1.0000
  H   H50       1.0  0.05530000000000001  0.8739699999999999  0.8348799999999998  1.0000
  H   H51       1.0  0.14268  0.06126  0.57306  1.0000
  H   H52       1.0  0.5828  0.0774  0.63458  1.0000
  H   H53       1.0  0.48169  0.14809  0.71176  1.0000
  H   H54       1.0  0.05837  0.1322  0.65267  1.0000
  H   H55       1.0  0.21832000000000001  0.03859  0.79276  1.0000
  H   H56       1.0  0.3424400000000001  0.96971  0.86525  1.0000
  H   H57       1.0  0.45013  0.20565  0.9282199999999999  1.0000
  H   H58       1.0  0.32646000000000003  0.26522  0.8516899999999998  1.0000
  H   H59       1.0  0.7546  0.04598  0.70591  1.0000
  H   H60       1.0  0.9446200000000001  0.12607  0.8349  1.0000
  H   H61       1.0  0.64487  0.43775  0.9263  1.0000
  H   H62       1.0  0.08667  0.42174  0.86599  1.0000
  H   H63       1.0  0.98817  0.3499  0.78892  1.0000
  H   H64       1.0  0.5634  0.36589999999999995  0.84675  1.0000
  H   H65       1.0  0.718  0.4615199999999999  0.7074  1.0000
  H   H66       1.0  0.84155  0.53064  0.6350599999999997  1.0000
  H   H67       1.0  0.9521800000000001  0.29491  0.57176  1.0000
  H   H68       1.0  0.82771  0.23494  0.64789  1.0000
  H   H69       1.0  0.25005  0.45389  0.7921899999999998  1.0000
  H   H70       1.0  0.46366  0.38036  0.66935  1.0000
  H   H71       1.0  0.35513  0.56225  0.9263  1.0000
  H   H72       1.0  0.91333  0.57826  0.86599  1.0000
  H   H73       1.0  0.01183  0.65011  0.78892  1.0000
  H   H74       1.0  0.43660000000000004  0.6340999999999998  0.84675  1.0000
  H   H75       1.0  0.28199  0.5384899999999998  0.7074  1.0000
  H   H76       1.0  0.15844  0.46937  0.6350599999999997  1.0000
  H   H77       1.0  0.04782  0.70509  0.57176  1.0000
  H   H78       1.0  0.17228000000000002  0.76507  0.64789  1.0000
  H   H79       1.0  0.74994  0.54612  0.7922  1.0000
  H   H80       1.0  0.53633  0.61963  0.66935  1.0000
  H   H81       1.0  0.2673400000000001  0.07581999999999997  0.5  1.0000
  H   H82       1.0  0.73265  0.92418  0.5  1.0000
  H   H83       1.0  0.23047  0.57712  0.0  1.0000
  H   H84       1.0  0.76953  0.42287999999999987  0.0  1.0000
  H   H85       1.0  0.40771  0.13998  0.0  1.0000
  H   H86       1.0  0.59229  0.86002  0.0  1.0000
  H   H87       1.0  0.09399  0.6392499999999998  0.5  1.0000
  H   H88       1.0  0.9060100000000001  0.36076  0.5  1.0000
  C   C1        1.0  0.17382  0.11995  0.35346  1.0000
  C   C2        1.0  0.22268  0.08037  0.3978499999999999  1.0000
  C   C3        1.0  0.37362  0.061799999999999994  0.40496  1.0000
  C   C4        1.0  0.46566  0.08717999999999997  0.36274  1.0000
  C   C5        1.0  0.41032  0.12746  0.31972  1.0000
  C   C6        1.0  0.43043  0.02203  0.45118  1.0000
  C   C7        1.0  0.2742800000000001  0.07336  0.17712  1.0000
  C   C8        1.0  0.3442  0.035209999999999984  0.13609  1.0000
  C   C9        1.0  0.40984  0.08024  0.09453999999999997  1.0000
  C   C10       1.0  0.39969000000000005  0.16583  0.10054  1.0000
  C   C11       1.0  0.33104  0.20007999999999995  0.14332  1.0000
  C   C12       1.0  0.47335999999999995  0.04181  0.04893  1.0000
  C   C13       1.0  0.82617  0.88005  0.35346  1.0000
  C   C14       1.0  0.7773100000000002  0.91964  0.3978499999999999  1.0000
  C   C15       1.0  0.62638  0.9382  0.40496  1.0000
  C   C16       1.0  0.53433  0.91282  0.36274  1.0000
  C   C17       1.0  0.58967  0.8725399999999998  0.31972  1.0000
  C   C18       1.0  0.56956  0.97798  0.45118  1.0000
  C   C19       1.0  0.72571  0.92663  0.17712  1.0000
  C   C20       1.0  0.6558  0.96478  0.13609  1.0000
  C   C21       1.0  0.59016  0.91976  0.09453999999999997  1.0000
  C   C22       1.0  0.6003  0.83417  0.10054  1.0000
  C   C23       1.0  0.66895  0.79992  0.14333  1.0000
  C   C24       1.0  0.5266400000000001  0.9581799999999998  0.04893  1.0000
  C   C25       1.0  0.32151  0.62166  0.14678  1.0000
  C   C26       1.0  0.27417  0.58164  0.10243999999999999  1.0000
  C   C27       1.0  0.12373000000000002  0.56274  0.09504999999999998  1.0000
  C   C28       1.0  0.0303  0.5883  0.13693  1.0000
  C   C29       1.0  0.08414  0.6291899999999998  0.1799  1.0000
  C   C30       1.0  0.06877  0.52248  0.04879999999999999  1.0000
  C   C31       1.0  0.22612  0.57319  0.32291  1.0000
  C   C32       1.0  0.15631  0.53489  0.3638  1.0000
  C   C33       1.0  0.09027  0.57985  0.4054099999999999  1.0000
  C   C34       1.0  0.09944  0.66546  0.39953999999999995  1.0000
  C   C35       1.0  0.16828  0.69989  0.35696  1.0000
  C   C36       1.0  0.02705000000000001  0.5416  0.45106  1.0000
  C   C37       1.0  0.6784900000000001  0.37834  0.14678  1.0000
  C   C38       1.0  0.72583  0.41836  0.10243999999999999  1.0000
  C   C39       1.0  0.87626  0.43726  0.09504999999999998  1.0000
  C   C40       1.0  0.9696900000000002  0.4117  0.13693  1.0000
  C   C41       1.0  0.91586  0.3708  0.1799  1.0000
  C   C42       1.0  0.93123  0.47752  0.04879999999999999  1.0000
  C   C43       1.0  0.77388  0.42681  0.32291  1.0000
  C   C44       1.0  0.84369  0.4651099999999999  0.3638  1.0000
  C   C45       1.0  0.90973  0.42015  0.4054099999999999  1.0000
  C   C46       1.0  0.9005600000000001  0.33454  0.39953999999999995  1.0000
  C   C47       1.0  0.83171  0.30011  0.35696  1.0000
  C   C48       1.0  0.9729399999999999  0.45841  0.45106  1.0000
  C   C49       1.0  0.82617  0.88005  0.64654  1.0000
  C   C50       1.0  0.7773100000000002  0.91964  0.60215  1.0000
  C   C51       1.0  0.62638  0.9382  0.59504  1.0000
  C   C52       1.0  0.53434  0.91282  0.63726  1.0000
  C   C53       1.0  0.58968  0.8725399999999998  0.68028  1.0000
  C   C54       1.0  0.56956  0.97798  0.54882  1.0000
  C   C55       1.0  0.72571  0.92664  0.82288  1.0000
  C   C56       1.0  0.6558  0.9647899999999998  0.8638999999999999  1.0000
  C   C57       1.0  0.59016  0.9197699999999998  0.90546  1.0000
  C   C58       1.0  0.6003  0.83418  0.89946  1.0000
  C   C59       1.0  0.66896  0.7999299999999998  0.85667  1.0000
  C   C60       1.0  0.5266400000000001  0.95819  0.9510699999999997  1.0000
  C   C61       1.0  0.17383000000000004  0.11995  0.64654  1.0000
  C   C62       1.0  0.22268  0.08037  0.60215  1.0000
  C   C63       1.0  0.37362  0.061799999999999994  0.59504  1.0000
  C   C64       1.0  0.46566  0.08717999999999997  0.63726  1.0000
  C   C65       1.0  0.41032  0.12746  0.68028  1.0000
  C   C66       1.0  0.43043  0.02202  0.54882  1.0000
  C   C67       1.0  0.2742800000000001  0.07336999999999998  0.82288  1.0000
  C   C68       1.0  0.3442  0.03522  0.8639099999999998  1.0000
  C   C69       1.0  0.40984  0.08024  0.90546  1.0000
  C   C70       1.0  0.3997  0.16583  0.89946  1.0000
  C   C71       1.0  0.33105  0.20007999999999995  0.85667  1.0000
  C   C72       1.0  0.47335999999999995  0.04181999999999999  0.9510699999999997  1.0000
  C   C73       1.0  0.6784900000000001  0.3783499999999999  0.8532099999999999  1.0000
  C   C74       1.0  0.72583  0.41836  0.8975599999999998  1.0000
  C   C75       1.0  0.87627  0.4372699999999999  0.9049499999999998  1.0000
  C   C76       1.0  0.9696900000000002  0.4117  0.86307  1.0000
  C   C77       1.0  0.91586  0.37081  0.8200999999999998  1.0000
  C   C78       1.0  0.93123  0.47752  0.9512  1.0000
  C   C79       1.0  0.77388  0.42681999999999987  0.6770899999999997  1.0000
  C   C80       1.0  0.84369  0.46512  0.6362  1.0000
  C   C81       1.0  0.9097199999999999  0.42015  0.59459  1.0000
  C   C82       1.0  0.9005600000000001  0.33454  0.60046  1.0000
  C   C83       1.0  0.83171  0.30011  0.64304  1.0000
  C   C84       1.0  0.9729399999999999  0.45841  0.54894  1.0000
  C   C85       1.0  0.32151  0.62166  0.8532099999999999  1.0000
  C   C86       1.0  0.27417  0.58164  0.8975599999999998  1.0000
  C   C87       1.0  0.12373000000000002  0.56274  0.9049499999999998  1.0000
  C   C88       1.0  0.0303  0.5883  0.86307  1.0000
  C   C89       1.0  0.08414  0.6292  0.8200999999999998  1.0000
  C   C90       1.0  0.06877  0.52248  0.9512  1.0000
  C   C91       1.0  0.22611  0.57319  0.6770899999999997  1.0000
  C   C92       1.0  0.15631  0.53489  0.6362  1.0000
  C   C93       1.0  0.09027  0.57985  0.59459  1.0000
  C   C94       1.0  0.09944  0.66546  0.60046  1.0000
  C   C95       1.0  0.16828  0.6998999999999999  0.64304  1.0000
  C   C96       1.0  0.02705000000000001  0.5416  0.54894  1.0000
  C   C97       1.0  0.36477  0.03799  0.5  1.0000
  C   C98       1.0  0.63523  0.96201  0.5  1.0000
  C   C99       1.0  0.13412  0.5388  0.0  1.0000
  C   C100      1.0  0.86587  0.4612  0.0  1.0000
  C   C101      1.0  0.45727  0.0802  0.0  1.0000
  C   C102      1.0  0.5427300000000002  0.9197999999999997  0.0  1.0000
  C   C103      1.0  0.04368  0.5798399999999998  0.5  1.0000
  C   C104      1.0  0.9563200000000001  0.42016  0.5  1.0000
  N   N1        1.0  0.265  0.14442999999999995  0.3139  1.0000
  N   N2        1.0  0.2663400000000001  0.15562  0.18231  1.0000
  N   N3        1.0  0.73499  0.85557  0.3139  1.0000
  N   N4        1.0  0.73365  0.84438  0.18231  1.0000
  N   N5        1.0  0.22916  0.6463999999999999  0.18599  1.0000
  N   N6        1.0  0.23383  0.6555  0.31797  1.0000
  N   N7        1.0  0.77084  0.3535999999999999  0.18599  1.0000
  N   N8        1.0  0.76617  0.3445  0.31797  1.0000
  N   N9        1.0  0.735  0.85557  0.6861  1.0000
  N   N10       1.0  0.73366  0.84439  0.81768  1.0000
  N   N11       1.0  0.265  0.14442999999999995  0.6861  1.0000
  N   N12       1.0  0.2663400000000001  0.15562  0.81768  1.0000
  N   N13       1.0  0.77084  0.3535999999999999  0.81401  1.0000
  N   N14       1.0  0.76616  0.3445  0.68203  1.0000
  N   N15       1.0  0.22916  0.64641  0.81401  1.0000
  N   N16       1.0  0.23383  0.65551  0.68203  1.0000
  O   O1        1.0  0.97808  0.19093  0.25665  1.0000
  O   O2        1.0  0.85119  0.05891  0.28035  1.0000
  O   O3        1.0  0.86773  0.09981  0.18528999999999995  1.0000
  O   O4        1.0  0.70137  0.17857  0.24868  1.0000
  O   O5        1.0  0.02192  0.80907  0.25665  1.0000
  O   O6        1.0  0.14881  0.94109  0.28034  1.0000
  O   O7        1.0  0.13227  0.90019  0.18528999999999995  1.0000
  O   O8        1.0  0.29863  0.82143  0.24868  1.0000
  O   O9        1.0  0.5188000000000001  0.69031  0.24241999999999997  1.0000
  O   O10       1.0  0.65141  0.5591799999999998  0.21961999999999995  1.0000
  O   O11       1.0  0.62956  0.60339  0.3152  1.0000
  O   O12       1.0  0.79754  0.67873  0.25149  1.0000
  O   O13       1.0  0.4812  0.30968  0.24241999999999997  1.0000
  O   O14       1.0  0.34859  0.44082  0.21961999999999995  1.0000
  O   O15       1.0  0.37044  0.39662  0.3152  1.0000
  O   O16       1.0  0.20245999999999997  0.32127  0.25149  1.0000
  O   O17       1.0  0.02192  0.80907  0.7433499999999998  1.0000
  O   O18       1.0  0.1488  0.94109  0.7196499999999999  1.0000
  O   O19       1.0  0.13227  0.90019  0.81471  1.0000
  O   O20       1.0  0.29863  0.8214399999999998  0.7513199999999999  1.0000
  O   O21       1.0  0.97808  0.19093999999999997  0.7433499999999998  1.0000
  O   O22       1.0  0.85119  0.05891  0.7196499999999999  1.0000
  O   O23       1.0  0.86773  0.09981  0.81471  1.0000
  O   O24       1.0  0.70137  0.17857  0.7513199999999999  1.0000
  O   O25       1.0  0.4812  0.30969  0.75758  1.0000
  O   O26       1.0  0.34859  0.44082  0.7803799999999999  1.0000
  O   O27       1.0  0.37044  0.39662  0.6848  1.0000
  O   O28       1.0  0.20246  0.32128  0.7485099999999999  1.0000
  O   O29       1.0  0.5188000000000001  0.69032  0.75758  1.0000
  O   O30       1.0  0.6514  0.5591799999999998  0.7803799999999999  1.0000
  O   O31       1.0  0.62956  0.60339  0.6848  1.0000
  O   O32       1.0  0.79754  0.67873  0.7485099999999999  1.0000
