data_image0
_chemical_formula_structural       Zn6H100C108N24O24
_chemical_formula_sum              "Zn6 H100 C108 N24 O24"
_cell_length_a       15.46115
_cell_length_b       15.45508
_cell_length_c       16.75423
_cell_angle_alpha    101.58916000000002
_cell_angle_beta     110.4535
_cell_angle_gamma    113.96842999999998

_symmetry_space_group_name_H-M    'P 1'
_symmetry_Int_Tables_number       1

loop_
  _symmetry_equiv_pos_as_xyz
  'x,y,z'

loop_
  _atom_site_type_symbol
  _atom_site_label
  _atom_site_symmetry_multiplicity
  _atom_site_fract_x
  _atom_site_fract_y
  _atom_site_fract_z
  _atom_site_occupancy
  Zn  Zn1       1.0  0.03875999999999999  0.28151  0.29446  1.0000
  Zn  Zn2       1.0  0.48851000000000006  0.7445700000000001  0.20482  1.0000
  Zn  Zn3       1.0  0.96124  0.71849  0.70554  1.0000
  Zn  Zn4       1.0  0.51149  0.25543  0.79518  1.0000
  Zn  Zn5       1.0  0.28627  0.03653000000000001  0.2504  1.0000
  Zn  Zn6       1.0  0.7137399999999998  0.96347  0.74959  1.0000
  H   H1        1.0  0.11119000000000001  0.08217999999999999  0.93187  1.0000
  H   H2        1.0  0.41887  0.39735  0.25385  1.0000
  H   H3        1.0  0.39998  0.10867000000000003  0.46263  1.0000
  H   H4        1.0  0.60095  0.4983  0.55883  1.0000
  H   H5        1.0  0.52997  0.53936  0.60316  1.0000
  H   H6        1.0  0.44313  0.3202  0.46711  1.0000
  H   H7        1.0  0.4767  0.36019  0.5872  1.0000
  H   H8        1.0  0.08298  0.03185  0.28853  1.0000
  H   H9        1.0  0.2702699999999999  0.29118  0.34952  1.0000
  H   H10       1.0  0.003849999999999979  0.92827  0.42486  1.0000
  H   H11       1.0  0.10539  0.9992  0.54237  1.0000
  H   H12       1.0  0.93949  0.42869000000000007  0.30878  1.0000
  H   H13       1.0  0.35068  0.40904000000000007  0.63141  1.0000
  H   H14       1.0  0.14128  0.36673  0.51835  1.0000
  H   H15       1.0  0.03317999999999999  0.09484999999999996  0.4064  1.0000
  H   H16       1.0  0.1343  0.16539  0.52439  1.0000
  H   H17       1.0  0.19196  0.64907  0.28043  1.0000
  H   H18       1.0  0.19355  0.46705  0.25037  1.0000
  H   H19       1.0  0.31041  0.14846999999999996  0.57323  1.0000
  H   H20       1.0  0.06121000000000003  0.2525700000000001  0.98359  1.0000
  H   H21       1.0  0.20416  0.43794  0.04192  1.0000
  H   H22       1.0  0.8724500000000001  0.55403  0.19351000000000004  1.0000
  H   H23       1.0  0.9777199999999999  0.6580699999999999  0.19345  1.0000
  H   H24       1.0  0.98877  0.61854  0.36879  1.0000
  H   H25       1.0  0.09627999999999994  0.71302  0.36294  1.0000
  H   H26       1.0  0.65082  0.17958  0.56742  1.0000
  H   H27       1.0  0.64196  0.16544  0.24726000000000004  1.0000
  H   H28       1.0  0.14748  0.93894  0.03823  1.0000
  H   H29       1.0  0.43955  0.04184000000000002  0.94096  1.0000
  H   H30       1.0  0.43504000000000004  0.9256900000000001  0.8969100000000001  1.0000
  H   H31       1.0  0.35512  0.97756  0.03447  1.0000
  H   H32       1.0  0.27295  0.89082  0.91431  1.0000
  H   H33       1.0  0.23997  0.7944200000000001  0.21226  1.0000
  H   H34       1.0  0.44286  0.92166  0.15091000000000002  1.0000
  H   H35       1.0  0.0026900000000000426  0.5787500000000001  0.07475  1.0000
  H   H36       1.0  0.9567699999999998  0.56282  0.95741  1.0000
  H   H37       1.0  0.62201  0.63146  0.19183  1.0000
  H   H38       1.0  0.27723  0.71941  0.8688300000000001  1.0000
  H   H39       1.0  0.3497700000000001  0.62341  0.9811200000000002  1.0000
  H   H40       1.0  0.18848000000000004  0.62821  0.0954  1.0000
  H   H41       1.0  0.1422  0.61068  0.97748  1.0000
  H   H42       1.0  0.86933  0.91208  0.2182  1.0000
  H   H43       1.0  0.71761  0.94387  0.24812  1.0000
  H   H44       1.0  0.07779999999999998  0.73888  0.92741  1.0000
  H   H45       1.0  0.76933  0.07765999999999998  0.51645  1.0000
  H   H46       1.0  0.8953899999999998  0.16187  0.45743  1.0000
  H   H47       1.0  0.8618799999999999  0.67984  0.30668  1.0000
  H   H48       1.0  0.9665000000000001  0.7844400000000001  0.30649  1.0000
  H   H49       1.0  0.75069  0.6201  0.13114  1.0000
  H   H50       1.0  0.85137  0.73322  0.13717  1.0000
  H   H51       1.0  0.8888199999999998  0.9178100000000001  0.06813  1.0000
  H   H52       1.0  0.58113  0.60264  0.74614  1.0000
  H   H53       1.0  0.60002  0.8913200000000001  0.53737  1.0000
  H   H54       1.0  0.3990500000000001  0.5016900000000002  0.44116000000000005  1.0000
  H   H55       1.0  0.4700299999999999  0.46063  0.39684  1.0000
  H   H56       1.0  0.55687  0.6798  0.53288  1.0000
  H   H57       1.0  0.5233  0.63981  0.4128  1.0000
  H   H58       1.0  0.9170200000000001  0.96815  0.71147  1.0000
  H   H59       1.0  0.72973  0.70881  0.65048  1.0000
  H   H60       1.0  0.99615  0.07172999999999999  0.57513  1.0000
  H   H61       1.0  0.8946100000000001  0.0007900000000000235  0.4576300000000001  1.0000
  H   H62       1.0  0.06051999999999999  0.57131  0.69121  1.0000
  H   H63       1.0  0.64932  0.59096  0.36858  1.0000
  H   H64       1.0  0.8587200000000001  0.63326  0.48165  1.0000
  H   H65       1.0  0.96682  0.9051400000000001  0.5936000000000001  1.0000
  H   H66       1.0  0.8657000000000001  0.83461  0.47561  1.0000
  H   H67       1.0  0.8080500000000002  0.35092000000000007  0.71956  1.0000
  H   H68       1.0  0.80645  0.53294  0.74963  1.0000
  H   H69       1.0  0.6895899999999998  0.8515200000000002  0.42677  1.0000
  H   H70       1.0  0.93879  0.74742  0.01641  1.0000
  H   H71       1.0  0.79584  0.56206  0.95807  1.0000
  H   H72       1.0  0.12755000000000002  0.44596  0.80648  1.0000
  H   H73       1.0  0.022280000000000102  0.34193  0.80654  1.0000
  H   H74       1.0  0.011229999999999997  0.38145  0.63121  1.0000
  H   H75       1.0  0.9037199999999997  0.28698  0.63705  1.0000
  H   H76       1.0  0.34918  0.82042  0.43257  1.0000
  H   H77       1.0  0.35804999999999987  0.83456  0.75274  1.0000
  H   H78       1.0  0.8525199999999997  0.061059999999999996  0.96176  1.0000
  H   H79       1.0  0.56046  0.95816  0.05903  1.0000
  H   H80       1.0  0.56496  0.07431  0.10309  1.0000
  H   H81       1.0  0.6448799999999998  0.02244  0.96552  1.0000
  H   H82       1.0  0.72705  0.10917  0.08569  1.0000
  H   H83       1.0  0.76003  0.20556999999999992  0.78774  1.0000
  H   H84       1.0  0.55714  0.07834000000000002  0.84908  1.0000
  H   H85       1.0  0.99732  0.42125  0.92525  1.0000
  H   H86       1.0  0.043229999999999984  0.43718  0.04259  1.0000
  H   H87       1.0  0.378  0.36854  0.80816  1.0000
  H   H88       1.0  0.72278  0.28058  0.13116  1.0000
  H   H89       1.0  0.65023  0.37658  0.01888  1.0000
  H   H90       1.0  0.8115199999999998  0.3717900000000001  0.9046000000000002  1.0000
  H   H91       1.0  0.8578  0.38931  0.02252  1.0000
  H   H92       1.0  0.1306700000000001  0.08792000000000011  0.7817900000000001  1.0000
  H   H93       1.0  0.2823999999999999  0.05612999999999994  0.75188  1.0000
  H   H94       1.0  0.9222  0.26112  0.07258  1.0000
  H   H95       1.0  0.23066999999999996  0.92234  0.48355  1.0000
  H   H96       1.0  0.10461999999999995  0.8381300000000002  0.54257  1.0000
  H   H97       1.0  0.13811999999999994  0.32015  0.69332  1.0000
  H   H98       1.0  0.03350000000000003  0.21556  0.6935  1.0000
  H   H99       1.0  0.24931000000000006  0.37990000000000007  0.8688600000000001  1.0000
  H   H100      1.0  0.14862999999999998  0.26678  0.86282  1.0000
  C   C1        1.0  0.26149  0.26276  0.1631  1.0000
  C   C2        1.0  0.07464  0.10874  0.04394  1.0000
  C   C3        1.0  0.010489999999999994  0.059829999999999994  0.08212  1.0000
  C   C4        1.0  0.15947000000000003  0.22041  0.08549000000000001  1.0000
  C   C5        1.0  0.29181  0.20243  0.21567  1.0000
  C   C6        1.0  0.06124000000000002  0.04723000000000004  0.96188  1.0000
  C   C7        1.0  0.008910000000000008  0.11571000000000001  0.1654  1.0000
  C   C8        1.0  0.3405599999999999  0.36637  0.19459  1.0000
  C   C9        1.0  0.32078  0.0976  0.44385  1.0000
  C   C10       1.0  0.5205  0.48665  0.54167  1.0000
  C   C11       1.0  0.44781  0.3743  0.52426  1.0000
  C   C12       1.0  0.15607  0.05354  0.34947  1.0000
  C   C13       1.0  0.26000999999999996  0.31647  0.40894  1.0000
  C   C14       1.0  0.04191  0.99953  0.48617  1.0000
  C   C15       1.0  0.008840000000000042  0.46419  0.29826  1.0000
  C   C16       1.0  0.3003700000000001  0.37847000000000003  0.5568100000000001  1.0000
  C   C17       1.0  0.19906  0.35821  0.50059  1.0000
  C   C18       1.0  0.09337000000000001  0.09275  0.46395  1.0000
  C   C19       1.0  0.13899000000000003  0.57656  0.28035  1.0000
  C   C20       1.0  0.14033000000000004  0.48647  0.2671  1.0000
  C   C21       1.0  0.2774200000000001  0.11856000000000008  0.49852000000000013  1.0000
  C   C22       1.0  0.32181  0.42996  0.1514  1.0000
  C   C23       1.0  0.14058  0.28485  0.04227  1.0000
  C   C24       1.0  0.21988999999999992  0.38818  0.07482  1.0000
  C   C25       1.0  0.4099699999999999  0.5403  0.18796  1.0000
  C   C26       1.0  0.94047  0.63412  0.2364  1.0000
  C   C27       1.0  0.02264  0.63617  0.32241  1.0000
  C   C28       1.0  0.59868  0.09781000000000004  0.33748  1.0000
  C   C29       1.0  0.56457  0.029990000000000013  0.45619000000000004  1.0000
  C   C30       1.0  0.47708  0.92747  0.41775  1.0000
  C   C31       1.0  0.63441  0.07306  0.4146  1.0000
  C   C32       1.0  0.48576  0.07589000000000001  0.28582  1.0000
  C   C33       1.0  0.58574  0.09953  0.53814  1.0000
  C   C34       1.0  0.44891000000000003  0.842  0.3341400000000001  1.0000
  C   C35       1.0  0.6703199999999999  0.14559999999999998  0.30586  1.0000
  C   C36       1.0  0.15420000000000006  0.8781  0.05689  1.0000
  C   C37       1.0  0.44476  0.97863  0.95843  1.0000
  C   C38       1.0  0.35049000000000013  0.9243000000000001  0.9767100000000002  1.0000
  C   C39       1.0  0.20203  0.80697  0.15122  1.0000
  C   C40       1.0  0.40861999999999987  0.85176  0.09138  1.0000
  C   C41       1.0  0.013209999999999993  0.55575  0.01385  1.0000
  C   C42       1.0  0.66779  0.71137  0.20214  1.0000
  C   C43       1.0  0.32179  0.74383  0.94336  1.0000
  C   C44       1.0  0.35859  0.69892  0.99923  1.0000
  C   C45       1.0  0.12899  0.63022  0.037160000000000006  1.0000
  C   C46       1.0  0.79726  0.85924  0.21872000000000005  1.0000
  C   C47       1.0  0.72047  0.87389  0.23194000000000004  1.0000
  C   C48       1.0  0.12117999999999994  0.78016  0.00219  1.0000
  C   C49       1.0  0.7770299999999999  0.16945  0.34822  1.0000
  C   C50       1.0  0.74232  0.09785000000000005  0.45766000000000007  1.0000
  C   C51       1.0  0.8125499999999998  0.14442  0.42474  1.0000
  C   C52       1.0  0.8498299999999999  0.22014  0.31069  1.0000
  C   C53       1.0  0.89885  0.70423  0.26364  1.0000
  C   C54       1.0  0.81499  0.70051  0.17764  1.0000
  C   C55       1.0  0.73851  0.73724  0.8369  1.0000
  C   C56       1.0  0.92536  0.89126  0.95606  1.0000
  C   C57       1.0  0.9895099999999998  0.94017  0.91787  1.0000
  C   C58       1.0  0.8405399999999998  0.7795900000000001  0.9145000000000001  1.0000
  C   C59       1.0  0.7081899999999998  0.79757  0.78433  1.0000
  C   C60       1.0  0.93876  0.95276  0.03812  1.0000
  C   C61       1.0  0.99109  0.88428  0.8346  1.0000
  C   C62       1.0  0.65944  0.63363  0.80541  1.0000
  C   C63       1.0  0.67922  0.9024  0.55614  1.0000
  C   C64       1.0  0.4795  0.51334  0.45832  1.0000
  C   C65       1.0  0.55219  0.6257  0.47574  1.0000
  C   C66       1.0  0.8439300000000001  0.9464600000000001  0.65052  1.0000
  C   C67       1.0  0.73999  0.68353  0.59106  1.0000
  C   C68       1.0  0.95809  0.00046000000000002164  0.51382  1.0000
  C   C69       1.0  0.9911599999999999  0.53581  0.70173  1.0000
  C   C70       1.0  0.69963  0.62153  0.44318000000000013  1.0000
  C   C71       1.0  0.80094  0.64179  0.4994  1.0000
  C   C72       1.0  0.9066399999999998  0.90725  0.53604  1.0000
  C   C73       1.0  0.86101  0.42343  0.71964  1.0000
  C   C74       1.0  0.85967  0.51353  0.7329  1.0000
  C   C75       1.0  0.72258  0.88143  0.50147  1.0000
  C   C76       1.0  0.67819  0.57004  0.8486  1.0000
  C   C77       1.0  0.85942  0.7151500000000001  0.95772  1.0000
  C   C78       1.0  0.78011  0.6118199999999999  0.92518  1.0000
  C   C79       1.0  0.59003  0.45970000000000005  0.81204  1.0000
  C   C80       1.0  0.05952999999999999  0.3658799999999999  0.76359  1.0000
  C   C81       1.0  0.9773599999999998  0.36382  0.67758  1.0000
  C   C82       1.0  0.4013200000000001  0.9021800000000001  0.6625100000000003  1.0000
  C   C83       1.0  0.43542999999999993  0.97001  0.54381  1.0000
  C   C84       1.0  0.5229199999999998  0.07252  0.58225  1.0000
  C   C85       1.0  0.3656  0.92694  0.58539  1.0000
  C   C86       1.0  0.51424  0.92411  0.71417  1.0000
  C   C87       1.0  0.4142600000000001  0.90046  0.46186000000000005  1.0000
  C   C88       1.0  0.55109  0.15799  0.66586  1.0000
  C   C89       1.0  0.32968000000000003  0.8544000000000002  0.69414  1.0000
  C   C90       1.0  0.8458  0.12189999999999995  0.94311  1.0000
  C   C91       1.0  0.55524  0.02137  0.04156  1.0000
  C   C92       1.0  0.6495099999999998  0.07569  0.02329000000000001  1.0000
  C   C93       1.0  0.79798  0.19303  0.84877  1.0000
  C   C94       1.0  0.59139  0.14824000000000007  0.90861  1.0000
  C   C95       1.0  0.98679  0.44424  0.98614  1.0000
  C   C96       1.0  0.3322099999999999  0.28862  0.79786  1.0000
  C   C97       1.0  0.67822  0.25616  0.05663  1.0000
  C   C98       1.0  0.64141  0.30108000000000007  0.00077  1.0000
  C   C99       1.0  0.87101  0.36978  0.96283  1.0000
  C   C100      1.0  0.20274999999999996  0.14074999999999993  0.78127  1.0000
  C   C101      1.0  0.27953  0.12610999999999994  0.76805  1.0000
  C   C102      1.0  0.87882  0.21984000000000006  0.99781  1.0000
  C   C103      1.0  0.22297  0.83055  0.65177  1.0000
  C   C104      1.0  0.2576799999999999  0.90214  0.54234  1.0000
  C   C105      1.0  0.18744999999999992  0.85558  0.57526  1.0000
  C   C106      1.0  0.15018  0.77986  0.68931  1.0000
  C   C107      1.0  0.10116000000000003  0.29576  0.73636  1.0000
  C   C108      1.0  0.18500999999999998  0.29949  0.82235  1.0000
  N   N1        1.0  0.17476  0.31968  0.40839  1.0000
  N   N2        1.0  0.24437  0.05662999999999997  0.35136  1.0000
  N   N3        1.0  0.33713  0.35075  0.4974  1.0000
  N   N4        1.0  0.1735899999999999  0.09099999999999997  0.43791  1.0000
  N   N5        1.0  0.059039999999999995  0.4171  0.27865  1.0000
  N   N6        1.0  0.055130000000000005  0.56137  0.30036  1.0000
  N   N7        1.0  0.41290999999999994  0.76719  0.09153  1.0000
  N   N8        1.0  0.20372  0.89359  0.14935  1.0000
  N   N9        1.0  0.35355  0.84012  0.00306  1.0000
  N   N10       1.0  0.15271999999999994  0.7364499999999999  0.0628  1.0000
  N   N11       1.0  0.64005  0.78113  0.22122  1.0000
  N   N12       1.0  0.7625699999999999  0.7554799999999999  0.19962  1.0000
  N   N13       1.0  0.82524  0.68032  0.5916  1.0000
  N   N14       1.0  0.7556299999999998  0.94337  0.64863  1.0000
  N   N15       1.0  0.66288  0.64925  0.5026  1.0000
  N   N16       1.0  0.8264099999999998  0.909  0.56208  1.0000
  N   N17       1.0  0.9409699999999998  0.5829  0.72134  1.0000
  N   N18       1.0  0.94487  0.43862  0.69963  1.0000
  N   N19       1.0  0.5870899999999998  0.23279999999999995  0.90847  1.0000
  N   N20       1.0  0.79628  0.10641000000000002  0.85065  1.0000
  N   N21       1.0  0.64645  0.15988  0.99694  1.0000
  N   N22       1.0  0.84728  0.2635500000000001  0.93719  1.0000
  N   N23       1.0  0.35995  0.21886999999999998  0.77878  1.0000
  N   N24       1.0  0.23744  0.24452000000000002  0.80038  1.0000
  O   O1        1.0  0.97607  0.06860000000000002  0.21133  1.0000
  O   O2        1.0  0.03959  0.21236  0.18305  1.0000
  O   O3        1.0  0.24004  0.10341  0.16983  1.0000
  O   O4        1.0  0.36346  0.24981000000000003  0.29929  1.0000
  O   O5        1.0  0.50228  0.57425  0.25305  1.0000
  O   O6        1.0  0.3822900000000001  0.5952100000000001  0.14727  1.0000
  O   O7        1.0  0.35494000000000003  0.76432  0.28725  1.0000
  O   O8        1.0  0.52818  0.8538000000000001  0.31733000000000006  1.0000
  O   O9        1.0  0.43342  0.07049999999999997  0.33217  1.0000
  O   O10       1.0  0.44849999999999995  0.06359  0.20217  1.0000
  O   O11       1.0  0.8183  0.2484  0.24667  1.0000
  O   O12       1.0  0.94472  0.23104000000000002  0.3494100000000001  1.0000
  O   O13       1.0  0.023939999999999982  0.9313899999999999  0.78867  1.0000
  O   O14       1.0  0.9604100000000001  0.78764  0.81695  1.0000
  O   O15       1.0  0.75996  0.89659  0.83017  1.0000
  O   O16       1.0  0.6365399999999998  0.75019  0.7007  1.0000
  O   O17       1.0  0.49772000000000016  0.4257500000000001  0.7469500000000002  1.0000
  O   O18       1.0  0.61771  0.40479  0.85272  1.0000
  O   O19       1.0  0.64506  0.23568  0.71275  1.0000
  O   O20       1.0  0.47182  0.1462  0.68267  1.0000
  O   O21       1.0  0.56658  0.92949  0.66782  1.0000
  O   O22       1.0  0.5515  0.93641  0.79783  1.0000
  O   O23       1.0  0.18169999999999992  0.75159  0.75333  1.0000
  O   O24       1.0  0.05528000000000001  0.76896  0.65059  1.0000
