data_image0
_chemical_formula_structural       Zn5H128C228N6O22
_chemical_formula_sum              "Zn5 H128 C228 N6 O22"
_cell_length_a       17.17738
_cell_length_b       19.175610000000002
_cell_length_c       21.466159999999995
_cell_angle_alpha    87.78144
_cell_angle_beta     73.45923
_cell_angle_gamma    66.64308

_space_group_name_H-M_alt    "P 1"
_space_group_IT_number       1

loop_
  _space_group_symop_operation_xyz
  'x, y, z'

loop_
  _atom_site_type_symbol
  _atom_site_label
  _atom_site_symmetry_multiplicity
  _atom_site_fract_x
  _atom_site_fract_y
  _atom_site_fract_z
  _atom_site_occupancy
  Zn  Zn1       1.0  0.40246999999999994  0.9794000000000002  0.39813  1.0000
  Zn  Zn2       1.0  0.98397  0.9862999999999998  0.9427099999999999  1.0000
  Zn  Zn3       1.0  0.59753  0.0206  0.60186  1.0000
  Zn  Zn4       1.0  0.01603  0.013700000000000002  0.05729  1.0000
  Zn  Zn5       1.0  0.5  0.0  0.49999  1.0000
  H   H1        1.0  0.32486  0.8049200000000001  0.48378  1.0000
  H   H2        1.0  0.42861000000000005  0.85323  0.6287599999999999  1.0000
  H   H3        1.0  0.28097999999999995  0.71105  0.5526499999999999  1.0000
  H   H4        1.0  0.3843500000000001  0.7608  0.6985099999999997  1.0000
  H   H5        1.0  0.30696000000000007  0.63188  0.81407  1.0000
  H   H6        1.0  0.26811999999999997  0.56979  0.59344  1.0000
  H   H7        1.0  0.22984  0.42811  0.90541  1.0000
  H   H8        1.0  0.18206000000000003  0.37133  0.6869999999999999  1.0000
  H   H9        1.0  0.46251999999999976  0.571  0.8340799999999999  1.0000
  H   H10       1.0  0.16819999999999993  0.73424  0.89655  1.0000
  H   H11       1.0  0.40382999999999997  0.47370000000000007  0.5029599999999999  1.0000
  H   H12       1.0  0.11935  0.63914  0.56387  1.0000
  H   H13       1.0  0.38006  0.361  0.9330499999999998  1.0000
  H   H14       1.0  0.5675900000000001  0.46619  0.8790799999999999  1.0000
  H   H15       1.0  0.09391000000000008  0.52071  0.9972899999999999  1.0000
  H   H16       1.0  0.034990000000000035  0.76105  0.9912399999999999  1.0000
  H   H17       1.0  0.3138000000000001  0.26719  0.60225  1.0000
  H   H18       1.0  0.4903100000000001  0.33922  0.45558999999999994  1.0000
  H   H19       1.0  0.02825  0.43396  0.66456  1.0000
  H   H20       1.0  0.97187  0.64029  0.56623  1.0000
  H   H21       1.0  0.52682  0.36245999999999995  0.9291699999999998  1.0000
  H   H22       1.0  0.9991299999999999  0.65498  0.04297  1.0000
  H   H23       1.0  0.44447000000000003  0.23682999999999998  0.5045399999999999  1.0000
  H   H24       1.0  0.92687  0.53908  0.6170499999999999  1.0000
  H   H25       1.0  0.10865  0.25459  0.77401  1.0000
  H   H26       1.0  0.20706000000000016  0.26100999999999996  0.9363099999999998  1.0000
  H   H27       1.0  0.05679  0.15528  0.82354  1.0000
  H   H28       1.0  0.15213000000000007  0.16311000000000003  0.9860499999999999  1.0000
  H   H29       1.0  0.9745400000000001  0.05958  0.81939  1.0000
  H   H30       1.0  0.8915799999999999  0.89685  0.91034  1.0000
  H   H31       1.0  0.87946  0.08227999999999999  0.74482  1.0000
  H   H32       1.0  0.7942100000000001  0.9102799999999999  0.8388299999999999  1.0000
  H   H33       1.0  0.29217000000000004  0.85603  0.00939  1.0000
  H   H34       1.0  0.23809  0.81425  0.83478  1.0000
  H   H35       1.0  0.44866  0.75993  0.9665899999999997  1.0000
  H   H36       1.0  0.3936100000000001  0.7167199999999999  0.7916699999999999  1.0000
  H   H37       1.0  0.8545099999999999  0.0303  0.65803  1.0000
  H   H38       1.0  0.66026  0.00037000000000000027  0.82354  1.0000
  H   H39       1.0  0.74857  0.04925  0.59318  1.0000
  H   H40       1.0  0.56432  0.017019999999999987  0.7508399999999998  1.0000
  H   H41       1.0  0.5586399999999998  0.63228  0.7102599999999999  1.0000
  H   H42       1.0  0.66586  0.56777  0.91755  1.0000
  H   H43       1.0  0.82803  0.43554  0.5826799999999999  1.0000
  H   H44       1.0  0.93412  0.36937999999999993  0.7902999999999999  1.0000
  H   H45       1.0  0.46154  0.57185  0.6788999999999998  1.0000
  H   H46       1.0  0.59756  0.73893  0.6484199999999999  1.0000
  H   H47       1.0  0.62322  0.47166  0.99545  1.0000
  H   H48       1.0  0.7528099999999999  0.63739  0.9520899999999998  1.0000
  H   H49       1.0  0.74209  0.36696  0.54504  1.0000
  H   H50       1.0  0.45616999999999996  0.4675  0.61697  1.0000
  H   H51       1.0  0.87232  0.53335  0.50773  1.0000
  H   H52       1.0  0.7038900000000001  0.77193  0.56  1.0000
  H   H53       1.0  0.90007  0.26446  0.85925  1.0000
  H   H54       1.0  0.66082  0.33658  0.02092  1.0000
  H   H55       1.0  0.03218000000000014  0.4312599999999999  0.8181599999999999  1.0000
  H   H56       1.0  0.90079  0.6389  0.9445  1.0000
  H   H57       1.0  0.59455  0.36614  0.5500999999999999  1.0000
  H   H58       1.0  0.8385300000000003  0.6698  0.4884899999999999  1.0000
  H   H59       1.0  0.7974600000000002  0.23319000000000004  0.9526399999999998  1.0000
  H   H60       1.0  0.03861000000000002  0.53702  0.87751  1.0000
  H   H61       1.0  0.11958999999999995  0.26758  0.67948  1.0000
  H   H62       1.0  0.005390000000000005  0.26273  0.52606  1.0000
  H   H63       1.0  0.2637499999999999  0.16567  0.61497  1.0000
  H   H64       1.0  0.15091999999999994  0.16360999999999998  0.46117  1.0000
  H   H65       1.0  0.6751499999999999  0.19508000000000003  0.5162199999999999  1.0000
  H   H66       1.0  0.57139  0.14677  0.37123  1.0000
  H   H67       1.0  0.7190199999999999  0.28895  0.44735  1.0000
  H   H68       1.0  0.61565  0.23920000000000002  0.30148  1.0000
  H   H69       1.0  0.69304  0.3681200000000001  0.18593  1.0000
  H   H70       1.0  0.7318800000000001  0.4302  0.40655  1.0000
  H   H71       1.0  0.77016  0.57188  0.09458999999999997  1.0000
  H   H72       1.0  0.81794  0.62867  0.31299  1.0000
  H   H73       1.0  0.5374900000000001  0.429  0.16591999999999998  1.0000
  H   H74       1.0  0.8318  0.26576  0.10343999999999999  1.0000
  H   H75       1.0  0.59617  0.5263  0.49704  1.0000
  H   H76       1.0  0.8806600000000001  0.36085999999999996  0.43611999999999995  1.0000
  H   H77       1.0  0.61994  0.639  0.06694  1.0000
  H   H78       1.0  0.43242  0.5338  0.12091  1.0000
  H   H79       1.0  0.9060900000000001  0.47928  0.00271  1.0000
  H   H80       1.0  0.9650100000000001  0.23895000000000002  0.00875  1.0000
  H   H81       1.0  0.6862000000000001  0.7328099999999999  0.39775  1.0000
  H   H82       1.0  0.5096899999999999  0.66078  0.5443999999999999  1.0000
  H   H83       1.0  0.9717500000000002  0.56604  0.3354399999999999  1.0000
  H   H84       1.0  0.028129999999999978  0.35971  0.43376  1.0000
  H   H85       1.0  0.47318  0.63754  0.07082  1.0000
  H   H86       1.0  0.0008700000000000617  0.34502  0.9570199999999998  1.0000
  H   H87       1.0  0.5555299999999999  0.76316  0.4954499999999999  1.0000
  H   H88       1.0  0.07313000000000004  0.46091  0.38294999999999996  1.0000
  H   H89       1.0  0.89135  0.7454  0.22597999999999996  1.0000
  H   H90       1.0  0.7929399999999999  0.73899  0.06368  1.0000
  H   H91       1.0  0.94322  0.8447200000000001  0.17645999999999998  1.0000
  H   H92       1.0  0.84787  0.83689  0.013949999999999999  1.0000
  H   H93       1.0  0.02546  0.94042  0.18059999999999998  1.0000
  H   H94       1.0  0.10842999999999996  0.10315  0.08964999999999998  1.0000
  H   H95       1.0  0.12053999999999992  0.9177100000000001  0.25518  1.0000
  H   H96       1.0  0.20579000000000003  0.08972  0.16117  1.0000
  H   H97       1.0  0.70784  0.14396  0.9906099999999998  1.0000
  H   H98       1.0  0.7619200000000002  0.18575000000000003  0.16522  1.0000
  H   H99       1.0  0.55134  0.24006  0.033409999999999995  1.0000
  H   H100      1.0  0.60639  0.28327  0.20831999999999998  1.0000
  H   H101      1.0  0.1454900000000001  0.9696899999999999  0.34197  1.0000
  H   H102      1.0  0.3397399999999999  0.9996200000000001  0.17644999999999997  1.0000
  H   H103      1.0  0.25144  0.95074  0.40682  1.0000
  H   H104      1.0  0.4356799999999999  0.98297  0.24915999999999996  1.0000
  H   H105      1.0  0.44136  0.36772000000000005  0.28974  1.0000
  H   H106      1.0  0.33413999999999994  0.43223  0.08243999999999999  1.0000
  H   H107      1.0  0.17198000000000008  0.56446  0.41730999999999996  1.0000
  H   H108      1.0  0.06588  0.63062  0.20969  1.0000
  H   H109      1.0  0.53846  0.4281499999999999  0.32109999999999994  1.0000
  H   H110      1.0  0.4024400000000001  0.26106  0.35157  1.0000
  H   H111      1.0  0.37678999999999996  0.52834  0.004539999999999999  1.0000
  H   H112      1.0  0.24718999999999994  0.36261  0.04791  1.0000
  H   H113      1.0  0.25791  0.63304  0.45496  1.0000
  H   H114      1.0  0.54383  0.5325  0.3830299999999999  1.0000
  H   H115      1.0  0.12769000000000008  0.46665  0.49227  1.0000
  H   H116      1.0  0.29611  0.22806  0.43999  1.0000
  H   H117      1.0  0.09993999999999999  0.73553  0.14074999999999996  1.0000
  H   H118      1.0  0.3391800000000001  0.6634200000000001  0.9790799999999998  1.0000
  H   H119      1.0  0.9678199999999999  0.56874  0.18184  1.0000
  H   H120      1.0  0.09921  0.3611  0.05549  1.0000
  H   H121      1.0  0.4054599999999999  0.63386  0.44989999999999997  1.0000
  H   H122      1.0  0.16146999999999995  0.3302  0.51151  1.0000
  H   H123      1.0  0.20254000000000003  0.76681  0.047359999999999985  1.0000
  H   H124      1.0  0.96139  0.46298  0.12247999999999998  1.0000
  H   H125      1.0  0.88041  0.73242  0.32051  1.0000
  H   H126      1.0  0.99461  0.73727  0.47392999999999996  1.0000
  H   H127      1.0  0.73625  0.83432  0.38503  1.0000
  H   H128      1.0  0.8490799999999998  0.83638  0.53883  1.0000
  C   C1        1.0  0.40809  0.88909  0.5098  1.0000
  C   C2        1.0  0.37916000000000005  0.83501  0.5521599999999999  1.0000
  C   C3        1.0  0.33675  0.79515  0.53109  1.0000
  C   C4        1.0  0.3960499999999999  0.822  0.61274  1.0000
  C   C5        1.0  0.31238999999999995  0.74293  0.56937  1.0000
  C   C6        1.0  0.37114  0.7703100000000002  0.65162  1.0000
  C   C7        1.0  0.32941  0.72931  0.63046  1.0000
  C   C8        1.0  0.30691000000000007  0.67383  0.66743  1.0000
  C   C9        1.0  0.28937  0.6227  0.69538  1.0000
  C   C10       1.0  0.26919  0.56157  0.7228699999999998  1.0000
  C   C11       1.0  0.26953999999999995  0.5430000000000001  0.78723  1.0000
  C   C12       1.0  0.24678999999999995  0.51684  0.68576  1.0000
  C   C13       1.0  0.28942000000000023  0.58531  0.8351499999999997  1.0000
  C   C14       1.0  0.24777999999999994  0.48316000000000003  0.81382  1.0000
  C   C15       1.0  0.24809999999999993  0.52439  0.61441  1.0000
  C   C16       1.0  0.22358000000000006  0.4579  0.71269  1.0000
  C   C17       1.0  0.3624200000000001  0.52511  0.8588799999999999  1.0000
  C   C18       1.0  0.20553  0.61252  0.89326  1.0000
  C   C19       1.0  0.24786000000000008  0.47470999999999997  0.88491  1.0000
  C   C20       1.0  0.22491  0.43881  0.77688  1.0000
  C   C21       1.0  0.31041  0.44554999999999995  0.57928  1.0000
  C   C22       1.0  0.15575  0.53566  0.61252  1.0000
  C   C23       1.0  0.20171999999999998  0.41665  0.66528  1.0000
  C   C24       1.0  0.33972  0.46553  0.8862699999999999  1.0000
  C   C25       1.0  0.4443700000000001  0.52537  0.85568  1.0000
  C   C26       1.0  0.1836700000000001  0.55263  0.9208599999999998  1.0000
  C   C27       1.0  0.15202000000000002  0.68761  0.91803  1.0000
  C   C28       1.0  0.20488000000000006  0.3770800000000001  0.8027699999999999  1.0000
  C   C29       1.0  0.28517  0.38735  0.6069799999999999  1.0000
  C   C30       1.0  0.3845299999999999  0.42876000000000003  0.52508  1.0000
  C   C31       1.0  0.13039000000000012  0.47763  0.6405899999999998  1.0000
  C   C32       1.0  0.09929000000000016  0.5944299999999999  0.5857299999999998  1.0000
  C   C33       1.0  0.39826999999999996  0.40679  0.9116199999999999  1.0000
  C   C34       1.0  0.5034999999999995  0.46632000000000007  0.8811199999999999  1.0000
  C   C35       1.0  0.10988000000000017  0.5671499999999999  0.9749199999999999  1.0000
  C   C36       1.0  0.0769000000000001  0.7024899999999998  0.9717499999999998  1.0000
  C   C37       1.0  0.18707000000000007  0.3236899999999999  0.8250699999999997  1.0000
  C   C38       1.0  0.33376  0.31212  0.58104  1.0000
  C   C39       1.0  0.43318000000000006  0.35287  0.4985699999999999  1.0000
  C   C40       1.0  0.048189999999999976  0.47866  0.64272  1.0000
  C   C41       1.0  0.016720000000000006  0.59511  0.58722  1.0000
  C   C42       1.0  0.48047000000000006  0.40757  0.90921  1.0000
  C   C43       1.0  0.056510000000000005  0.64286  0.00041999999999999996  1.0000
  C   C44       1.0  0.16136  0.26493  0.85175  1.0000
  C   C45       1.0  0.40794  0.29517  0.52622  1.0000
  C   C46       1.0  0.9912399999999999  0.53776  0.6157799999999999  1.0000
  C   C47       1.0  0.11906  0.23395  0.82006  1.0000
  C   C48       1.0  0.1744900000000001  0.23753  0.9116599999999999  1.0000
  C   C49       1.0  0.08964000000000005  0.17888  0.84777  1.0000
  C   C50       1.0  0.14400000000000002  0.18298  0.9392699999999999  1.0000
  C   C51       1.0  0.10044999999999998  0.15353  0.9081799999999999  1.0000
  C   C52       1.0  0.06236000000000008  0.09866  0.9402299999999998  1.0000
  C   C53       1.0  0.9338200000000002  0.027760000000000003  0.8210599999999999  1.0000
  C   C54       1.0  0.8868100000000002  0.93639  0.8724099999999999  1.0000
  C   C55       1.0  0.16125000000000006  0.89534  0.95236  1.0000
  C   C56       1.0  0.88103  0.03964000000000001  0.7799  1.0000
  C   C57       1.0  0.83216  0.94521  0.83322  1.0000
  C   C58       1.0  0.25573  0.8402799999999999  0.9250499999999999  1.0000
  C   C59       1.0  0.8273300000000001  0.9989  0.78654  1.0000
  C   C60       1.0  0.3157800000000001  0.82547  0.96158  1.0000
  C   C61       1.0  0.28479  0.80173  0.8630599999999999  1.0000
  C   C62       1.0  0.76658  0.01263999999999998  0.7464299999999998  1.0000
  C   C63       1.0  0.40278  0.77215  0.9376699999999999  1.0000
  C   C64       1.0  0.37134000000000006  0.74818  0.8389399999999999  1.0000
  C   C65       1.0  0.79029  0.02832999999999999  0.6809799999999999  1.0000
  C   C66       1.0  0.68306  0.01011000000000001  0.7726  1.0000
  C   C67       1.0  0.4319  0.73197  0.8759299999999999  1.0000
  C   C68       1.0  0.7322700000000002  0.03842999999999997  0.6444499999999997  1.0000
  C   C69       1.0  0.6285400000000001  0.020509999999999983  0.7330399999999999  1.0000
  C   C70       1.0  0.5181600000000001  0.67472  0.85024  1.0000
  C   C71       1.0  0.58843  0.62176  0.8234199999999999  1.0000
  C   C72       1.0  0.6669  0.56095  0.78803  1.0000
  C   C73       1.0  0.6818  0.54394  0.72091  1.0000
  C   C74       1.0  0.7327499999999998  0.51568  0.81694  1.0000
  C   C75       1.0  0.6201199999999997  0.5873300000000001  0.68083  1.0000
  C   C76       1.0  0.75971  0.48586  0.6838099999999998  1.0000
  C   C77       1.0  0.72759  0.52239  0.8888099999999999  1.0000
  C   C78       1.0  0.81047  0.45721  0.77996  1.0000
  C   C79       1.0  0.6045700000000005  0.52783  0.6465799999999999  1.0000
  C   C80       1.0  0.67623  0.61794  0.62811  1.0000
  C   C81       1.0  0.7659900000000001  0.48047999999999996  0.61149  1.0000
  C   C82       1.0  0.82554  0.44061000000000006  0.7128099999999998  1.0000
  C   C83       1.0  0.73989  0.44335  0.91232  1.0000
  C   C84       1.0  0.8106499999999999  0.53333  0.88962  1.0000
  C   C85       1.0  0.8729299999999997  0.41463  0.81973  1.0000
  C   C86       1.0  0.68345  0.46998000000000006  0.60895  1.0000
  C   C87       1.0  0.5227599999999998  0.5272100000000001  0.64983  1.0000
  C   C88       1.0  0.7544100000000001  0.56009  0.5896799999999999  1.0000
  C   C89       1.0  0.65768  0.69422  0.61806  1.0000
  C   C90       1.0  0.9036599999999999  0.38064  0.676  1.0000
  C   C91       1.0  0.8181799999999999  0.38502  0.8745399999999998  1.0000
  C   C92       1.0  0.6829  0.4265  0.9651199999999999  1.0000
  C   C93       1.0  0.8892400000000001  0.47512  0.85204  1.0000
  C   C94       1.0  0.8139599999999999  0.59258  0.92291  1.0000
  C   C95       1.0  0.6806799999999998  0.41150000000000003  0.57423  1.0000
  C   C96       1.0  0.5197599999999999  0.46851000000000004  0.61484  1.0000
  C   C97       1.0  0.8128700000000002  0.57804  0.53883  1.0000
  C   C98       1.0  0.7176099999999999  0.7125  0.56806  1.0000
  C   C99       1.0  0.97175  0.32912  0.64393  1.0000
  C   C100      1.0  0.83906  0.30937  0.88835  1.0000
  C   C101      1.0  0.7042599999999999  0.35024  0.97927  1.0000
  C   C102      1.0  0.9712599999999999  0.4762100000000001  0.8472099999999999  1.0000
  C   C103      1.0  0.8967399999999999  0.59343  0.91846  1.0000
  C   C104      1.0  0.59817  0.41103  0.57719  1.0000
  C   C105      1.0  0.7937299999999999  0.655  0.52824  1.0000
  C   C106      1.0  0.05254999999999997  0.27147  0.60746  1.0000
  C   C107      1.0  0.7812600000000001  0.29209  0.9409999999999998  1.0000
  C   C108      1.0  0.97484  0.53571  0.88074  1.0000
  C   C109      1.0  0.12642999999999993  0.24373  0.63215  1.0000
  C   C110      1.0  0.06190999999999997  0.24135  0.54537  1.0000
  C   C111      1.0  0.20667999999999986  0.18801000000000004  0.59624  1.0000
  C   C112      1.0  0.14266000000000004  0.18613999999999997  0.50941  1.0000
  C   C113      1.0  0.21567999999999996  0.15907  0.53437  1.0000
  C   C114      1.0  0.30284000000000005  0.10069  0.4952099999999999  1.0000
  C   C115      1.0  0.59191  0.11090999999999998  0.4901899999999999  1.0000
  C   C116      1.0  0.6208400000000001  0.16498999999999997  0.44782999999999995  1.0000
  C   C117      1.0  0.66325  0.20484  0.46891  1.0000
  C   C118      1.0  0.6039600000000002  0.17799  0.38726  1.0000
  C   C119      1.0  0.6876100000000002  0.25707  0.43063  1.0000
  C   C120      1.0  0.6288599999999999  0.22969  0.3483699999999999  1.0000
  C   C121      1.0  0.67059  0.27069  0.36953  1.0000
  C   C122      1.0  0.69309  0.32617  0.33256  1.0000
  C   C123      1.0  0.7106300000000001  0.3773  0.30461  1.0000
  C   C124      1.0  0.7308200000000001  0.43843  0.27713  1.0000
  C   C125      1.0  0.7304700000000001  0.45699000000000006  0.21276  1.0000
  C   C126      1.0  0.7532099999999999  0.48316000000000003  0.31422999999999995  1.0000
  C   C127      1.0  0.71058  0.41469  0.16485  1.0000
  C   C128      1.0  0.75222  0.5168300000000001  0.18616999999999997  1.0000
  C   C129      1.0  0.7518999999999999  0.4756000000000001  0.38558  1.0000
  C   C130      1.0  0.7764300000000001  0.54209  0.28731  1.0000
  C   C131      1.0  0.63758  0.4748899999999999  0.14112  1.0000
  C   C132      1.0  0.7944700000000001  0.38747  0.10673999999999999  1.0000
  C   C133      1.0  0.7521500000000001  0.52529  0.11508  1.0000
  C   C134      1.0  0.7750899999999998  0.5611900000000001  0.22311999999999999  1.0000
  C   C135      1.0  0.6895900000000001  0.55444  0.4207199999999999  1.0000
  C   C136      1.0  0.84425  0.46434  0.38748  1.0000
  C   C137      1.0  0.79828  0.58334  0.33472  1.0000
  C   C138      1.0  0.66028  0.53447  0.11372999999999998  1.0000
  C   C139      1.0  0.55564  0.47463  0.14431999999999998  1.0000
  C   C140      1.0  0.8163300000000001  0.44737  0.07913999999999999  1.0000
  C   C141      1.0  0.84798  0.31239  0.08197  1.0000
  C   C142      1.0  0.7951299999999999  0.62292  0.19722999999999996  1.0000
  C   C143      1.0  0.7148299999999997  0.61265  0.39301999999999987  1.0000
  C   C144      1.0  0.6154700000000001  0.57123  0.47490999999999994  1.0000
  C   C145      1.0  0.86961  0.52237  0.35939999999999994  1.0000
  C   C146      1.0  0.9007100000000002  0.40557  0.4142599999999999  1.0000
  C   C147      1.0  0.60173  0.5932100000000001  0.08838  1.0000
  C   C148      1.0  0.49649999999999994  0.53368  0.11887999999999997  1.0000
  C   C149      1.0  0.89013  0.43285  0.025079999999999998  1.0000
  C   C150      1.0  0.9230999999999999  0.29751  0.028249999999999994  1.0000
  C   C151      1.0  0.8129299999999998  0.67631  0.17493  1.0000
  C   C152      1.0  0.66624  0.68787  0.41895  1.0000
  C   C153      1.0  0.56682  0.64712  0.50143  1.0000
  C   C154      1.0  0.9518099999999999  0.52133  0.3572799999999999  1.0000
  C   C155      1.0  0.98328  0.4048900000000001  0.41277  1.0000
  C   C156      1.0  0.51953  0.59242  0.09077999999999999  1.0000
  C   C157      1.0  0.94349  0.35713  0.9995699999999998  1.0000
  C   C158      1.0  0.8386500000000002  0.73506  0.14824999999999997  1.0000
  C   C159      1.0  0.5920599999999999  0.70483  0.47376999999999997  1.0000
  C   C160      1.0  0.008769999999999995  0.46224000000000004  0.38421999999999995  1.0000
  C   C161      1.0  0.88095  0.76605  0.17993  1.0000
  C   C162      1.0  0.8255099999999999  0.76246  0.08834  1.0000
  C   C163      1.0  0.91036  0.82112  0.15223  1.0000
  C   C164      1.0  0.8559999999999999  0.81701  0.06072  1.0000
  C   C165      1.0  0.8995499999999998  0.84647  0.09181  1.0000
  C   C166      1.0  0.93764  0.90133  0.059759999999999994  1.0000
  C   C167      1.0  0.06617999999999993  0.9722400000000001  0.17894  1.0000
  C   C168      1.0  0.11318999999999999  0.06361  0.12758  1.0000
  C   C169      1.0  0.83876  0.10466  0.047639999999999995  1.0000
  C   C170      1.0  0.11897000000000006  0.96036  0.2201  1.0000
  C   C171      1.0  0.16783999999999996  0.05478  0.16677  1.0000
  C   C172      1.0  0.74427  0.15972  0.07495  1.0000
  C   C173      1.0  0.17267000000000005  0.0010899999999999953  0.21344999999999995  1.0000
  C   C174      1.0  0.68422  0.17452  0.03841  1.0000
  C   C175      1.0  0.7152100000000001  0.19826  0.13692999999999997  1.0000
  C   C176      1.0  0.23342999999999994  0.98735  0.25356  1.0000
  C   C177      1.0  0.59722  0.22785  0.06233  1.0000
  C   C178      1.0  0.62867  0.25182  0.16105  1.0000
  C   C179      1.0  0.20971000000000017  0.9716599999999999  0.3190199999999999  1.0000
  C   C180      1.0  0.31695  0.98989  0.2274  1.0000
  C   C181      1.0  0.5680999999999999  0.26802  0.12407  1.0000
  C   C182      1.0  0.26773  0.96156  0.35554  1.0000
  C   C183      1.0  0.3714700000000001  0.97949  0.26695  1.0000
  C   C184      1.0  0.48183999999999994  0.32528  0.14976  1.0000
  C   C185      1.0  0.41157999999999995  0.37824  0.17657999999999996  1.0000
  C   C186      1.0  0.3331  0.43905  0.21196  1.0000
  C   C187      1.0  0.3182  0.45605999999999997  0.27909  1.0000
  C   C188      1.0  0.26725  0.48431  0.18305999999999997  1.0000
  C   C189      1.0  0.37988  0.41267  0.31916999999999995  1.0000
  C   C190      1.0  0.24029000000000017  0.51414  0.31618999999999997  1.0000
  C   C191      1.0  0.27241  0.4776  0.11118  1.0000
  C   C192      1.0  0.18953  0.54278  0.22004  1.0000
  C   C193      1.0  0.39543999999999996  0.47217000000000003  0.3534199999999999  1.0000
  C   C194      1.0  0.32377  0.38206  0.37188  1.0000
  C   C195      1.0  0.2340200000000001  0.51952  0.38850999999999997  1.0000
  C   C196      1.0  0.17446000000000003  0.55939  0.28718999999999995  1.0000
  C   C197      1.0  0.26011  0.55665  0.08767  1.0000
  C   C198      1.0  0.18935  0.46666  0.11037999999999999  1.0000
  C   C199      1.0  0.12707000000000007  0.5853699999999998  0.18025999999999995  1.0000
  C   C200      1.0  0.31655  0.53002  0.39104  1.0000
  C   C201      1.0  0.47724  0.47278999999999993  0.35016  1.0000
  C   C202      1.0  0.24559000000000003  0.43991  0.41030999999999995  1.0000
  C   C203      1.0  0.34233  0.30578  0.38194  1.0000
  C   C204      1.0  0.09633999999999995  0.61935  0.324  1.0000
  C   C205      1.0  0.18183  0.61498  0.12546  1.0000
  C   C206      1.0  0.31711  0.5735000000000001  0.03487  1.0000
  C   C207      1.0  0.11076  0.52488  0.14796  1.0000
  C   C208      1.0  0.18603999999999998  0.40742  0.07709  1.0000
  C   C209      1.0  0.31932999999999995  0.5885000000000001  0.4257599999999999  1.0000
  C   C210      1.0  0.48024000000000006  0.53149  0.38516  1.0000
  C   C211      1.0  0.18713  0.42196  0.46115999999999996  1.0000
  C   C212      1.0  0.2823899999999999  0.2875  0.4319399999999999  1.0000
  C   C213      1.0  0.028249999999999952  0.6708800000000001  0.35607  1.0000
  C   C214      1.0  0.16093999999999997  0.69062  0.11164999999999999  1.0000
  C   C215      1.0  0.29574000000000006  0.64975  0.020729999999999995  1.0000
  C   C216      1.0  0.028740000000000047  0.52379  0.15278999999999998  1.0000
  C   C217      1.0  0.10326999999999999  0.40656  0.08153999999999999  1.0000
  C   C218      1.0  0.40182999999999996  0.5889600000000002  0.4228  1.0000
  C   C219      1.0  0.20627  0.3449999999999999  0.47174999999999995  1.0000
  C   C220      1.0  0.9474500000000002  0.7285199999999998  0.39253999999999994  1.0000
  C   C221      1.0  0.21874  0.70791  0.05899  1.0000
  C   C222      1.0  0.02517000000000001  0.46429  0.11926  1.0000
  C   C223      1.0  0.87357  0.75626  0.36785  1.0000
  C   C224      1.0  0.93809  0.7586400000000001  0.45462  1.0000
  C   C225      1.0  0.79332  0.81199  0.40375  1.0000
  C   C226      1.0  0.8573500000000002  0.81385  0.49057999999999996  1.0000
  C   C227      1.0  0.78432  0.84093  0.4656199999999999  1.0000
  C   C228      1.0  0.6971700000000001  0.89931  0.50478  1.0000
  N   N1        1.0  0.55323  0.0032700000000000016  0.3421  1.0000
  N   N2        1.0  0.34698  0.96615  0.33019  1.0000
  N   N3        1.0  0.9358100000000003  0.9776999999999999  0.86701  1.0000
  N   N4        1.0  0.44677999999999984  0.99672  0.65789  1.0000
  N   N5        1.0  0.6530300000000002  0.03384999999999998  0.6697999999999997  1.0000
  N   N6        1.0  0.06419000000000001  0.022289999999999997  0.13297999999999996  1.0000
  O   O1        1.0  0.45973  0.9131000000000001  0.5252699999999999  1.0000
  O   O2        1.0  0.5234599999999998  0.96782  0.39371999999999996  1.0000
  O   O3        1.0  0.36759  0.07984999999999999  0.5185799999999999  1.0000
  O   O4        1.0  0.37927  0.9058  0.45962  1.0000
  O   O5        1.0  0.30473000000000006  0.07628  0.43937999999999994  1.0000
  O   O6        1.0  0.5035500000000002  0.028899999999999995  0.30623999999999996  1.0000
  O   O7        1.0  0.62503  0.006689999999999996  0.3341299999999999  1.0000
  O   O8        1.0  0.03139000000000001  0.0686  0.90663  1.0000
  O   O9        1.0  0.06232000000000008  0.08712999999999999  0.9992599999999999  1.0000
  O   O10       1.0  0.11038999999999996  0.90576  0.9163299999999999  1.0000
  O   O11       1.0  0.8614399999999999  0.07285  0.99053  1.0000
  O   O12       1.0  0.54027  0.08689  0.47473  1.0000
  O   O13       1.0  0.47654  0.03216999999999998  0.60627  1.0000
  O   O14       1.0  0.6324099999999998  0.92015  0.48141999999999996  1.0000
  O   O15       1.0  0.62073  0.0942  0.54037  1.0000
  O   O16       1.0  0.6952699999999999  0.9237100000000001  0.56062  1.0000
  O   O17       1.0  0.4964500000000004  0.9711  0.69376  1.0000
  O   O18       1.0  0.3749799999999997  0.9933000000000001  0.66586  1.0000
  O   O19       1.0  0.9686199999999999  0.93139  0.09336  1.0000
  O   O20       1.0  0.9376799999999998  0.9128699999999998  0.0007399999999999998  1.0000
  O   O21       1.0  0.8896099999999999  0.09424000000000002  0.08366  1.0000
  O   O22       1.0  0.13857000000000005  0.9271499999999999  0.00947  1.0000
