data_image0
_chemical_formula_structural       Mn12H90C144N6O48
_chemical_formula_sum              "Mn12 H90 C144 N6 O48"
_cell_length_a       22.46815
_cell_length_b       23.98096
_cell_length_c       23.98103
_cell_angle_alpha    110.78012
_cell_angle_beta     108.09204
_cell_angle_gamma    108.09210000000002

_symmetry_space_group_name_H-M    'P 1'
_symmetry_Int_Tables_number       1

loop_
  _symmetry_equiv_pos_as_xyz
  'x,y,z'

loop_
  _atom_site_type_symbol
  _atom_site_label
  _atom_site_symmetry_multiplicity
  _atom_site_fract_x
  _atom_site_fract_y
  _atom_site_fract_z
  _atom_site_occupancy
  Mn  Mn1       1.0  0.73695  0.56875  0.37411  1.0000
  Mn  Mn2       1.0  0.6113699999999997  0.51521  0.23157999999999998  1.0000
  Mn  Mn3       1.0  0.36256  0.62612  0.19463  1.0000
  Mn  Mn4       1.0  0.3792099999999998  0.7690799999999999  0.28529  1.0000
  Mn  Mn5       1.0  0.16702  0.80555  0.43035  1.0000
  Mn  Mn6       1.0  0.09447000000000001  0.71617  0.48451000000000005  1.0000
  Mn  Mn7       1.0  0.8625599999999998  0.19463  0.62612  1.0000
  Mn  Mn8       1.0  0.87921  0.2853  0.76908  1.0000
  Mn  Mn9       1.0  0.6670199999999998  0.43035  0.80555  1.0000
  Mn  Mn10      1.0  0.59447  0.48450999999999994  0.71617  1.0000
  Mn  Mn11      1.0  0.23694999999999994  0.37411  0.56875  1.0000
  Mn  Mn12      1.0  0.11136999999999998  0.23158  0.51521  1.0000
  H   H1        1.0  0.52473  0.3650399999999999  0.28581  1.0000
  H   H2        1.0  0.46441999999999994  0.27493999999999996  0.30791  1.0000
  H   H3        1.0  0.66774  0.32584  0.45841  1.0000
  H   H4        1.0  0.7269299999999999  0.41627  0.43673999999999996  1.0000
  H   H5        1.0  0.5027899999999998  0.26065  0.43316  1.0000
  H   H6        1.0  0.47942999999999997  0.19721999999999998  0.35344  1.0000
  H   H7        1.0  0.64033  0.18596  0.40506  1.0000
  H   H8        1.0  0.56522  0.17015  0.33804  1.0000
  H   H9        1.0  0.59661  0.06260000000000002  0.31272  1.0000
  H   H10       1.0  0.52943  0.9412  0.27864  1.0000
  H   H11       1.0  0.4190699999999999  0.99249  0.38944  1.0000
  H   H12       1.0  0.48623  0.11452  0.42375  1.0000
  H   H13       1.0  0.66921  0.18971  0.4968  1.0000
  H   H14       1.0  0.73893  0.34433  0.69722  1.0000
  H   H15       1.0  0.57393  0.32289  0.5287  1.0000
  H   H16       1.0  0.23799  0.71376  0.079  1.0000
  H   H17       1.0  0.1558299999999999  0.69203  0.9670999999999998  1.0000
  H   H18       1.0  0.20835999999999993  0.5408299999999999  0.8671000000000001  1.0000
  H   H19       1.0  0.28898999999999997  0.56201  0.97886  1.0000
  H   H20       1.0  0.06935999999999994  0.5674899999999999  0.8273599999999999  1.0000
  H   H21       1.0  0.12597999999999998  0.64706  0.84399  1.0000
  H   H22       1.0  0.23497  0.59501  0.78073  1.0000
  H   H23       1.0  0.22658999999999996  0.66187  0.8319299999999998  1.0000
  H   H24       1.0  0.28307  0.68657  0.74926  1.0000
  H   H25       1.0  0.2500299999999998  0.7205699999999998  0.66169  1.0000
  H   H26       1.0  0.02957999999999999  0.6111099999999999  0.60294  1.0000
  H   H27       1.0  0.06234000000000002  0.57718  0.69122  1.0000
  H   H28       1.0  0.17291  0.50324  0.69325  1.0000
  H   H29       1.0  0.04344999999999999  0.30281  0.64741  1.0000
  H   H30       1.0  0.044889999999999944  0.47126  0.79357  1.0000
  H   H31       1.0  0.15879999999999997  0.9211699999999999  0.63434  1.0000
  H   H32       1.0  0.18889  0.03331999999999994  0.72516  1.0000
  H   H33       1.0  0.34143  0.13285  0.67414  1.0000
  H   H34       1.0  0.30986  0.020799999999999996  0.58293  1.0000
  H   H35       1.0  0.24209  0.17297999999999994  0.74044  1.0000
  H   H36       1.0  0.28189  0.15610999999999997  0.80338  1.0000
  H   H37       1.0  0.45347000000000004  0.21829000000000004  0.8134100000000001  1.0000
  H   H38       1.0  0.3945100000000001  0.16747000000000012  0.8298100000000002  1.0000
  H   H39       1.0  0.53385  0.24972  0.93654  1.0000
  H   H40       1.0  0.5890899999999998  0.33759  0.05793  1.0000
  H   H41       1.0  0.42804999999999993  0.39773999999999987  0.00871  1.0000
  H   H42       1.0  0.37182  0.3093  0.88659  1.0000
  H   H43       1.0  0.4790899999999998  0.30593999999999993  0.8097  1.0000
  H   H44       1.0  0.39497999999999994  0.3522899999999999  0.6554  1.0000
  H   H45       1.0  0.2512499999999999  0.20651  0.67799  1.0000
  H   H46       1.0  0.73799  0.07901000000000001  0.71376  1.0000
  H   H47       1.0  0.65583  0.9670999999999998  0.69203  1.0000
  H   H48       1.0  0.7083599999999999  0.8671  0.54083  1.0000
  H   H49       1.0  0.78899  0.9788599999999998  0.56201  1.0000
  H   H50       1.0  0.56936  0.82736  0.56749  1.0000
  H   H51       1.0  0.62598  0.84399  0.64706  1.0000
  H   H52       1.0  0.7349699999999999  0.7807299999999999  0.595  1.0000
  H   H53       1.0  0.72659  0.8319299999999998  0.66186  1.0000
  H   H54       1.0  0.78307  0.7492599999999999  0.68657  1.0000
  H   H55       1.0  0.75003  0.66169  0.72057  1.0000
  H   H56       1.0  0.52958  0.60294  0.61111  1.0000
  H   H57       1.0  0.56234  0.69122  0.57718  1.0000
  H   H58       1.0  0.67291  0.69325  0.50324  1.0000
  H   H59       1.0  0.5434499999999999  0.6474099999999999  0.3028  1.0000
  H   H60       1.0  0.5448899999999999  0.79357  0.47125999999999996  1.0000
  H   H61       1.0  0.6587999999999999  0.63435  0.9211699999999999  1.0000
  H   H62       1.0  0.68889  0.72516  0.03331  1.0000
  H   H63       1.0  0.8414299999999999  0.67414  0.13285  1.0000
  H   H64       1.0  0.80986  0.58294  0.0208  1.0000
  H   H65       1.0  0.74209  0.74044  0.17298  1.0000
  H   H66       1.0  0.7818899999999998  0.8033799999999998  0.15611  1.0000
  H   H67       1.0  0.95347  0.81341  0.21828  1.0000
  H   H68       1.0  0.89451  0.8298099999999999  0.16747  1.0000
  H   H69       1.0  0.03385000000000001  0.93654  0.24971  1.0000
  H   H70       1.0  0.08908999999999999  0.057940000000000005  0.33759  1.0000
  H   H71       1.0  0.9280499999999999  0.008710000000000015  0.39774  1.0000
  H   H72       1.0  0.8718199999999999  0.88659  0.3093  1.0000
  H   H73       1.0  0.9790899999999999  0.8097  0.30594  1.0000
  H   H74       1.0  0.8949799999999998  0.6554  0.35229  1.0000
  H   H75       1.0  0.7512499999999999  0.6779899999999998  0.20651  1.0000
  H   H76       1.0  0.024729999999999978  0.28581  0.36504  1.0000
  H   H77       1.0  0.9644099999999999  0.30792  0.27494  1.0000
  H   H78       1.0  0.16773999999999997  0.45841  0.32584  1.0000
  H   H79       1.0  0.22693  0.43674  0.41627  1.0000
  H   H80       1.0  0.002789999999999967  0.43315999999999993  0.26065  1.0000
  H   H81       1.0  0.9794299999999998  0.3534399999999999  0.19722  1.0000
  H   H82       1.0  0.14032999999999995  0.40506  0.18596  1.0000
  H   H83       1.0  0.06522  0.33804  0.17015  1.0000
  H   H84       1.0  0.09661  0.31272  0.0626  1.0000
  H   H85       1.0  0.02943000000000003  0.27865  0.9412  1.0000
  H   H86       1.0  0.9190699999999999  0.38944  0.99248  1.0000
  H   H87       1.0  0.98623  0.42374999999999996  0.11452  1.0000
  H   H88       1.0  0.16921  0.4968000000000001  0.18971  1.0000
  H   H89       1.0  0.23892999999999984  0.6972199999999998  0.34433  1.0000
  H   H90       1.0  0.07393  0.5287  0.32288  1.0000
  C   C1        1.0  0.6663799999999999  0.45414  0.35318  1.0000
  C   C2        1.0  0.62952  0.39633999999999997  0.3604  1.0000
  C   C3        1.0  0.55535  0.35601  0.32353  1.0000
  C   C4        1.0  0.52202  0.30577  0.33627  1.0000
  C   C5        1.0  0.5619299999999998  0.29475  0.38546  1.0000
  C   C6        1.0  0.63608  0.33415999999999996  0.4207099999999999  1.0000
  C   C7        1.0  0.66958  0.38462999999999997  0.40862  1.0000
  C   C8        1.0  0.52515  0.24126  0.40065  1.0000
  C   C9        1.0  0.58291  0.16893999999999995  0.3856  1.0000
  C   C10       1.0  0.54451  0.09629000000000004  0.36948  1.0000
  C   C11       1.0  0.5574099999999999  0.04739  0.32927  1.0000
  C   C12       1.0  0.52035  0.97967  0.31017  1.0000
  C   C13       1.0  0.4698699999999999  0.9595299999999998  0.33148  1.0000
  C   C14       1.0  0.45784999999999987  0.00841  0.37274  1.0000
  C   C15       1.0  0.49508999999999986  0.07628999999999998  0.39158  1.0000
  C   C16       1.0  0.61427  0.25066  0.50128  1.0000
  C   C17       1.0  0.6647599999999998  0.23165999999999998  0.52903  1.0000
  C   C18       1.0  0.7099799999999999  0.26625  0.59899  1.0000
  C   C19       1.0  0.7040899999999999  0.31829  0.64319  1.0000
  C   C20       1.0  0.6536399999999999  0.33680999999999994  0.61652  1.0000
  C   C21       1.0  0.6103  0.30467  0.54658  1.0000
  C   C22       1.0  0.43099  0.8870699999999999  0.31068  1.0000
  C   C23       1.0  0.64568  0.39029  0.66413  1.0000
  C   C24       1.0  0.7669699999999999  0.25014  0.62813  1.0000
  C   C25       1.0  0.31276999999999994  0.64623  0.10058  1.0000
  C   C26       1.0  0.26828  0.6388699999999999  0.03562  1.0000
  C   C27       1.0  0.23096  0.67595  0.03227  1.0000
  C   C28       1.0  0.18503999999999998  0.66347  0.96942  1.0000
  C   C29       1.0  0.17583  0.61432  0.90914  1.0000
  C   C30       1.0  0.21446999999999997  0.5786500000000001  0.9131700000000001  1.0000
  C   C31       1.0  0.25994  0.59047  0.97558  1.0000
  C   C32       1.0  0.12424999999999993  0.5996099999999999  0.8405999999999999  1.0000
  C   C33       1.0  0.19685  0.6144  0.78315  1.0000
  C   C34       1.0  0.17452  0.63053  0.72661  1.0000
  C   C35       1.0  0.22749999999999992  0.6703299999999999  0.71767  1.0000
  C   C36       1.0  0.20964999999999992  0.6894599999999999  0.66903  1.0000
  C   C37       1.0  0.13810999999999996  0.6686099999999999  0.62787  1.0000
  C   C38       1.0  0.08488999999999992  0.6276499999999999  0.6356  1.0000
  C   C39       1.0  0.1032  0.60888  0.68477  1.0000
  C   C40       1.0  0.11312999999999995  0.49885  0.74943  1.0000
  C   C41       1.0  0.1362  0.47114  0.70289  1.0000
  C   C42       1.0  0.11199999999999993  0.40123  0.66767  1.0000
  C   C43       1.0  0.06220999999999998  0.35684999999999995  0.67546  1.0000
  C   C44       1.0  0.03800000000000002  0.38347  0.72041  1.0000
  C   C45       1.0  0.06390999999999993  0.45343999999999995  0.75789  1.0000
  C   C46       1.0  0.12017999999999998  0.68976  0.57644  1.0000
  C   C47       1.0  0.9822899999999998  0.3359999999999999  0.7261  1.0000
  C   C48       1.0  0.14010999999999998  0.37262999999999996  0.62236  1.0000
  C   C49       1.0  0.21140999999999996  0.89937  0.54508  1.0000
  C   C50       1.0  0.23249  0.96443  0.60311  1.0000
  C   C51       1.0  0.19860999999999998  0.9679499999999999  0.64362  1.0000
  C   C52       1.0  0.21573  0.030869999999999995  0.69423  1.0000
  C   C53       1.0  0.26684999999999987  0.09102999999999993  0.70548  1.0000
  C   C54       1.0  0.30142  0.08682999999999999  0.66571  1.0000
  C   C55       1.0  0.28426  0.024319999999999998  0.61484  1.0000
  C   C56       1.0  0.28368  0.15961  0.7594  1.0000
  C   C57       1.0  0.41344  0.21624999999999997  0.83102  1.0000
  C   C58       1.0  0.44813000000000003  0.27293000000000006  0.9037400000000001  1.0000
  C   C59       1.0  0.51009  0.28164  0.95209  1.0000
  C   C60       1.0  0.54135  0.3305  0.01984  1.0000
  C   C61       1.0  0.51136  0.37216  0.04058  1.0000
  C   C62       1.0  0.4504  0.36469  0.99228  1.0000
  C   C63       1.0  0.41909  0.31535999999999986  0.9243399999999999  1.0000
  C   C64       1.0  0.36343  0.25046000000000007  0.7496  1.0000
  C   C65       1.0  0.43286  0.29656  0.76808  1.0000
  C   C66       1.0  0.44381  0.33185  0.73342  1.0000
  C   C67       1.0  0.3862699999999999  0.32438  0.6816  1.0000
  C   C68       1.0  0.31740999999999997  0.27967  0.66347  1.0000
  C   C69       1.0  0.30578  0.24218999999999993  0.69592  1.0000
  C   C70       1.0  0.54532  0.42367999999999995  0.11314000000000002  1.0000
  C   C71       1.0  0.25636  0.27387  0.60999  1.0000
  C   C72       1.0  0.5169099999999999  0.37700999999999996  0.74988  1.0000
  C   C73       1.0  0.81277  0.10058000000000002  0.64623  1.0000
  C   C74       1.0  0.76828  0.03561999999999999  0.63887  1.0000
  C   C75       1.0  0.73096  0.03226999999999997  0.67595  1.0000
  C   C76       1.0  0.6850399999999999  0.9694199999999997  0.66347  1.0000
  C   C77       1.0  0.67583  0.9091399999999998  0.61432  1.0000
  C   C78       1.0  0.7144699999999998  0.9131699999999999  0.57865  1.0000
  C   C79       1.0  0.75994  0.97559  0.59047  1.0000
  C   C80       1.0  0.62425  0.8406  0.59961  1.0000
  C   C81       1.0  0.6968499999999999  0.78315  0.61439  1.0000
  C   C82       1.0  0.67452  0.72661  0.63052  1.0000
  C   C83       1.0  0.7274999999999999  0.71767  0.67033  1.0000
  C   C84       1.0  0.70965  0.6690299999999999  0.68946  1.0000
  C   C85       1.0  0.63811  0.62787  0.66861  1.0000
  C   C86       1.0  0.58489  0.6355999999999999  0.62764  1.0000
  C   C87       1.0  0.6031999999999997  0.6847699999999999  0.60888  1.0000
  C   C88       1.0  0.6131299999999998  0.74943  0.49884  1.0000
  C   C89       1.0  0.6362  0.70289  0.47114  1.0000
  C   C90       1.0  0.612  0.6676699999999999  0.40122  1.0000
  C   C91       1.0  0.5622099999999999  0.6754599999999997  0.35685  1.0000
  C   C92       1.0  0.5379999999999999  0.72041  0.38347  1.0000
  C   C93       1.0  0.56391  0.7579  0.45344  1.0000
  C   C94       1.0  0.62018  0.57644  0.68976  1.0000
  C   C95       1.0  0.48228999999999994  0.7261099999999999  0.336  1.0000
  C   C96       1.0  0.64011  0.6223599999999999  0.37263  1.0000
  C   C97       1.0  0.7114099999999998  0.5450799999999998  0.89937  1.0000
  C   C98       1.0  0.73249  0.6031199999999999  0.96442  1.0000
  C   C99       1.0  0.6986099999999998  0.64363  0.9679500000000001  1.0000
  C   C100      1.0  0.71572  0.69423  0.030870000000000005  1.0000
  C   C101      1.0  0.7668499999999999  0.70548  0.09103  1.0000
  C   C102      1.0  0.80142  0.66571  0.08683  1.0000
  C   C103      1.0  0.7842599999999998  0.61484  0.02432  1.0000
  C   C104      1.0  0.78368  0.7594  0.15961  1.0000
  C   C105      1.0  0.9134399999999999  0.83102  0.21625  1.0000
  C   C106      1.0  0.9481299999999999  0.90374  0.27293  1.0000
  C   C107      1.0  0.010089999999999905  0.9520999999999998  0.28164  1.0000
  C   C108      1.0  0.04135000000000001  0.019839999999999986  0.3305  1.0000
  C   C109      1.0  0.011360000000000002  0.04058000000000001  0.37216  1.0000
  C   C110      1.0  0.9503999999999999  0.99228  0.36469  1.0000
  C   C111      1.0  0.9190899999999999  0.92434  0.31535  1.0000
  C   C112      1.0  0.8634299999999998  0.7496  0.25045  1.0000
  C   C113      1.0  0.9328599999999999  0.7680799999999999  0.29655  1.0000
  C   C114      1.0  0.9438099999999999  0.7334199999999998  0.33185  1.0000
  C   C115      1.0  0.8862699999999998  0.6815999999999999  0.32438  1.0000
  C   C116      1.0  0.81741  0.66347  0.27967  1.0000
  C   C117      1.0  0.8057799999999999  0.69592  0.24218  1.0000
  C   C118      1.0  0.045320000000000055  0.11314000000000005  0.42368000000000006  1.0000
  C   C119      1.0  0.7563599999999999  0.6099899999999999  0.27387  1.0000
  C   C120      1.0  0.016910000000000022  0.7498799999999999  0.377  1.0000
  C   C121      1.0  0.16637999999999997  0.35317999999999994  0.45414  1.0000
  C   C122      1.0  0.12951999999999994  0.36039999999999994  0.39634  1.0000
  C   C123      1.0  0.05533999999999999  0.32353  0.356  1.0000
  C   C124      1.0  0.022020000000000005  0.33627  0.30577  1.0000
  C   C125      1.0  0.06192999999999999  0.38546  0.29475  1.0000
  C   C126      1.0  0.13608  0.42071  0.33416  1.0000
  C   C127      1.0  0.16957999999999995  0.40862  0.38463  1.0000
  C   C128      1.0  0.02515  0.40064999999999995  0.24125000000000002  1.0000
  C   C129      1.0  0.08290999999999996  0.3855999999999999  0.16894  1.0000
  C   C130      1.0  0.04451000000000004  0.36948  0.09629  1.0000
  C   C131      1.0  0.05740999999999999  0.32926999999999995  0.04739  1.0000
  C   C132      1.0  0.02035000000000003  0.31017  0.97967  1.0000
  C   C133      1.0  0.96987  0.33147999999999994  0.9595299999999999  1.0000
  C   C134      1.0  0.95785  0.37274  0.00841  1.0000
  C   C135      1.0  0.99509  0.39158  0.07629  1.0000
  C   C136      1.0  0.11427000000000001  0.50128  0.25066  1.0000
  C   C137      1.0  0.16476000000000005  0.5290400000000001  0.23166000000000003  1.0000
  C   C138      1.0  0.20998000000000003  0.5989900000000001  0.26625  1.0000
  C   C139      1.0  0.20408999999999997  0.64319  0.31828  1.0000
  C   C140      1.0  0.15364  0.61652  0.33681  1.0000
  C   C141      1.0  0.11029999999999998  0.54658  0.30467  1.0000
  C   C142      1.0  0.9309899999999998  0.31067999999999996  0.8870600000000001  1.0000
  C   C143      1.0  0.14568  0.66413  0.39029  1.0000
  C   C144      1.0  0.26696999999999993  0.6281299999999999  0.25014  1.0000
  N   N1        1.0  0.5705  0.21718000000000004  0.4316400000000001  1.0000
  N   N2        1.0  0.13872999999999996  0.56849  0.78557  1.0000
  N   N3        1.0  0.35298  0.21448  0.78328  1.0000
  N   N4        1.0  0.6387299999999999  0.78557  0.56849  1.0000
  N   N5        1.0  0.85298  0.7832799999999999  0.21446999999999997  1.0000
  N   N6        1.0  0.07049999999999997  0.43164  0.21718  1.0000
  O   O1        1.0  0.3867299999999999  0.8672099999999999  0.33176  1.0000
  O   O2        1.0  0.44244  0.84338  0.27174  1.0000
  O   O3        1.0  0.60154  0.40958  0.6421  1.0000
  O   O4        1.0  0.6852699999999999  0.41455  0.72814  1.0000
  O   O5        1.0  0.79656  0.27317  0.69202  1.0000
  O   O6        1.0  0.78459  0.21536999999999995  0.58778  1.0000
  O   O7        1.0  0.63318  0.46755999999999986  0.30981  1.0000
  O   O8        1.0  0.73355  0.49431  0.39537  1.0000
  O   O9        1.0  0.055060000000000046  0.66845  0.53527  1.0000
  O   O10       1.0  0.17040999999999998  0.72935  0.57219  1.0000
  O   O11       1.0  0.9600199999999995  0.35811999999999994  0.76735  1.0000
  O   O12       1.0  0.9578699999999999  0.272  0.68615  1.0000
  O   O13       1.0  0.10682999999999998  0.30872  0.58189  1.0000
  O   O14       1.0  0.19719999999999993  0.41344999999999993  0.62734  1.0000
  O   O15       1.0  0.3224999999999999  0.6893599999999999  0.15734  1.0000
  O   O16       1.0  0.33855  0.60444  0.09873  1.0000
  O   O17       1.0  0.5210899999999999  0.46465  0.13352  1.0000
  O   O18       1.0  0.6003199999999999  0.4280599999999999  0.15637  1.0000
  O   O19       1.0  0.19307  0.23255  0.5905  1.0000
  O   O20       1.0  0.27198  0.31375  0.58581  1.0000
  O   O21       1.0  0.5240899999999998  0.41835999999999995  0.72743  1.0000
  O   O22       1.0  0.5688  0.37107999999999997  0.78468  1.0000
  O   O23       1.0  0.1644299999999999  0.8427399999999999  0.53149  1.0000
  O   O24       1.0  0.23844000000000007  0.90106  0.5047  1.0000
  O   O25       1.0  0.55506  0.53527  0.66845  1.0000
  O   O26       1.0  0.67041  0.57219  0.72935  1.0000
  O   O27       1.0  0.46002  0.76735  0.35812  1.0000
  O   O28       1.0  0.45787  0.68615  0.272  1.0000
  O   O29       1.0  0.6068299999999998  0.5819  0.30872  1.0000
  O   O30       1.0  0.6971999999999998  0.62734  0.4134399999999999  1.0000
  O   O31       1.0  0.8224999999999998  0.15734  0.68936  1.0000
  O   O32       1.0  0.83855  0.09873000000000001  0.60444  1.0000
  O   O33       1.0  0.021089999999999987  0.13351999999999994  0.46465  1.0000
  O   O34       1.0  0.10032  0.15637  0.42806  1.0000
  O   O35       1.0  0.69307  0.5905  0.23255  1.0000
  O   O36       1.0  0.7719799999999999  0.58582  0.31375  1.0000
  O   O37       1.0  0.024090000000000004  0.7274299999999999  0.41836  1.0000
  O   O38       1.0  0.06879999999999996  0.78468  0.37107  1.0000
  O   O39       1.0  0.6644299999999999  0.5314899999999999  0.8427399999999999  1.0000
  O   O40       1.0  0.7384400000000001  0.5047000000000001  0.9010600000000001  1.0000
  O   O41       1.0  0.8867299999999999  0.33175999999999994  0.8672099999999999  1.0000
  O   O42       1.0  0.94244  0.27174000000000004  0.8433800000000001  1.0000
  O   O43       1.0  0.10153999999999994  0.6421  0.40958  1.0000
  O   O44       1.0  0.18526999999999993  0.7281399999999999  0.41455  1.0000
  O   O45       1.0  0.29655999999999993  0.6920199999999999  0.27317  1.0000
  O   O46       1.0  0.28459  0.58778  0.21537  1.0000
  O   O47       1.0  0.13318  0.30981  0.46756  1.0000
  O   O48       1.0  0.23355  0.39537  0.49431  1.0000
