data_image0
_chemical_formula_structural       Cd8H60C120O56
_chemical_formula_sum              "Cd8 H60 C120 O56"
_cell_length_a       14.0007
_cell_length_b       16.12655
_cell_length_c       16.80017
_cell_angle_alpha    90.0
_cell_angle_beta     90.0
_cell_angle_gamma    109.63591

_space_group_name_H-M_alt    "P 1"
_space_group_IT_number       1

loop_
  _space_group_symop_operation_xyz
  'x, y, z'

loop_
  _atom_site_type_symbol
  _atom_site_label
  _atom_site_symmetry_multiplicity
  _atom_site_fract_x
  _atom_site_fract_y
  _atom_site_fract_z
  _atom_site_occupancy
  Cd  Cd1       1.0  0.7034499999999999  0.8575999999999998  0.50011  1.0000
  Cd  Cd2       1.0  0.5801899999999999  0.6263599999999998  0.49287  1.0000
  Cd  Cd3       1.0  0.29654999999999987  0.6423999999999997  0.00011  1.0000
  Cd  Cd4       1.0  0.41980999999999996  0.8736499999999998  0.9928599999999999  1.0000
  Cd  Cd5       1.0  0.29654  0.1424  0.49988999999999995  1.0000
  Cd  Cd6       1.0  0.41981  0.3736399999999999  0.50713  1.0000
  Cd  Cd7       1.0  0.70345  0.3576  0.9998899999999998  1.0000
  Cd  Cd8       1.0  0.58019  0.12636  0.00713  1.0000
  H   H1        1.0  0.10239  0.57775  0.92007  1.0000
  H   H2        1.0  0.8270800000000001  0.57936  0.40814  1.0000
  H   H3        1.0  0.98243  0.53559  0.38558  1.0000
  H   H4        1.0  0.16680999999999996  0.8104699999999998  0.37706  1.0000
  H   H5        1.0  0.01475  0.85237  0.40424  1.0000
  H   H6        1.0  0.19405999999999987  0.7044099999999998  0.22626  1.0000
  H   H7        1.0  0.51562  0.8348299999999997  0.25761  1.0000
  H   H8        1.0  0.33422  0.68976  0.45216  1.0000
  H   H9        1.0  0.92142  0.03973  0.71449  1.0000
  H   H10       1.0  0.79257  0.06664999999999997  0.94275  1.0000
  H   H11       1.0  0.5980999999999999  0.9320699999999997  0.75075  1.0000
  H   H12       1.0  0.14851999999999999  0.18623999999999993  0.89619  1.0000
  H   H13       1.0  0.22327999999999992  0.34916999999999987  0.92219  1.0000
  H   H14       1.0  0.93088  0.37513999999999986  0.88096  1.0000
  H   H15       1.0  0.85658  0.21490999999999993  0.85654  1.0000
  H   H16       1.0  0.89761  0.9222499999999998  0.42007  1.0000
  H   H17       1.0  0.17291999999999996  0.9206399999999998  0.90814  1.0000
  H   H18       1.0  0.017569999999999877  0.9644099999999998  0.88558  1.0000
  H   H19       1.0  0.83319  0.68953  0.87706  1.0000
  H   H20       1.0  0.98525  0.64763  0.90424  1.0000
  H   H21       1.0  0.8059399999999999  0.7955899999999998  0.72626  1.0000
  H   H22       1.0  0.4843700000000001  0.66517  0.75761  1.0000
  H   H23       1.0  0.66578  0.81024  0.95216  1.0000
  H   H24       1.0  0.07857999999999996  0.4602699999999999  0.21449  1.0000
  H   H25       1.0  0.20743  0.43335  0.44275  1.0000
  H   H26       1.0  0.4018999999999999  0.5679299999999998  0.25075  1.0000
  H   H27       1.0  0.85148  0.3137599999999999  0.39619  1.0000
  H   H28       1.0  0.77672  0.15082999999999994  0.42219  1.0000
  H   H29       1.0  0.06912  0.12486  0.38096  1.0000
  H   H30       1.0  0.14342  0.28509  0.35654  1.0000
  H   H31       1.0  0.89761  0.42225  0.07993  1.0000
  H   H32       1.0  0.17292  0.42064  0.59185  1.0000
  H   H33       1.0  0.01755999999999996  0.4644099999999999  0.61442  1.0000
  H   H34       1.0  0.83319  0.18952999999999995  0.62294  1.0000
  H   H35       1.0  0.98525  0.14762999999999996  0.59576  1.0000
  H   H36       1.0  0.80594  0.2955899999999999  0.77373  1.0000
  H   H37       1.0  0.4843700000000001  0.16517  0.74239  1.0000
  H   H38       1.0  0.66578  0.3102399999999999  0.54784  1.0000
  H   H39       1.0  0.07857999999999998  0.96027  0.28551  1.0000
  H   H40       1.0  0.20742999999999992  0.9333499999999998  0.05724  1.0000
  H   H41       1.0  0.4019  0.06793  0.24925  1.0000
  H   H42       1.0  0.85148  0.81376  0.10381  1.0000
  H   H43       1.0  0.7767199999999999  0.6508299999999998  0.07781  1.0000
  H   H44       1.0  0.06911999999999993  0.6248599999999997  0.11904  1.0000
  H   H45       1.0  0.14341999999999994  0.7850899999999997  0.14346  1.0000
  H   H46       1.0  0.10238999999999997  0.07774999999999997  0.57993  1.0000
  H   H47       1.0  0.8270800000000001  0.07936  0.09185  1.0000
  H   H48       1.0  0.98243  0.03559  0.11442  1.0000
  H   H49       1.0  0.16681  0.31047  0.12294  1.0000
  H   H50       1.0  0.014749999999999952  0.3523699999999999  0.09576  1.0000
  H   H51       1.0  0.19406  0.20441  0.27373  1.0000
  H   H52       1.0  0.51562  0.33483  0.24239000000000002  1.0000
  H   H53       1.0  0.33422  0.18975999999999996  0.04784  1.0000
  H   H54       1.0  0.9214200000000001  0.53973  0.78551  1.0000
  H   H55       1.0  0.79257  0.5666499999999998  0.55724  1.0000
  H   H56       1.0  0.5981000000000001  0.4320699999999999  0.74925  1.0000
  H   H57       1.0  0.14852  0.68624  0.60381  1.0000
  H   H58       1.0  0.2232799999999999  0.8491699999999998  0.57781  1.0000
  H   H59       1.0  0.93088  0.8751399999999998  0.61904  1.0000
  H   H60       1.0  0.8565799999999999  0.7149099999999998  0.64346  1.0000
  C   C1        1.0  0.81845  0.74051  0.42768  1.0000
  C   C2        1.0  0.9021700000000001  0.62847  0.40158  1.0000
  C   C3        1.0  0.98697  0.6042099999999998  0.38874  1.0000
  C   C4        1.0  0.08202999999999999  0.67049  0.37969  1.0000
  C   C5        1.0  0.0923999999999999  0.7602799999999997  0.38283  1.0000
  C   C6        1.0  0.006769999999999909  0.7832499999999998  0.39776  1.0000
  C   C7        1.0  0.9111  0.718  0.40747  1.0000
  C   C8        1.0  0.2550299999999999  0.6962599999999998  0.34296  1.0000
  C   C9        1.0  0.26123  0.7241  0.26375  1.0000
  C   C10       1.0  0.35607  0.77374  0.23293  1.0000
  C   C11       1.0  0.44229999999999997  0.7952799999999998  0.28158  1.0000
  C   C12       1.0  0.43482999999999983  0.7647699999999997  0.36034  1.0000
  C   C13       1.0  0.34056  0.71431  0.39141  1.0000
  C   C14       1.0  0.3667099999999999  0.8022799999999999  0.14746  1.0000
  C   C15       1.0  0.5281899999999999  0.7868399999999998  0.41075  1.0000
  C   C16       1.0  0.7456299999999999  0.9472799999999998  0.64105  1.0000
  C   C17       1.0  0.75794  0.9849899999999998  0.72305  1.0000
  C   C18       1.0  0.85536  0.030309999999999993  0.75211  1.0000
  C   C19       1.0  0.86635  0.061699999999999984  0.83002  1.0000
  C   C20       1.0  0.7832  0.0455  0.88091  1.0000
  C   C21       1.0  0.68638  0.9977599999999998  0.85191  1.0000
  C   C22       1.0  0.67346  0.9692999999999998  0.77262  1.0000
  C   C23       1.0  0.59751  0.9697799999999998  0.90731  1.0000
  C   C24       1.0  0.9992  0.19193  0.87356  1.0000
  C   C25       1.0  0.10258999999999999  0.22874999999999995  0.89344  1.0000
  C   C26       1.0  0.14347  0.31849  0.9074  1.0000
  C   C27       1.0  0.08219999999999994  0.3720999999999999  0.90194  1.0000
  C   C28       1.0  0.9787500000000001  0.3340999999999999  0.88332  1.0000
  C   C29       1.0  0.93695  0.2441  0.86933  1.0000
  C   C30       1.0  0.12878  0.46751  0.91778  1.0000
  C   C31       1.0  0.18155000000000007  0.75949  0.92768  1.0000
  C   C32       1.0  0.09782999999999996  0.8715299999999998  0.90158  1.0000
  C   C33       1.0  0.01302999999999995  0.8957899999999998  0.88874  1.0000
  C   C34       1.0  0.91797  0.8295199999999998  0.87969  1.0000
  C   C35       1.0  0.9076  0.7397199999999998  0.88283  1.0000
  C   C36       1.0  0.99323  0.71675  0.89776  1.0000
  C   C37       1.0  0.08890000000000005  0.782  0.90746  1.0000
  C   C38       1.0  0.74497  0.8037399999999998  0.84296  1.0000
  C   C39       1.0  0.73877  0.7759099999999998  0.76375  1.0000
  C   C40       1.0  0.64393  0.72626  0.73293  1.0000
  C   C41       1.0  0.5577  0.70472  0.78158  1.0000
  C   C42       1.0  0.56517  0.7352299999999998  0.86034  1.0000
  C   C43       1.0  0.6594399999999999  0.7856899999999998  0.89141  1.0000
  C   C44       1.0  0.6332899999999999  0.6977199999999998  0.64746  1.0000
  C   C45       1.0  0.4718  0.7131599999999998  0.91075  1.0000
  C   C46       1.0  0.25437  0.55272  0.14105  1.0000
  C   C47       1.0  0.24206  0.51501  0.22305  1.0000
  C   C48       1.0  0.14463999999999996  0.4696899999999999  0.25211  1.0000
  C   C49       1.0  0.13364999999999994  0.4382999999999999  0.33002  1.0000
  C   C50       1.0  0.21679999999999994  0.4544999999999999  0.38091  1.0000
  C   C51       1.0  0.31362  0.50224  0.35191  1.0000
  C   C52       1.0  0.32654  0.5307099999999999  0.27262  1.0000
  C   C53       1.0  0.40249  0.53022  0.40731  1.0000
  C   C54       1.0  0.0008000000000000019  0.30807  0.37356  1.0000
  C   C55       1.0  0.8974099999999999  0.27125  0.39344  1.0000
  C   C56       1.0  0.85653  0.18151  0.4074  1.0000
  C   C57       1.0  0.9178  0.1279  0.40194  1.0000
  C   C58       1.0  0.02124999999999998  0.16589999999999994  0.38332  1.0000
  C   C59       1.0  0.06304999999999997  0.25589999999999996  0.36933  1.0000
  C   C60       1.0  0.87122  0.03249  0.41778  1.0000
  C   C61       1.0  0.18155  0.25949  0.57232  1.0000
  C   C62       1.0  0.09783000000000001  0.37153  0.59842  1.0000
  C   C63       1.0  0.013029999999999983  0.39578999999999986  0.61126  1.0000
  C   C64       1.0  0.91797  0.32951  0.62031  1.0000
  C   C65       1.0  0.9076  0.23971999999999996  0.61717  1.0000
  C   C66       1.0  0.99322  0.21674999999999997  0.60224  1.0000
  C   C67       1.0  0.0889  0.282  0.59253  1.0000
  C   C68       1.0  0.74497  0.3037399999999999  0.65704  1.0000
  C   C69       1.0  0.73877  0.2759099999999999  0.73625  1.0000
  C   C70       1.0  0.64393  0.22625999999999993  0.76707  1.0000
  C   C71       1.0  0.5577  0.20471999999999996  0.71842  1.0000
  C   C72       1.0  0.56517  0.23522999999999997  0.63966  1.0000
  C   C73       1.0  0.65944  0.28569  0.60859  1.0000
  C   C74       1.0  0.63328  0.19771999999999995  0.85254  1.0000
  C   C75       1.0  0.4718  0.21315999999999993  0.58925  1.0000
  C   C76       1.0  0.25437  0.05271999999999999  0.35895  1.0000
  C   C77       1.0  0.24206  0.015009999999999997  0.27695  1.0000
  C   C78       1.0  0.1446399999999999  0.9696899999999998  0.24789  1.0000
  C   C79       1.0  0.13364999999999988  0.9382999999999998  0.16997  1.0000
  C   C80       1.0  0.21679999999999988  0.9544999999999998  0.11908999999999999  1.0000
  C   C81       1.0  0.31362  0.002239999999999999  0.14809  1.0000
  C   C82       1.0  0.32654  0.030699999999999995  0.22738  1.0000
  C   C83       1.0  0.40249  0.030219999999999993  0.09269  1.0000
  C   C84       1.0  0.0007999999999999225  0.8080699999999997  0.12644  1.0000
  C   C85       1.0  0.8974099999999999  0.7712499999999998  0.10656  1.0000
  C   C86       1.0  0.85653  0.6815099999999997  0.0926  1.0000
  C   C87       1.0  0.9177999999999998  0.6278999999999998  0.09806  1.0000
  C   C88       1.0  0.02124999999999991  0.6658999999999998  0.11668  1.0000
  C   C89       1.0  0.0630499999999999  0.7558999999999998  0.13067  1.0000
  C   C90       1.0  0.87122  0.53249  0.08222  1.0000
  C   C91       1.0  0.81845  0.24050999999999995  0.07232  1.0000
  C   C92       1.0  0.9021700000000001  0.12847  0.09842  1.0000
  C   C93       1.0  0.98697  0.10420999999999997  0.11126  1.0000
  C   C94       1.0  0.08202999999999998  0.17048999999999995  0.12030999999999999  1.0000
  C   C95       1.0  0.0924  0.26028  0.11717  1.0000
  C   C96       1.0  0.006769999999999989  0.28325  0.10224  1.0000
  C   C97       1.0  0.9111  0.21799999999999994  0.09253  1.0000
  C   C98       1.0  0.2550299999999999  0.19625999999999996  0.15704  1.0000
  C   C99       1.0  0.26123  0.22409999999999994  0.23625  1.0000
  C   C100      1.0  0.35607  0.27374  0.26707  1.0000
  C   C101      1.0  0.4423  0.29528  0.21842  1.0000
  C   C102      1.0  0.43482999999999983  0.2647699999999999  0.13966  1.0000
  C   C103      1.0  0.34056  0.21430999999999994  0.10859  1.0000
  C   C104      1.0  0.36671000000000004  0.30228  0.35254  1.0000
  C   C105      1.0  0.52819  0.28684  0.08925  1.0000
  C   C106      1.0  0.74563  0.4472799999999999  0.85895  1.0000
  C   C107      1.0  0.75794  0.48498999999999987  0.77695  1.0000
  C   C108      1.0  0.8553599999999998  0.5303099999999997  0.74789  1.0000
  C   C109      1.0  0.8663500000000001  0.5617  0.66997  1.0000
  C   C110      1.0  0.7832  0.5454999999999998  0.61909  1.0000
  C   C111      1.0  0.68638  0.49775999999999987  0.64809  1.0000
  C   C112      1.0  0.67346  0.4692999999999999  0.72738  1.0000
  C   C113      1.0  0.59751  0.46977999999999986  0.59269  1.0000
  C   C114      1.0  0.9992  0.6919299999999998  0.62644  1.0000
  C   C115      1.0  0.10258999999999992  0.7287599999999997  0.60656  1.0000
  C   C116      1.0  0.14347  0.8185  0.5926  1.0000
  C   C117      1.0  0.08220000000000001  0.8721  0.59806  1.0000
  C   C118      1.0  0.9787500000000001  0.8341  0.61668  1.0000
  C   C119      1.0  0.93695  0.7440999999999998  0.63067  1.0000
  C   C120      1.0  0.12877999999999995  0.9675099999999998  0.58222  1.0000
  O   O1        1.0  0.73383  0.67945  0.42498  1.0000
  O   O2        1.0  0.8327299999999999  0.8210099999999998  0.44802  1.0000
  O   O3        1.0  0.16321999999999995  0.64128  0.37375  1.0000
  O   O4        1.0  0.29438999999999993  0.7660699999999998  0.09911  1.0000
  O   O5        1.0  0.44819999999999993  0.8626299999999998  0.12688  1.0000
  O   O6        1.0  0.52374  0.75018  0.47943  1.0000
  O   O7        1.0  0.60889  0.84325  0.38462  1.0000
  O   O8        1.0  0.6562  0.9148599999999998  0.61191  1.0000
  O   O9        1.0  0.82384  0.9457899999999998  0.60349  1.0000
  O   O10       1.0  0.5143  0.91684  0.8808  1.0000
  O   O11       1.0  0.60982  0.9957399999999997  0.98001  1.0000
  O   O12       1.0  0.9658700000000001  0.10323999999999997  0.85708  1.0000
  O   O13       1.0  0.06716999999999991  0.5141099999999997  0.90511  1.0000
  O   O14       1.0  0.21790999999999994  0.4995199999999999  0.94082  1.0000
  O   O15       1.0  0.26617  0.82055  0.92497  1.0000
  O   O16       1.0  0.16726999999999992  0.6789899999999998  0.94801  1.0000
  O   O17       1.0  0.83678  0.85872  0.87375  1.0000
  O   O18       1.0  0.7056  0.7339299999999999  0.59911  1.0000
  O   O19       1.0  0.5517900000000002  0.63737  0.62688  1.0000
  O   O20       1.0  0.47626  0.74982  0.97942  1.0000
  O   O21       1.0  0.39111  0.65675  0.88462  1.0000
  O   O22       1.0  0.3437999999999999  0.5851399999999998  0.11191  1.0000
  O   O23       1.0  0.17615999999999996  0.5542099999999998  0.10349  1.0000
  O   O24       1.0  0.4857000000000001  0.58316  0.3808  1.0000
  O   O25       1.0  0.39017999999999997  0.5042599999999998  0.48001  1.0000
  O   O26       1.0  0.03412999999999997  0.3967599999999999  0.35708  1.0000
  O   O27       1.0  0.93283  0.9858899999999998  0.40511  1.0000
  O   O28       1.0  0.78209  0.0004799999999999999  0.44082  1.0000
  O   O29       1.0  0.2661699999999999  0.3205499999999999  0.57502  1.0000
  O   O30       1.0  0.16726999999999997  0.17898999999999995  0.55198  1.0000
  O   O31       1.0  0.83678  0.35872  0.62625  1.0000
  O   O32       1.0  0.7056  0.23392999999999994  0.90088  1.0000
  O   O33       1.0  0.5517900000000002  0.13737  0.87312  1.0000
  O   O34       1.0  0.47625999999999996  0.24981999999999993  0.52057  1.0000
  O   O35       1.0  0.39111  0.15675  0.61538  1.0000
  O   O36       1.0  0.34380000000000005  0.08513999999999997  0.38809  1.0000
  O   O37       1.0  0.17616000000000004  0.054209999999999994  0.39651  1.0000
  O   O38       1.0  0.4857000000000001  0.08316  0.1192  1.0000
  O   O39       1.0  0.39018  0.004259999999999998  0.01999  1.0000
  O   O40       1.0  0.03412999999999994  0.8967599999999998  0.14291  1.0000
  O   O41       1.0  0.93283  0.4858899999999999  0.09489  1.0000
  O   O42       1.0  0.78209  0.50048  0.05918  1.0000
  O   O43       1.0  0.73383  0.17945  0.07502  1.0000
  O   O44       1.0  0.8327300000000001  0.3210099999999999  0.05198  1.0000
  O   O45       1.0  0.16322  0.14128  0.12625  1.0000
  O   O46       1.0  0.29439  0.26606999999999986  0.40089  1.0000
  O   O47       1.0  0.4482  0.36263  0.37312  1.0000
  O   O48       1.0  0.52374  0.25018  0.02057  1.0000
  O   O49       1.0  0.60889  0.3432499999999999  0.11538  1.0000
  O   O50       1.0  0.6562  0.41485999999999995  0.88809  1.0000
  O   O51       1.0  0.82384  0.4457899999999999  0.89651  1.0000
  O   O52       1.0  0.5142999999999999  0.4168399999999999  0.6192  1.0000
  O   O53       1.0  0.60982  0.49574  0.51999  1.0000
  O   O54       1.0  0.9658699999999999  0.6032399999999998  0.64291  1.0000
  O   O55       1.0  0.06717  0.014109999999999996  0.59489  1.0000
  O   O56       1.0  0.21791  0.9995199999999999  0.55918  1.0000
