data_image0
_chemical_formula_structural       Zn12P8H56C112O56
_chemical_formula_sum              "Zn12 P8 H56 C112 O56"
_cell_length_a       12.21653
_cell_length_b       17.00233
_cell_length_c       20.71511
_cell_angle_alpha    90.02794999999999
_cell_angle_beta     89.99639
_cell_angle_gamma    89.9982

_space_group_name_H-M_alt    "P 1"
_space_group_IT_number       1

loop_
  _space_group_symop_operation_xyz
  'x, y, z'

loop_
  _atom_site_type_symbol
  _atom_site_label
  _atom_site_symmetry_multiplicity
  _atom_site_fract_x
  _atom_site_fract_y
  _atom_site_fract_z
  _atom_site_occupancy
  Zn  Zn1       1.0  0.54273  0.44213  0.9136499999999999  1.0000
  Zn  Zn2       1.0  0.9571500000000001  0.9421699999999998  0.58656  1.0000
  Zn  Zn3       1.0  0.54279  0.05786  0.08634  1.0000
  Zn  Zn4       1.0  0.95731  0.5578199999999998  0.41341  1.0000
  Zn  Zn5       1.0  0.45726  0.55787  0.08634999999999998  1.0000
  Zn  Zn6       1.0  0.04282  0.05781999999999999  0.4134399999999999  1.0000
  Zn  Zn7       1.0  0.45721  0.94214  0.9136599999999998  1.0000
  Zn  Zn8       1.0  0.04273  0.44218  0.5866  1.0000
  Zn  Zn9       1.0  0.62016  0.25030999999999987  0.9999199999999999  1.0000
  Zn  Zn10      1.0  0.8799899999999999  0.7493499999999997  0.49965  1.0000
  Zn  Zn11      1.0  0.37983  0.74974  0.00019  1.0000
  Zn  Zn12      1.0  0.12000999999999999  0.25046  0.50027  1.0000
  P   P1        1.0  0.45091  0.37606  0.04583  1.0000
  P   P2        1.0  0.04857  0.87602  0.45412  1.0000
  P   P3        1.0  0.45096  0.12399999999999999  0.9541799999999999  1.0000
  P   P4        1.0  0.04864  0.62392  0.5459  1.0000
  P   P5        1.0  0.549  0.62398  0.9541699999999999  1.0000
  P   P6        1.0  0.95139  0.12396999999999998  0.54588  1.0000
  P   P7        1.0  0.54908  0.87602  0.04582  1.0000
  P   P8        1.0  0.95138  0.37608  0.4541  1.0000
  H   H1        1.0  0.42208  0.23215999999999995  0.11731999999999998  1.0000
  H   H2        1.0  0.26  0.15946  0.15657  1.0000
  H   H3        1.0  0.11928  0.16923  0.23158  1.0000
  H   H4        1.0  0.7968399999999999  0.07626  0.20069  1.0000
  H   H5        1.0  0.94462  0.21991999999999995  0.05423  1.0000
  H   H6        1.0  0.04911  0.33058  0.06448  1.0000
  H   H7        1.0  0.21239  0.4027999999999999  0.02517  1.0000
  H   H8        1.0  0.07773  0.73206  0.38272999999999996  1.0000
  H   H9        1.0  0.23979  0.65945  0.34337  1.0000
  H   H10       1.0  0.38111  0.66918  0.26814  1.0000
  H   H11       1.0  0.7034099999999999  0.57618  0.2995  1.0000
  H   H12       1.0  0.55515  0.71998  0.44576999999999994  1.0000
  H   H13       1.0  0.45057  0.8307299999999997  0.4355  1.0000
  H   H14       1.0  0.28735  0.9028299999999998  0.47491  1.0000
  H   H15       1.0  0.42206  0.26785  0.8826699999999998  1.0000
  H   H16       1.0  0.26  0.34054  0.84342  1.0000
  H   H17       1.0  0.11929  0.33076  0.76841  1.0000
  H   H18       1.0  0.79683  0.42373  0.79928  1.0000
  H   H19       1.0  0.94459  0.28012  0.94576  1.0000
  H   H20       1.0  0.04912  0.16942  0.9355  1.0000
  H   H21       1.0  0.21239  0.0972  0.97481  1.0000
  H   H22       1.0  0.07771  0.7679299999999998  0.61727  1.0000
  H   H23       1.0  0.23979  0.84055  0.65663  1.0000
  H   H24       1.0  0.38111  0.8308199999999998  0.7318199999999999  1.0000
  H   H25       1.0  0.70345  0.9237899999999998  0.70043  1.0000
  H   H26       1.0  0.55515  0.7799799999999998  0.5541899999999998  1.0000
  H   H27       1.0  0.45057  0.66927  0.5644799999999999  1.0000
  H   H28       1.0  0.28736  0.59717  0.52508  1.0000
  H   H29       1.0  0.5779  0.7678499999999998  0.8826699999999998  1.0000
  H   H30       1.0  0.74  0.84054  0.84342  1.0000
  H   H31       1.0  0.8807099999999999  0.83078  0.76843  1.0000
  H   H32       1.0  0.20314999999999997  0.92374  0.7993199999999999  1.0000
  H   H33       1.0  0.05537  0.78007  0.9457699999999998  1.0000
  H   H34       1.0  0.9508499999999999  0.66941  0.9355099999999998  1.0000
  H   H35       1.0  0.78757  0.5971899999999998  0.97481  1.0000
  H   H36       1.0  0.92225  0.26794  0.61726  1.0000
  H   H37       1.0  0.7602  0.34056  0.65664  1.0000
  H   H38       1.0  0.61887  0.33084  0.73187  1.0000
  H   H39       1.0  0.29659  0.4238599999999999  0.70049  1.0000
  H   H40       1.0  0.44483000000000006  0.28004  0.55424  1.0000
  H   H41       1.0  0.5494  0.1693  0.5645  1.0000
  H   H42       1.0  0.71261  0.09718999999999997  0.52509  1.0000
  H   H43       1.0  0.57794  0.73215  0.11733999999999999  1.0000
  H   H44       1.0  0.73999  0.65944  0.15659  1.0000
  H   H45       1.0  0.8807499999999999  0.6691999999999999  0.23163  1.0000
  H   H46       1.0  0.20319  0.57625  0.2007  1.0000
  H   H47       1.0  0.05537  0.71989  0.05426  1.0000
  H   H48       1.0  0.9509  0.8305499999999998  0.06452  1.0000
  H   H49       1.0  0.78764  0.90278  0.0252  1.0000
  H   H50       1.0  0.92229  0.23203999999999994  0.38274  1.0000
  H   H51       1.0  0.7602099999999999  0.15944  0.34337  1.0000
  H   H52       1.0  0.61888  0.16916  0.26816  1.0000
  H   H53       1.0  0.29657  0.07618  0.29956  1.0000
  H   H54       1.0  0.44485  0.22001  0.4458  1.0000
  H   H55       1.0  0.54943  0.33072  0.43550999999999995  1.0000
  H   H56       1.0  0.71264  0.40282  0.47491999999999995  1.0000
  C   C1        1.0  0.32863  0.32221  0.06852  1.0000
  C   C2        1.0  0.34029  0.25338  0.10635999999999998  1.0000
  C   C3        1.0  0.24939  0.21338  0.12895  1.0000
  C   C4        1.0  0.14249  0.23982999999999996  0.11371  1.0000
  C   C5        1.0  0.04757  0.19664  0.13773  1.0000
  C   C6        1.0  0.04961  0.16102  0.19965  1.0000
  C   C7        1.0  0.9586599999999998  0.12031  0.22254999999999997  1.0000
  C   C8        1.0  0.86638  0.11  0.18302  1.0000
  C   C9        1.0  0.86219  0.14623999999999995  0.12238  1.0000
  C   C10       1.0  0.9506  0.19091999999999995  0.10086  1.0000
  C   C11       1.0  0.13084  0.30841999999999997  0.0748  1.0000
  C   C12       1.0  0.22200999999999999  0.34914  0.05319999999999999  1.0000
  C   C13       1.0  0.9563899999999999  0.0874  0.29001  1.0000
  C   C14       1.0  0.75825  0.1436  0.08370999999999999  1.0000
  C   C15       1.0  0.17101999999999998  0.82216  0.43157  1.0000
  C   C16       1.0  0.1595  0.7533399999999998  0.39367  1.0000
  C   C17       1.0  0.25045  0.7133999999999998  0.3709799999999999  1.0000
  C   C18       1.0  0.3574  0.73988  0.38618  1.0000
  C   C19       1.0  0.4524099999999999  0.69663  0.36218  1.0000
  C   C20       1.0  0.45063  0.661  0.30019999999999997  1.0000
  C   C21       1.0  0.54175  0.6203399999999998  0.27741  1.0000
  C   C22       1.0  0.63374  0.6098199999999999  0.31713  1.0000
  C   C23       1.0  0.63763  0.64588  0.37785  1.0000
  C   C24       1.0  0.54926  0.69078  0.39919999999999994  1.0000
  C   C25       1.0  0.36889  0.80851  0.42514  1.0000
  C   C26       1.0  0.27768  0.84917  0.44683999999999996  1.0000
  C   C27       1.0  0.54467  0.58749  0.20992  1.0000
  C   C28       1.0  0.74157  0.64316  0.41643  1.0000
  C   C29       1.0  0.32863  0.1778  0.93148  1.0000
  C   C30       1.0  0.34029  0.24663  0.89364  1.0000
  C   C31       1.0  0.24939  0.28663  0.87104  1.0000
  C   C32       1.0  0.14249  0.2601799999999999  0.88628  1.0000
  C   C33       1.0  0.04757  0.30336  0.8622499999999998  1.0000
  C   C34       1.0  0.0496  0.3389599999999999  0.8003299999999999  1.0000
  C   C35       1.0  0.95865  0.37968  0.77742  1.0000
  C   C36       1.0  0.86638  0.39001  0.81695  1.0000
  C   C37       1.0  0.86222  0.3537999999999999  0.8775999999999999  1.0000
  C   C38       1.0  0.9506099999999998  0.30911  0.8991299999999999  1.0000
  C   C39       1.0  0.13084  0.19157999999999994  0.92518  1.0000
  C   C40       1.0  0.22200999999999999  0.15086  0.9467899999999999  1.0000
  C   C41       1.0  0.95641  0.41259  0.70997  1.0000
  C   C42       1.0  0.75829  0.35648  0.91625  1.0000
  C   C43       1.0  0.17103  0.6778299999999998  0.56844  1.0000
  C   C44       1.0  0.15949  0.74666  0.6063299999999999  1.0000
  C   C45       1.0  0.25045  0.7866  0.62902  1.0000
  C   C46       1.0  0.3574  0.76012  0.61381  1.0000
  C   C47       1.0  0.45242999999999994  0.80337  0.6377899999999999  1.0000
  C   C48       1.0  0.45065  0.8389999999999999  0.69977  1.0000
  C   C49       1.0  0.54179  0.87965  0.7225499999999999  1.0000
  C   C50       1.0  0.63381  0.8901099999999997  0.68282  1.0000
  C   C51       1.0  0.63774  0.8539899999999998  0.62209  1.0000
  C   C52       1.0  0.54929  0.80918  0.6007599999999998  1.0000
  C   C53       1.0  0.3689  0.6915  0.57485  1.0000
  C   C54       1.0  0.27769  0.65083  0.55315  1.0000
  C   C55       1.0  0.54464  0.91254  0.79005  1.0000
  C   C56       1.0  0.74169  0.85666  0.58344  1.0000
  C   C57       1.0  0.6713200000000001  0.6778  0.9314699999999999  1.0000
  C   C58       1.0  0.65968  0.74663  0.8936299999999999  1.0000
  C   C59       1.0  0.75059  0.7866299999999998  0.87104  1.0000
  C   C60       1.0  0.8574899999999999  0.7601699999999998  0.8862999999999999  1.0000
  C   C61       1.0  0.95242  0.80336  0.86228  1.0000
  C   C62       1.0  0.95038  0.8389799999999997  0.80036  1.0000
  C   C63       1.0  0.041339999999999995  0.8796899999999997  0.7774599999999999  1.0000
  C   C64       1.0  0.13361  0.89  0.8169899999999999  1.0000
  C   C65       1.0  0.13781  0.85376  0.8776399999999999  1.0000
  C   C66       1.0  0.049389999999999996  0.80908  0.89915  1.0000
  C   C67       1.0  0.8691199999999999  0.6915799999999998  0.9251899999999997  1.0000
  C   C68       1.0  0.77795  0.65086  0.9467999999999999  1.0000
  C   C69       1.0  0.04364  0.9125999999999997  0.71  1.0000
  C   C70       1.0  0.24175  0.85641  0.91631  1.0000
  C   C71       1.0  0.8289399999999999  0.17784  0.56844  1.0000
  C   C72       1.0  0.8404700000000002  0.24666999999999997  0.6063299999999999  1.0000
  C   C73       1.0  0.74953  0.28661  0.6290299999999999  1.0000
  C   C74       1.0  0.64258  0.26012999999999986  0.61383  1.0000
  C   C75       1.0  0.54757  0.30338999999999994  0.63783  1.0000
  C   C76       1.0  0.54937  0.33903  0.69979  1.0000
  C   C77       1.0  0.45822999999999997  0.37969  0.72258  1.0000
  C   C78       1.0  0.36625  0.39021  0.68286  1.0000
  C   C79       1.0  0.36235  0.35413  0.62214  1.0000
  C   C80       1.0  0.45072  0.30923  0.60081  1.0000
  C   C81       1.0  0.63108  0.19150999999999996  0.57487  1.0000
  C   C82       1.0  0.72229  0.15085  0.55316  1.0000
  C   C83       1.0  0.45528  0.4124799999999999  0.79009  1.0000
  C   C84       1.0  0.25841  0.35685  0.58356  1.0000
  C   C85       1.0  0.6713799999999999  0.8221899999999998  0.06853  1.0000
  C   C86       1.0  0.6597199999999999  0.75337  0.10637  1.0000
  C   C87       1.0  0.7506  0.71336  0.12898  1.0000
  C   C88       1.0  0.8575  0.73981  0.11373999999999998  1.0000
  C   C89       1.0  0.95242  0.69663  0.13777  1.0000
  C   C90       1.0  0.9504  0.661  0.19967999999999997  1.0000
  C   C91       1.0  0.04138  0.62029  0.22256  1.0000
  C   C92       1.0  0.13363  0.60996  0.18302  1.0000
  C   C93       1.0  0.13778  0.64619  0.12238999999999998  1.0000
  C   C94       1.0  0.04938  0.6909  0.10089  1.0000
  C   C95       1.0  0.86917  0.8084  0.07484  1.0000
  C   C96       1.0  0.77801  0.84912  0.053219999999999996  1.0000
  C   C97       1.0  0.04382  0.58745  0.29002  1.0000
  C   C98       1.0  0.24171999999999996  0.64355  0.08376  1.0000
  C   C99       1.0  0.8289800000000002  0.32215  0.43157  1.0000
  C   C100      1.0  0.84051  0.25332  0.39368  1.0000
  C   C101      1.0  0.74955  0.21339  0.3709799999999999  1.0000
  C   C102      1.0  0.6426  0.23986999999999997  0.38619  1.0000
  C   C103      1.0  0.54757  0.19663  0.3622  1.0000
  C   C104      1.0  0.54937  0.16098  0.30023  1.0000
  C   C105      1.0  0.45822  0.12032999999999999  0.27745  1.0000
  C   C106      1.0  0.36621  0.10986  0.31718  1.0000
  C   C107      1.0  0.36227  0.14597999999999997  0.3779  1.0000
  C   C108      1.0  0.4507  0.19081999999999993  0.39922  1.0000
  C   C109      1.0  0.63111  0.3085  0.42514  1.0000
  C   C110      1.0  0.72232  0.34915  0.44685  1.0000
  C   C111      1.0  0.45533  0.0875  0.20993999999999996  1.0000
  C   C112      1.0  0.25831  0.14329999999999998  0.41654  1.0000
  O   O1        1.0  0.43692  0.40031  0.97457  1.0000
  O   O2        1.0  0.54808  0.32066  0.058269999999999995  1.0000
  O   O3        1.0  0.45536999999999994  0.44466  0.09398  1.0000
  O   O4        1.0  0.73352  0.20922999999999997  0.0585  1.0000
  O   O5        1.0  0.70573  0.07926  0.08109  1.0000
  O   O6        1.0  0.03557  0.10857  0.3276  1.0000
  O   O7        1.0  0.87846  0.04367  0.30567  1.0000
  O   O8        1.0  0.062259999999999996  0.90032  0.52541  1.0000
  O   O9        1.0  0.9511  0.8208699999999998  0.44167  1.0000
  O   O10       1.0  0.04493  0.94455  0.40593  1.0000
  O   O11       1.0  0.76632  0.7088399999999998  0.44159  1.0000
  O   O12       1.0  0.79427  0.57895  0.41895  1.0000
  O   O13       1.0  0.46608  0.60921  0.17208  1.0000
  O   O14       1.0  0.62233  0.54347  0.19453  1.0000
  O   O15       1.0  0.43694  0.09967999999999998  0.02542  1.0000
  O   O16       1.0  0.54804  0.17948  0.94178  1.0000
  O   O17       1.0  0.45543  0.05538999999999999  0.90602  1.0000
  O   O18       1.0  0.7336  0.29084  0.94147  1.0000
  O   O19       1.0  0.70572  0.4207799999999999  0.9188899999999999  1.0000
  O   O20       1.0  0.03562  0.3914  0.67241  1.0000
  O   O21       1.0  0.8785  0.45634  0.69429  1.0000
  O   O22       1.0  0.06228999999999999  0.5997  0.47459999999999997  1.0000
  O   O23       1.0  0.95112  0.67904  0.55836  1.0000
  O   O24       1.0  0.04497  0.55542  0.59409  1.0000
  O   O25       1.0  0.76652  0.79105  0.55822  1.0000
  O   O26       1.0  0.7942599999999999  0.92098  0.58101  1.0000
  O   O27       1.0  0.46615  0.8906999999999998  0.82793  1.0000
  O   O28       1.0  0.62216  0.9566699999999999  0.80542  1.0000
  O   O29       1.0  0.56302  0.59974  0.02543  1.0000
  O   O30       1.0  0.45178  0.6793399999999998  0.94175  1.0000
  O   O31       1.0  0.5446  0.5553599999999997  0.90604  1.0000
  O   O32       1.0  0.26648  0.7907899999999998  0.94153  1.0000
  O   O33       1.0  0.29427  0.9207499999999997  0.91892  1.0000
  O   O34       1.0  0.9644799999999999  0.89141  0.6724  1.0000
  O   O35       1.0  0.12156999999999998  0.9563299999999999  0.69434  1.0000
  O   O36       1.0  0.93772  0.09967999999999998  0.47459  1.0000
  O   O37       1.0  0.04884999999999999  0.17912999999999996  0.55834  1.0000
  O   O38       1.0  0.9550499999999998  0.05544  0.59407  1.0000
  O   O39       1.0  0.23364  0.29119  0.55838  1.0000
  O   O40       1.0  0.20572999999999997  0.42108  0.58104  1.0000
  O   O41       1.0  0.53396  0.39086  0.82789  1.0000
  O   O42       1.0  0.37753999999999993  0.45641  0.8055099999999998  1.0000
  O   O43       1.0  0.56309  0.90032  0.97457  1.0000
  O   O44       1.0  0.45198  0.82057  0.05823999999999999  1.0000
  O   O45       1.0  0.54458  0.94463  0.09398  1.0000
  O   O46       1.0  0.2664  0.70921  0.05857999999999999  1.0000
  O   O47       1.0  0.29429  0.57925  0.0811  1.0000
  O   O48       1.0  0.9647199999999999  0.6086699999999998  0.32764  1.0000
  O   O49       1.0  0.12177  0.54373  0.30567  1.0000
  O   O50       1.0  0.93773  0.40032  0.52541  1.0000
  O   O51       1.0  0.0489  0.32096  0.44164999999999993  1.0000
  O   O52       1.0  0.95502  0.44457999999999986  0.40590999999999994  1.0000
  O   O53       1.0  0.23348  0.20891999999999997  0.44173999999999997  1.0000
  O   O54       1.0  0.20574  0.07898999999999999  0.41899999999999993  1.0000
  O   O55       1.0  0.53389  0.10924999999999997  0.17208  1.0000
  O   O56       1.0  0.37772  0.04345  0.19454999999999997  1.0000
