data_image0
_chemical_formula_structural       Cd8H80C104S8N32O32
_chemical_formula_sum              "Cd8 H80 C104 S8 N32 O32"
_cell_length_a       9.39218
_cell_length_b       20.163880000000002
_cell_length_c       21.062569999999997
_cell_angle_alpha    89.93244
_cell_angle_beta     90.00635
_cell_angle_gamma    90.00178999999999

_symmetry_space_group_name_H-M    'P 1'
_symmetry_Int_Tables_number       1

loop_
  _symmetry_equiv_pos_as_xyz
  'x,y,z'

loop_
  _atom_site_type_symbol
  _atom_site_label
  _atom_site_symmetry_multiplicity
  _atom_site_fract_x
  _atom_site_fract_y
  _atom_site_fract_z
  _atom_site_occupancy
  Cd  Cd1       1.0  0.51308  0.55204  0.42639000000000005  1.0000
  Cd  Cd2       1.0  0.48645000000000005  0.05279  0.07382  1.0000
  Cd  Cd3       1.0  0.01183  0.55312  0.07381  1.0000
  Cd  Cd4       1.0  0.98664  0.05274  0.4263200000000001  1.0000
  Cd  Cd5       1.0  0.98817  0.44688  0.9261900000000001  1.0000
  Cd  Cd6       1.0  0.01336  0.9472500000000001  0.57368  1.0000
  Cd  Cd7       1.0  0.48692  0.44795  0.5736100000000001  1.0000
  Cd  Cd8       1.0  0.5135500000000001  0.9472  0.9261800000000001  1.0000
  H   H1        1.0  0.4581  0.31336  0.46737  1.0000
  H   H2        1.0  0.56796  0.19136  0.46631  1.0000
  H   H3        1.0  0.37506  0.44276999999999994  0.31905000000000006  1.0000
  H   H4        1.0  0.31703  0.4724  0.19147000000000006  1.0000
  H   H5        1.0  0.55528  0.62852  0.27482  1.0000
  H   H6        1.0  0.46145  0.64588  0.16134  1.0000
  H   H7        1.0  0.34106000000000003  0.58632  0.1292  1.0000
  H   H8        1.0  0.45139000000000007  0.47880000000000006  0.07825  1.0000
  H   H9        1.0  0.72077  0.4589599999999999  0.02461  1.0000
  H   H10       1.0  0.72535  0.63737  0.12965  1.0000
  H   H11       1.0  0.54325  0.8143000000000001  0.03281  1.0000
  H   H12       1.0  0.4359  0.69166  0.03258  1.0000
  H   H13       1.0  0.62473  0.94296  0.18123  1.0000
  H   H14       1.0  0.6833200000000001  0.97272  0.30868000000000007  1.0000
  H   H15       1.0  0.44423000000000007  0.12863  0.22495000000000007  1.0000
  H   H16       1.0  0.53778  0.14618  0.3383000000000001  1.0000
  H   H17       1.0  0.65829  0.08689  0.37077  1.0000
  H   H18       1.0  0.5485800000000001  0.97913  0.42166000000000003  1.0000
  H   H19       1.0  0.27915  0.9588699999999999  0.47532000000000013  1.0000
  H   H20       1.0  0.27341  0.13751  0.37037  1.0000
  H   H21       1.0  0.9588  0.31559  0.03329  1.0000
  H   H22       1.0  0.06620000000000001  0.19304  0.03306  1.0000
  H   H23       1.0  0.8748200000000002  0.44297  0.18124000000000007  1.0000
  H   H24       1.0  0.81662  0.47249  0.30876  1.0000
  H   H25       1.0  0.05574  0.62847  0.22524000000000005  1.0000
  H   H26       1.0  0.9623500000000001  0.64598  0.33846  1.0000
  H   H27       1.0  0.84149  0.58686  0.3709500000000001  1.0000
  H   H28       1.0  0.95139  0.47882  0.4217500000000001  1.0000
  H   H29       1.0  0.22081  0.45866  0.47549000000000013  1.0000
  H   H30       1.0  0.22641000000000003  0.63725  0.37048  1.0000
  H   H31       1.0  0.04327  0.81343  0.46739000000000014  1.0000
  H   H32       1.0  0.93353  0.6917  0.4665600000000001  1.0000
  H   H33       1.0  0.1246  0.94284  0.3188500000000001  1.0000
  H   H34       1.0  0.18318  0.9725799999999999  0.19141  1.0000
  H   H35       1.0  0.94442  0.1286  0.27472  1.0000
  H   H36       1.0  0.03845  0.14613  0.16128000000000006  1.0000
  H   H37       1.0  0.15861000000000003  0.0866  0.12904000000000002  1.0000
  H   H38       1.0  0.0485  0.9790799999999998  0.07825  1.0000
  H   H39       1.0  0.77902  0.9587999999999999  0.024910000000000005  1.0000
  H   H40       1.0  0.7736100000000001  0.1374  0.1296  1.0000
  H   H41       1.0  0.04120000000000001  0.68441  0.96671  1.0000
  H   H42       1.0  0.9338000000000001  0.8069600000000001  0.9669400000000002  1.0000
  H   H43       1.0  0.12518  0.55702  0.8187600000000003  1.0000
  H   H44       1.0  0.18337  0.5275  0.6912400000000001  1.0000
  H   H45       1.0  0.94426  0.37152  0.77476  1.0000
  H   H46       1.0  0.03764000000000001  0.35401  0.6615400000000002  1.0000
  H   H47       1.0  0.15851  0.41313000000000005  0.6290500000000001  1.0000
  H   H48       1.0  0.04861000000000001  0.52118  0.5782500000000002  1.0000
  H   H49       1.0  0.77919  0.54133  0.5245100000000001  1.0000
  H   H50       1.0  0.7735900000000002  0.36274  0.6295200000000001  1.0000
  H   H51       1.0  0.95673  0.18657  0.5326100000000001  1.0000
  H   H52       1.0  0.06647  0.30829  0.53344  1.0000
  H   H53       1.0  0.87539  0.05716  0.68115  1.0000
  H   H54       1.0  0.8168200000000002  0.027419999999999996  0.80859  1.0000
  H   H55       1.0  0.055580000000000004  0.87139  0.72528  1.0000
  H   H56       1.0  0.96155  0.85386  0.8387200000000002  1.0000
  H   H57       1.0  0.84139  0.91339  0.87096  1.0000
  H   H58       1.0  0.9515  0.02092  0.9217500000000001  1.0000
  H   H59       1.0  0.22098  0.0412  0.97509  1.0000
  H   H60       1.0  0.22639  0.8626000000000001  0.8704  1.0000
  H   H61       1.0  0.5419  0.68664  0.53263  1.0000
  H   H62       1.0  0.43204  0.80863  0.53369  1.0000
  H   H63       1.0  0.62493  0.55722  0.6809500000000002  1.0000
  H   H64       1.0  0.6829600000000001  0.5276  0.8085300000000002  1.0000
  H   H65       1.0  0.44472000000000006  0.37148  0.7251800000000002  1.0000
  H   H66       1.0  0.53855  0.35412  0.8386600000000001  1.0000
  H   H67       1.0  0.6589300000000002  0.41368  0.8708  1.0000
  H   H68       1.0  0.54861  0.52119  0.9217500000000001  1.0000
  H   H69       1.0  0.27923  0.54104  0.9753900000000002  1.0000
  H   H70       1.0  0.2746500000000001  0.36262  0.8703500000000001  1.0000
  H   H71       1.0  0.45675000000000004  0.18569  0.9671900000000002  1.0000
  H   H72       1.0  0.5641  0.30833  0.9674200000000002  1.0000
  H   H73       1.0  0.37527  0.05704  0.8187700000000002  1.0000
  H   H74       1.0  0.31668  0.02727  0.6913200000000002  1.0000
  H   H75       1.0  0.55577  0.87136  0.77505  1.0000
  H   H76       1.0  0.46221  0.8538100000000001  0.6617  1.0000
  H   H77       1.0  0.34171  0.9131  0.6292300000000001  1.0000
  H   H78       1.0  0.45142000000000004  0.02086  0.5783400000000001  1.0000
  H   H79       1.0  0.72085  0.04112  0.5246800000000001  1.0000
  H   H80       1.0  0.72659  0.8624799999999999  0.62963  1.0000
  C   C1        1.0  0.66071  0.34812  0.43107  1.0000
  C   C2        1.0  0.56476  0.30048  0.45192000000000004  1.0000
  C   C3        1.0  0.62224  0.23597  0.45038000000000006  1.0000
  C   C4        1.0  0.76108  0.23488  0.42748  1.0000
  C   C5        1.0  0.8542300000000002  0.17639  0.42047  1.0000
  C   C6        1.0  0.63778  0.42038  0.42855000000000004  1.0000
  C   C7        1.0  0.4054700000000001  0.48522  0.29059  1.0000
  C   C8        1.0  0.3753  0.49872  0.22814000000000006  1.0000
  C   C9        1.0  0.50182  0.58118  0.27033  1.0000
  C   C10       1.0  0.44255  0.5928  0.15415  1.0000
  C   C11       1.0  0.54932  0.50722  0.08054000000000001  1.0000
  C   C12       1.0  0.682  0.49876999999999994  0.05458000000000001  1.0000
  C   C13       1.0  0.68963  0.59156  0.10804  1.0000
  C   C14       1.0  0.3393900000000001  0.84771  0.06880000000000001  1.0000
  C   C15       1.0  0.43653000000000003  0.80071  0.047710000000000016  1.0000
  C   C16       1.0  0.38022  0.73587  0.04854000000000001  1.0000
  C   C17       1.0  0.24112  0.73397  0.07116  1.0000
  C   C18       1.0  0.14877  0.67527  0.07895000000000002  1.0000
  C   C19       1.0  0.35961000000000004  0.9202100000000001  0.07242000000000001  1.0000
  C   C20       1.0  0.59412  0.98534  0.20965000000000006  1.0000
  C   C21       1.0  0.62457  0.99896  0.27204000000000006  1.0000
  C   C22       1.0  0.49752  0.08126  0.22968  1.0000
  C   C23       1.0  0.55681  0.09314  0.34573000000000004  1.0000
  C   C24       1.0  0.45043  0.007420000000000001  0.41934  1.0000
  C   C25       1.0  0.3177700000000001  0.99873  0.4452900000000001  1.0000
  C   C26       1.0  0.30946  0.09161  0.3918400000000001  1.0000
  C   C27       1.0  0.16265  0.34911  0.06920000000000001  1.0000
  C   C28       1.0  0.06554000000000001  0.30211  0.048170000000000004  1.0000
  C   C29       1.0  0.12163  0.23728  0.04907  1.0000
  C   C30       1.0  0.26053  0.23529  0.07179000000000002  1.0000
  C   C31       1.0  0.35229  0.17642  0.07959  1.0000
  C   C32       1.0  0.14166  0.42157  0.07253  1.0000
  C   C33       1.0  0.90544  0.48532  0.20971000000000004  1.0000
  C   C34       1.0  0.87521  0.4988  0.27214  1.0000
  C   C35       1.0  0.00212  0.58117  0.22985  1.0000
  C   C36       1.0  0.94303  0.59297  0.34591  1.0000
  C   C37       1.0  0.04946000000000001  0.50716  0.41949000000000003  1.0000
  C   C38       1.0  0.18212  0.49851000000000006  0.4454700000000001  1.0000
  C   C39       1.0  0.19035  0.59139  0.3920000000000001  1.0000
  C   C40       1.0  0.8402300000000001  0.8484800000000001  0.43148  1.0000
  C   C41       1.0  0.93626  0.8007400000000001  0.45218000000000014  1.0000
  C   C42       1.0  0.87855  0.73619  0.45072000000000007  1.0000
  C   C43       1.0  0.7394300000000001  0.73509  0.42806  1.0000
  C   C44       1.0  0.64482  0.67699  0.4206  1.0000
  C   C45       1.0  0.8623400000000001  0.9208499999999998  0.4285900000000001  1.0000
  C   C46       1.0  0.09422000000000001  0.98532  0.29042  1.0000
  C   C47       1.0  0.12468  0.9989  0.22800000000000006  1.0000
  C   C48       1.0  0.9979  0.08127  0.27018  1.0000
  C   C49       1.0  0.05718  0.09306  0.15404000000000004  1.0000
  C   C50       1.0  0.95046  0.00745  0.08053  1.0000
  C   C51       1.0  0.8176900000000001  0.9987699999999999  0.05470000000000001  1.0000
  C   C52       1.0  0.8096300000000001  0.0916  0.10803000000000003  1.0000
  C   C53       1.0  0.83734  0.65088  0.9308  1.0000
  C   C54       1.0  0.9344600000000002  0.69789  0.9518300000000001  1.0000
  C   C55       1.0  0.87837  0.76272  0.95093  1.0000
  C   C56       1.0  0.73947  0.7647  0.9282100000000002  1.0000
  C   C57       1.0  0.64771  0.82358  0.92041  1.0000
  C   C58       1.0  0.85834  0.57843  0.92747  1.0000
  C   C59       1.0  0.09456  0.51468  0.7902900000000002  1.0000
  C   C60       1.0  0.12479000000000001  0.50119  0.72786  1.0000
  C   C61       1.0  0.9978800000000001  0.4188200000000001  0.77015  1.0000
  C   C62       1.0  0.05696  0.40703  0.6540900000000001  1.0000
  C   C63       1.0  0.9505400000000002  0.49283  0.5805100000000001  1.0000
  C   C64       1.0  0.81788  0.50149  0.55453  1.0000
  C   C65       1.0  0.80965  0.40861  0.608  1.0000
  C   C66       1.0  0.15977  0.15152  0.5685200000000001  1.0000
  C   C67       1.0  0.06374  0.19925  0.54782  1.0000
  C   C68       1.0  0.12144  0.26381  0.54928  1.0000
  C   C69       1.0  0.2605700000000001  0.26491  0.5719400000000001  1.0000
  C   C70       1.0  0.35518  0.32301  0.5794000000000001  1.0000
  C   C71       1.0  0.13766  0.07914  0.57141  1.0000
  C   C72       1.0  0.9057700000000001  0.01467  0.7095800000000001  1.0000
  C   C73       1.0  0.8753200000000001  0.0010899999999999998  0.772  1.0000
  C   C74       1.0  0.00209  0.91872  0.72982  1.0000
  C   C75       1.0  0.9428200000000001  0.9069399999999999  0.84596  1.0000
  C   C76       1.0  0.04954  0.99254  0.91947  1.0000
  C   C77       1.0  0.18231000000000006  0.00123  0.94529  1.0000
  C   C78       1.0  0.19037  0.9083899999999999  0.8919700000000002  1.0000
  C   C79       1.0  0.33929  0.65187  0.56893  1.0000
  C   C80       1.0  0.43524000000000007  0.69952  0.54808  1.0000
  C   C81       1.0  0.37776  0.76402  0.54962  1.0000
  C   C82       1.0  0.23892000000000002  0.76511  0.57252  1.0000
  C   C83       1.0  0.14577  0.8236100000000001  0.5795300000000001  1.0000
  C   C84       1.0  0.36222  0.57961  0.57145  1.0000
  C   C85       1.0  0.59452  0.51477  0.7094100000000001  1.0000
  C   C86       1.0  0.6247  0.50128  0.7718600000000001  1.0000
  C   C87       1.0  0.49817  0.4188200000000001  0.7296700000000002  1.0000
  C   C88       1.0  0.55745  0.40719000000000005  0.84585  1.0000
  C   C89       1.0  0.4506800000000001  0.49277  0.91946  1.0000
  C   C90       1.0  0.318  0.50122  0.9454200000000001  1.0000
  C   C91       1.0  0.31037000000000003  0.4084400000000001  0.8919600000000002  1.0000
  C   C92       1.0  0.66061  0.15228  0.9312  1.0000
  C   C93       1.0  0.56347  0.19928  0.9522900000000001  1.0000
  C   C94       1.0  0.61977  0.26412  0.9514600000000002  1.0000
  C   C95       1.0  0.75888  0.26602  0.92883  1.0000
  C   C96       1.0  0.8512300000000003  0.32473  0.9210500000000001  1.0000
  C   C97       1.0  0.64039  0.07978  0.92758  1.0000
  C   C98       1.0  0.40588  0.01465  0.79035  1.0000
  C   C99       1.0  0.37543  0.0010399999999999997  0.7279600000000002  1.0000
  C   C100      1.0  0.50248  0.9187299999999999  0.7703200000000002  1.0000
  C   C101      1.0  0.44319  0.9068499999999999  0.65427  1.0000
  C   C102      1.0  0.54957  0.9925699999999998  0.58066  1.0000
  C   C103      1.0  0.6822300000000001  0.0012699999999999999  0.55471  1.0000
  C   C104      1.0  0.6905400000000002  0.90838  0.60816  1.0000
  S   S1        1.0  0.8211300000000001  0.31346  0.40820000000000006  1.0000
  S   S2        1.0  0.17952  0.81207  0.09101  1.0000
  S   S3        1.0  0.32239  0.31339  0.09163000000000002  1.0000
  S   S4        1.0  0.67961  0.81377  0.40889000000000003  1.0000
  S   S5        1.0  0.67761  0.68661  0.9083700000000001  1.0000
  S   S6        1.0  0.32038  0.18623  0.59111  1.0000
  S   S7        1.0  0.17887  0.68654  0.5918  1.0000
  S   S8        1.0  0.82048  0.18792  0.9089900000000001  1.0000
  N   N1        1.0  0.48381  0.53693  0.31634000000000007  1.0000
  N   N2        1.0  0.43694  0.56006  0.21582  1.0000
  N   N3        1.0  0.55559  0.56632  0.11433000000000001  1.0000
  N   N4        1.0  0.76779  0.55184  0.0718  1.0000
  N   N5        1.0  0.51541  0.03695  0.18382000000000007  1.0000
  N   N6        1.0  0.56275  0.06029  0.28418000000000004  1.0000
  N   N7        1.0  0.44377  0.06662  0.38558000000000003  1.0000
  N   N8        1.0  0.23154  0.05165999999999999  0.42804000000000003  1.0000
  N   N9        1.0  0.98402  0.53697  0.18392000000000003  1.0000
  N   N10       1.0  0.93707  0.56011  0.28437000000000007  1.0000
  N   N11       1.0  0.05606  0.56636  0.3857400000000001  1.0000
  N   N12       1.0  0.2683  0.55146  0.42823  1.0000
  N   N13       1.0  0.015750000000000004  0.03699  0.31616  1.0000
  N   N14       1.0  0.06308  0.06028  0.21570000000000003  1.0000
  N   N15       1.0  0.9439700000000001  0.06661  0.11423000000000003  1.0000
  N   N16       1.0  0.7315  0.0517  0.07193000000000001  1.0000
  N   N17       1.0  0.01598  0.46303  0.81608  1.0000
  N   N18       1.0  0.06293  0.43989  0.7156300000000002  1.0000
  N   N19       1.0  0.94394  0.43363  0.61426  1.0000
  N   N20       1.0  0.7317000000000001  0.44853999999999994  0.5717700000000001  1.0000
  N   N21       1.0  0.9842500000000001  0.96301  0.68384  1.0000
  N   N22       1.0  0.93692  0.9397099999999999  0.7843  1.0000
  N   N23       1.0  0.05603  0.93338  0.88577  1.0000
  N   N24       1.0  0.2685  0.94829  0.92807  1.0000
  N   N25       1.0  0.51619  0.46306  0.68366  1.0000
  N   N26       1.0  0.56306  0.43993999999999994  0.78418  1.0000
  N   N27       1.0  0.4444100000000001  0.43367999999999995  0.88567  1.0000
  N   N28       1.0  0.23221  0.44816  0.9282000000000001  1.0000
  N   N29       1.0  0.4845900000000001  0.96305  0.8161800000000001  1.0000
  N   N30       1.0  0.43724  0.9397099999999999  0.7158100000000001  1.0000
  N   N31       1.0  0.55623  0.93337  0.6144200000000001  1.0000
  N   N32       1.0  0.7684600000000001  0.94833  0.57196  1.0000
  O   O1        1.0  0.97684  0.18169  0.39655  1.0000
  O   O2        1.0  0.80081  0.12094000000000002  0.44120000000000004  1.0000
  O   O3        1.0  0.7285000000000003  0.45797999999999994  0.4031  1.0000
  O   O4        1.0  0.51959  0.44153  0.45353  1.0000
  O   O5        1.0  0.02847  0.68029  0.10521000000000003  1.0000
  O   O6        1.0  0.19941  0.61988  0.056960000000000004  1.0000
  O   O7        1.0  0.2665100000000001  0.95625  0.09815  1.0000
  O   O8        1.0  0.47741000000000006  0.94282  0.04801  1.0000
  O   O9        1.0  0.47219  0.18141  0.10609  1.0000
  O   O10       1.0  0.30108  0.12122  0.05724  1.0000
  O   O11       1.0  0.23404000000000003  0.45796  0.09825  1.0000
  O   O12       1.0  0.02373  0.4438  0.047910000000000015  1.0000
  O   O13       1.0  0.52281  0.68335  0.39646000000000003  1.0000
  O   O14       1.0  0.69641  0.62099  0.44111  1.0000
  O   O15       1.0  0.77113  0.958  0.40282  1.0000
  O   O16       1.0  0.97995  0.94266  0.4536  1.0000
  O   O17       1.0  0.5278  0.81859  0.8939100000000001  1.0000
  O   O18       1.0  0.69892  0.87877  0.9427600000000003  1.0000
  O   O19       1.0  0.76596  0.54203  0.9017500000000002  1.0000
  O   O20       1.0  0.9762600000000001  0.55619  0.95209  1.0000
  O   O21       1.0  0.47719000000000006  0.31664  0.6035400000000002  1.0000
  O   O22       1.0  0.30359  0.379  0.5588900000000001  1.0000
  O   O23       1.0  0.22887  0.042  0.5971800000000002  1.0000
  O   O24       1.0  0.02005  0.05734  0.5464  1.0000
  O   O25       1.0  0.023160000000000007  0.8183099999999999  0.6034500000000002  1.0000
  O   O26       1.0  0.19918  0.8790599999999998  0.5588000000000001  1.0000
  O   O27       1.0  0.27149  0.54201  0.5969  1.0000
  O   O28       1.0  0.48041  0.55846  0.54646  1.0000
  O   O29       1.0  0.97153  0.3197  0.89479  1.0000
  O   O30       1.0  0.80059  0.38012  0.9430400000000001  1.0000
  O   O31       1.0  0.73348  0.04374  0.9018500000000003  1.0000
  O   O32       1.0  0.52259  0.05718  0.95199  1.0000
