data_image0
_chemical_formula_structural       Zn8H128C172N8O48
_chemical_formula_sum              "Zn8 H128 C172 N8 O48"
_cell_length_a       13.99759
_cell_length_b       13.99686
_cell_length_c       31.104740000000003
_cell_angle_alpha    84.95026
_cell_angle_beta     84.92978
_cell_angle_gamma    89.10290999999998

_symmetry_space_group_name_H-M    'P 1'
_symmetry_Int_Tables_number       1

loop_
  _symmetry_equiv_pos_as_xyz
  'x,y,z'

loop_
  _atom_site_type_symbol
  _atom_site_label
  _atom_site_symmetry_multiplicity
  _atom_site_fract_x
  _atom_site_fract_y
  _atom_site_fract_z
  _atom_site_occupancy
  Zn  Zn1       1.0  0.8064300000000001  0.39554999999999996  0.4689699999999999  1.0000
  Zn  Zn2       1.0  0.8030400000000001  0.19230999999999995  0.4855399999999999  1.0000
  Zn  Zn3       1.0  0.39556  0.80644  0.9689599999999998  1.0000
  Zn  Zn4       1.0  0.19231  0.8030499999999998  0.9855499999999998  1.0000
  Zn  Zn5       1.0  0.60443  0.19355999999999995  0.031039999999999995  1.0000
  Zn  Zn6       1.0  0.80769  0.19695  0.014449999999999996  1.0000
  Zn  Zn7       1.0  0.19357000000000002  0.6044499999999998  0.53103  1.0000
  Zn  Zn8       1.0  0.19695  0.8076800000000001  0.5144599999999998  1.0000
  H   H1        1.0  0.31533  0.16358999999999996  0.28512  1.0000
  H   H2        1.0  0.21739  0.19021  0.25257  1.0000
  H   H3        1.0  0.18671000000000001  0.4424000000000001  0.3263199999999999  1.0000
  H   H4        1.0  0.054330000000000024  0.43488  0.38596999999999987  1.0000
  H   H5        1.0  0.04343  0.12965  0.38488  1.0000
  H   H6        1.0  0.17447  0.1349  0.32527  1.0000
  H   H7        1.0  0.43159  0.18888999999999995  0.17214999999999994  1.0000
  H   H8        1.0  0.4198900000000001  0.11017999999999997  0.22085999999999995  1.0000
  H   H9        1.0  0.45420000000000005  0.05572  0.14343  1.0000
  H   H10       1.0  0.44458000000000003  0.9630799999999998  0.07966999999999998  1.0000
  H   H11       1.0  0.13803000000000007  0.9836899999999997  0.09236999999999997  1.0000
  H   H12       1.0  0.14561  0.07987  0.15636  1.0000
  H   H13       1.0  0.24307000000000006  0.30072  0.18538  1.0000
  H   H14       1.0  0.2911  0.39402  0.21271999999999994  1.0000
  H   H15       1.0  0.20687  0.4517599999999999  0.15479  1.0000
  H   H16       1.0  0.17805  0.58165  0.09712999999999997  1.0000
  H   H17       1.0  0.46266  0.54403  0.03789999999999999  1.0000
  H   H18       1.0  0.49301000000000006  0.41182  0.09431  1.0000
  H   H19       1.0  0.41825  0.35456999999999994  0.2622899999999999  1.0000
  H   H20       1.0  0.49706000000000006  0.31738000000000005  0.21805999999999995  1.0000
  H   H21       1.0  0.54991  0.09536000000000001  0.3257699999999999  1.0000
  H   H22       1.0  0.6482100000000001  0.12731  0.3863499999999999  1.0000
  H   H23       1.0  0.6388200000000002  0.42857  0.34781  1.0000
  H   H24       1.0  0.54156  0.3985000000000001  0.28771999999999986  1.0000
  H   H25       1.0  0.8796  0.5280899999999998  0.5271499999999998  1.0000
  H   H26       1.0  0.87675  0.7032599999999998  0.5364  1.0000
  H   H27       1.0  0.73516  0.7450200000000001  0.4176499999999999  1.0000
  H   H28       1.0  0.7438900000000003  0.5685899999999998  0.4140899999999999  1.0000
  H   H29       1.0  0.6729700000000001  0.04801000000000002  0.4567199999999999  1.0000
  H   H30       1.0  0.67001  0.8709899999999998  0.45082  1.0000
  H   H31       1.0  0.9350400000000003  0.8504099999999998  0.5134699999999999  1.0000
  H   H32       1.0  0.92145  0.026739999999999993  0.5195  1.0000
  H   H33       1.0  0.16355000000000003  0.31529999999999997  0.78515  1.0000
  H   H34       1.0  0.19018000000000007  0.21734000000000006  0.7525799999999998  1.0000
  H   H35       1.0  0.44238000000000016  0.18674  0.8262999999999998  1.0000
  H   H36       1.0  0.43490000000000006  0.05439000000000005  0.8859399999999997  1.0000
  H   H37       1.0  0.12967000000000004  0.04340999999999994  0.88489  1.0000
  H   H38       1.0  0.13489  0.17442  0.8253  1.0000
  H   H39       1.0  0.18890999999999997  0.43156  0.67218  1.0000
  H   H40       1.0  0.11016000000000004  0.41985  0.7208999999999998  1.0000
  H   H41       1.0  0.05575000000000005  0.45419999999999994  0.6434499999999997  1.0000
  H   H42       1.0  0.96311  0.4445899999999999  0.5797  1.0000
  H   H43       1.0  0.98366  0.13803  0.59236  1.0000
  H   H44       1.0  0.07984000000000006  0.14560000000000006  0.6563399999999998  1.0000
  H   H45       1.0  0.30072  0.24304000000000003  0.6853599999999997  1.0000
  H   H46       1.0  0.39399  0.29106  0.71271  1.0000
  H   H47       1.0  0.45174  0.20687999999999995  0.65478  1.0000
  H   H48       1.0  0.5816600000000002  0.17806  0.5971099999999998  1.0000
  H   H49       1.0  0.5440200000000002  0.46263999999999994  0.5378999999999998  1.0000
  H   H50       1.0  0.41177  0.49299999999999977  0.59433  1.0000
  H   H51       1.0  0.35454  0.41822  0.7622799999999998  1.0000
  H   H52       1.0  0.31738  0.49698999999999993  0.7180499999999997  1.0000
  H   H53       1.0  0.09536  0.54995  0.82579  1.0000
  H   H54       1.0  0.12732  0.64828  0.8863799999999997  1.0000
  H   H55       1.0  0.4285700000000001  0.63879  0.8478  1.0000
  H   H56       1.0  0.39848000000000006  0.5415299999999998  0.7876999999999997  1.0000
  H   H57       1.0  0.52806  0.87963  0.02716  1.0000
  H   H58       1.0  0.70321  0.87677  0.03639999999999999  1.0000
  H   H59       1.0  0.74506  0.73514  0.9176399999999998  1.0000
  H   H60       1.0  0.5686600000000003  0.74388  0.9140699999999998  1.0000
  H   H61       1.0  0.04801000000000004  0.6729399999999999  0.9567299999999997  1.0000
  H   H62       1.0  0.87101  0.6699799999999999  0.9508099999999998  1.0000
  H   H63       1.0  0.8503900000000001  0.9350799999999998  0.013469999999999996  1.0000
  H   H64       1.0  0.0267  0.92148  0.019509999999999993  1.0000
  H   H65       1.0  0.83644  0.6847  0.21485  1.0000
  H   H66       1.0  0.8098200000000001  0.78266  0.24741999999999995  1.0000
  H   H67       1.0  0.5576100000000002  0.8132599999999999  0.17369999999999994  1.0000
  H   H68       1.0  0.5651  0.9456099999999997  0.11405999999999997  1.0000
  H   H69       1.0  0.87032  0.9565899999999998  0.11511  1.0000
  H   H70       1.0  0.86511  0.82558  0.17470999999999995  1.0000
  H   H71       1.0  0.8110900000000001  0.5684399999999998  0.3278199999999999  1.0000
  H   H72       1.0  0.88984  0.58015  0.2790999999999999  1.0000
  H   H73       1.0  0.94424  0.5458  0.35656  1.0000
  H   H74       1.0  0.03689000000000003  0.5554099999999997  0.4203099999999999  1.0000
  H   H75       1.0  0.01633000000000001  0.8619700000000001  0.4076499999999999  1.0000
  H   H76       1.0  0.9201600000000002  0.8543999999999998  0.3436599999999999  1.0000
  H   H77       1.0  0.6992800000000001  0.7569599999999997  0.31463999999999986  1.0000
  H   H78       1.0  0.60601  0.70894  0.28729  1.0000
  H   H79       1.0  0.5482499999999999  0.7931199999999998  0.34522  1.0000
  H   H80       1.0  0.4183300000000001  0.82194  0.4028899999999999  1.0000
  H   H81       1.0  0.4559800000000001  0.53736  0.4620999999999999  1.0000
  H   H82       1.0  0.58822  0.5069999999999999  0.40566999999999986  1.0000
  H   H83       1.0  0.64545  0.5817799999999997  0.23771999999999993  1.0000
  H   H84       1.0  0.6826200000000001  0.5030099999999998  0.28194999999999987  1.0000
  H   H85       1.0  0.90464  0.4500499999999999  0.17420999999999995  1.0000
  H   H86       1.0  0.87267  0.35171999999999987  0.11361999999999997  1.0000
  H   H87       1.0  0.57142  0.36120999999999986  0.1522  1.0000
  H   H88       1.0  0.60151  0.45847  0.2123  1.0000
  H   H89       1.0  0.4719300000000002  0.12037000000000003  0.9728399999999998  1.0000
  H   H90       1.0  0.29679000000000005  0.12323000000000008  0.9635999999999998  1.0000
  H   H91       1.0  0.25493000000000005  0.26485999999999993  0.08235999999999997  1.0000
  H   H92       1.0  0.43134  0.25610999999999995  0.08592999999999998  1.0000
  H   H93       1.0  0.95198  0.3270599999999999  0.04327  1.0000
  H   H94       1.0  0.12898  0.33000999999999997  0.04919  1.0000
  H   H95       1.0  0.14961000000000002  0.06492000000000005  0.9865299999999998  1.0000
  H   H96       1.0  0.9733000000000002  0.07852000000000003  0.9804899999999998  1.0000
  H   H97       1.0  0.68467  0.8364099999999998  0.7148799999999997  1.0000
  H   H98       1.0  0.7826100000000002  0.8097899999999998  0.7474399999999998  1.0000
  H   H99       1.0  0.81329  0.5576  0.67368  1.0000
  H   H100      1.0  0.94567  0.5651099999999999  0.61403  1.0000
  H   H101      1.0  0.95656  0.87035  0.61512  1.0000
  H   H102      1.0  0.8255200000000003  0.8651000000000001  0.6747299999999998  1.0000
  H   H103      1.0  0.56841  0.8111099999999998  0.8278499999999998  1.0000
  H   H104      1.0  0.5801099999999999  0.88982  0.77914  1.0000
  H   H105      1.0  0.5458000000000002  0.94428  0.85657  1.0000
  H   H106      1.0  0.5554100000000001  0.03692000000000006  0.9203299999999998  1.0000
  H   H107      1.0  0.8619600000000001  0.016310000000000033  0.9076399999999998  1.0000
  H   H108      1.0  0.85438  0.9201299999999998  0.84364  1.0000
  H   H109      1.0  0.75692  0.69928  0.8146199999999998  1.0000
  H   H110      1.0  0.7089000000000001  0.60598  0.7872799999999998  1.0000
  H   H111      1.0  0.7931200000000003  0.5482399999999997  0.8452099999999998  1.0000
  H   H112      1.0  0.8219400000000001  0.41835  0.9028699999999997  1.0000
  H   H113      1.0  0.53733  0.45597000000000004  0.9620999999999997  1.0000
  H   H114      1.0  0.50699  0.5881800000000003  0.9056899999999998  1.0000
  H   H115      1.0  0.58174  0.6454299999999998  0.7377099999999998  1.0000
  H   H116      1.0  0.5029300000000002  0.6826199999999998  0.7819399999999999  1.0000
  H   H117      1.0  0.45008  0.9046299999999998  0.6742299999999998  1.0000
  H   H118      1.0  0.3517800000000001  0.8726899999999997  0.61365  1.0000
  H   H119      1.0  0.3611800000000001  0.57143  0.6521899999999998  1.0000
  H   H120      1.0  0.4584300000000001  0.6015  0.7122799999999998  1.0000
  H   H121      1.0  0.12039000000000001  0.47191000000000005  0.4728499999999999  1.0000
  H   H122      1.0  0.12325  0.29674  0.46359999999999996  1.0000
  H   H123      1.0  0.26484000000000013  0.25498  0.5823499999999998  1.0000
  H   H124      1.0  0.25610000000000005  0.4314099999999999  0.5859099999999998  1.0000
  H   H125      1.0  0.32702000000000003  0.9519899999999998  0.54328  1.0000
  H   H126      1.0  0.32999  0.12901  0.54918  1.0000
  H   H127      1.0  0.06495  0.14959  0.48653  1.0000
  H   H128      1.0  0.07855  0.9732599999999998  0.4805  1.0000
  C   C1        1.0  0.35472  0.25218999999999997  0.22611999999999993  1.0000
  C   C2        1.0  0.2818  0.21940000000000004  0.26417  1.0000
  C   C3        1.0  0.18730000000000005  0.28967  0.3215999999999999  1.0000
  C   C4        1.0  0.15489000000000006  0.37441999999999986  0.33934  1.0000
  C   C5        1.0  0.08165000000000001  0.37001  0.3724299999999999  1.0000
  C   C6        1.0  0.040010000000000004  0.28213999999999995  0.38888999999999996  1.0000
  C   C7        1.0  0.07514  0.19776999999999997  0.37189  1.0000
  C   C8        1.0  0.14851000000000003  0.20086  0.33832  1.0000
  C   C9        1.0  0.95802  0.2806399999999999  0.42305  1.0000
  C   C10       1.0  0.38344000000000006  0.16541999999999998  0.20080999999999993  1.0000
  C   C11       1.0  0.29956  0.07364  0.15371999999999994  1.0000
  C   C12       1.0  0.38465  0.04040999999999999  0.13273  1.0000
  C   C13       1.0  0.3793  0.9876699999999999  0.09703999999999997  1.0000
  C   C14       1.0  0.29116000000000003  0.9666199999999998  0.08225  1.0000
  C   C15       1.0  0.20647  0.9998399999999998  0.10398  1.0000
  C   C16       1.0  0.21035  0.05292999999999998  0.13941  1.0000
  C   C17       1.0  0.28767000000000004  0.9101299999999999  0.04396  1.0000
  C   C18       1.0  0.30903  0.3294499999999999  0.19589  1.0000
  C   C19       1.0  0.35244000000000003  0.42426999999999987  0.1284  1.0000
  C   C20       1.0  0.26286  0.4707499999999999  0.12916  1.0000
  C   C21       1.0  0.24648000000000003  0.54366  0.09682  1.0000
  C   C22       1.0  0.31815  0.57092  0.06394  1.0000
  C   C23       1.0  0.40702  0.5225499999999998  0.06341  1.0000
  C   C24       1.0  0.42428  0.4494299999999999  0.09501  1.0000
  C   C25       1.0  0.30309  0.6530499999999999  0.03094999999999999  1.0000
  C   C26       1.0  0.44245  0.29354  0.24411999999999995  1.0000
  C   C27       1.0  0.53794  0.24459  0.30353999999999987  1.0000
  C   C28       1.0  0.56947  0.16793999999999995  0.33115  1.0000
  C   C29       1.0  0.62379  0.18598  0.36469  1.0000
  C   C30       1.0  0.64865  0.28005  0.3716699999999999  1.0000
  C   C31       1.0  0.61896  0.3555699999999999  0.34317999999999993  1.0000
  C   C32       1.0  0.5639200000000001  0.33866  0.30926  1.0000
  C   C33       1.0  0.7044800000000002  0.2964999999999999  0.40924999999999995  1.0000
  C   C34       1.0  0.8489900000000001  0.57962  0.5038499999999998  1.0000
  C   C35       1.0  0.8474600000000001  0.6774000000000001  0.5083699999999998  1.0000
  C   C36       1.0  0.8060000000000003  0.7403699999999998  0.4774699999999999  1.0000
  C   C37       1.0  0.76749  0.70045  0.4429799999999999  1.0000
  C   C38       1.0  0.7723100000000003  0.60187  0.4405099999999999  1.0000
  C   C39       1.0  0.72859  0.0006900000000000035  0.4691  1.0000
  C   C40       1.0  0.7285200000000002  0.9024299999999998  0.4654599999999999  1.0000
  C   C41       1.0  0.8029700000000002  0.84485  0.4813599999999999  1.0000
  C   C42       1.0  0.87415  0.89028  0.50125  1.0000
  C   C43       1.0  0.86832  0.9888599999999997  0.5040799999999998  1.0000
  C   C44       1.0  0.2521600000000001  0.3546699999999999  0.7261399999999998  1.0000
  C   C45       1.0  0.21936000000000008  0.28177  0.7641899999999998  1.0000
  C   C46       1.0  0.2896599999999999  0.1872899999999999  0.8216  1.0000
  C   C47       1.0  0.3744000000000002  0.15490999999999996  0.8393199999999997  1.0000
  C   C48       1.0  0.37001  0.08166999999999999  0.87241  1.0000
  C   C49       1.0  0.28215  0.040010000000000066  0.8888899999999997  1.0000
  C   C50       1.0  0.19779000000000002  0.07512000000000003  0.8718899999999998  1.0000
  C   C51       1.0  0.20085000000000003  0.14848  0.8383299999999998  1.0000
  C   C52       1.0  0.2806400000000001  0.95806  0.9230499999999998  1.0000
  C   C53       1.0  0.16541000000000003  0.38341  0.70083  1.0000
  C   C54       1.0  0.07363999999999998  0.2995599999999999  0.65372  1.0000
  C   C55       1.0  0.040430000000000035  0.3846499999999999  0.6327499999999998  1.0000
  C   C56       1.0  0.98768  0.37929999999999997  0.59705  1.0000
  C   C57       1.0  0.9666200000000001  0.2911599999999999  0.58226  1.0000
  C   C58       1.0  0.9998200000000002  0.20647000000000001  0.6039799999999997  1.0000
  C   C59       1.0  0.052919999999999995  0.21035  0.6394  1.0000
  C   C60       1.0  0.9101200000000002  0.28766999999999987  0.54397  1.0000
  C   C61       1.0  0.32942000000000016  0.3089899999999999  0.6958899999999998  1.0000
  C   C62       1.0  0.4242500000000001  0.3524300000000001  0.6283999999999997  1.0000
  C   C63       1.0  0.47074000000000005  0.2628599999999999  0.6291599999999998  1.0000
  C   C64       1.0  0.5436600000000003  0.24648000000000006  0.5968099999999997  1.0000
  C   C65       1.0  0.5709100000000004  0.31815  0.5639399999999998  1.0000
  C   C66       1.0  0.52252  0.40700999999999987  0.5634099999999997  1.0000
  C   C67       1.0  0.44939  0.42426999999999987  0.5950199999999998  1.0000
  C   C68       1.0  0.65304  0.30309  0.53095  1.0000
  C   C69       1.0  0.29353  0.4424100000000001  0.74413  1.0000
  C   C70       1.0  0.24458000000000005  0.5379499999999999  0.8035399999999998  1.0000
  C   C71       1.0  0.16794000000000003  0.5695  0.83116  1.0000
  C   C72       1.0  0.1859800000000001  0.6238300000000001  0.8647099999999998  1.0000
  C   C73       1.0  0.28006000000000003  0.64866  0.8716799999999998  1.0000
  C   C74       1.0  0.35557  0.6189499999999998  0.84318  1.0000
  C   C75       1.0  0.33865  0.56391  0.8092499999999998  1.0000
  C   C76       1.0  0.2965100000000001  0.70449  0.9092499999999998  1.0000
  C   C77       1.0  0.5796  0.8490099999999998  0.0038499999999999993  1.0000
  C   C78       1.0  0.6773800000000002  0.84748  0.00837  1.0000
  C   C79       1.0  0.7403700000000002  0.8059999999999998  0.9774699999999997  1.0000
  C   C80       1.0  0.70047  0.76749  0.9429699999999998  1.0000
  C   C81       1.0  0.6019  0.7723100000000002  0.9404999999999998  1.0000
  C   C82       1.0  0.000700000000000032  0.7285799999999998  0.9690999999999997  1.0000
  C   C83       1.0  0.90243  0.7284999999999998  0.96546  1.0000
  C   C84       1.0  0.8448400000000001  0.80298  0.9813599999999998  1.0000
  C   C85       1.0  0.8902600000000003  0.8741699999999998  0.00125  1.0000
  C   C86       1.0  0.98882  0.8683299999999998  0.0040799999999999986  1.0000
  C   C87       1.0  0.7478400000000003  0.6453299999999998  0.2738599999999999  1.0000
  C   C88       1.0  0.78063  0.7182299999999998  0.23581999999999995  1.0000
  C   C89       1.0  0.7103400000000002  0.8127099999999998  0.17840999999999996  1.0000
  C   C90       1.0  0.62559  0.84509  0.16068  1.0000
  C   C91       1.0  0.62998  0.9183299999999998  0.12759  1.0000
  C   C92       1.0  0.71784  0.9599799999999998  0.11110999999999997  1.0000
  C   C93       1.0  0.8022100000000002  0.92488  0.12811  1.0000
  C   C94       1.0  0.7991400000000001  0.8515199999999998  0.16168  1.0000
  C   C95       1.0  0.7193600000000002  0.04194  0.07694999999999998  1.0000
  C   C96       1.0  0.83459  0.61659  0.29917  1.0000
  C   C97       1.0  0.9263500000000002  0.70044  0.3462799999999999  1.0000
  C   C98       1.0  0.9595700000000003  0.6153499999999998  0.36726  1.0000
  C   C99       1.0  0.012309999999999998  0.6206999999999999  0.40295  1.0000
  C   C100      1.0  0.03338000000000003  0.70884  0.4177399999999999  1.0000
  C   C101      1.0  0.00017000000000003853  0.7935299999999998  0.39601999999999987  1.0000
  C   C102      1.0  0.94708  0.78965  0.36059999999999987  1.0000
  C   C103      1.0  0.08987000000000005  0.71233  0.4560299999999999  1.0000
  C   C104      1.0  0.67057  0.6910099999999999  0.3041099999999999  1.0000
  C   C105      1.0  0.57574  0.64757  0.3715999999999999  1.0000
  C   C106      1.0  0.52925  0.7371400000000001  0.3708399999999999  1.0000
  C   C107      1.0  0.45633000000000007  0.7535199999999997  0.4031899999999999  1.0000
  C   C108      1.0  0.42909  0.6818499999999997  0.4360599999999999  1.0000
  C   C109      1.0  0.47747  0.59299  0.43658999999999987  1.0000
  C   C110      1.0  0.5506000000000001  0.57573  0.4049799999999999  1.0000
  C   C111      1.0  0.34695  0.69691  0.4690499999999999  1.0000
  C   C112      1.0  0.70647  0.55759  0.25588  1.0000
  C   C113      1.0  0.7554200000000002  0.4620499999999999  0.19645999999999994  1.0000
  C   C114      1.0  0.83206  0.4304999999999999  0.16883999999999993  1.0000
  C   C115      1.0  0.81401  0.3761699999999999  0.1353  1.0000
  C   C116      1.0  0.71994  0.35134  0.12832999999999994  1.0000
  C   C117      1.0  0.6444200000000001  0.38105  0.15681999999999993  1.0000
  C   C118      1.0  0.6613400000000003  0.43608999999999987  0.19075999999999996  1.0000
  C   C119      1.0  0.70349  0.2955099999999999  0.09074999999999997  1.0000
  C   C120      1.0  0.42039  0.15099  0.99616  1.0000
  C   C121      1.0  0.32261  0.15252000000000004  0.9916299999999998  1.0000
  C   C122      1.0  0.25962  0.19399999999999995  0.022529999999999994  1.0000
  C   C123      1.0  0.2995200000000001  0.23250999999999997  0.057029999999999983  1.0000
  C   C124      1.0  0.39809  0.22769  0.0595  1.0000
  C   C125      1.0  0.9993  0.27142  0.030899999999999993  1.0000
  C   C126      1.0  0.09756000000000002  0.27149999999999996  0.03453999999999999  1.0000
  C   C127      1.0  0.15515  0.19701999999999995  0.01864  1.0000
  C   C128      1.0  0.10973000000000008  0.12583  0.9987599999999998  1.0000
  C   C129      1.0  0.011170000000000051  0.13167000000000004  0.9959199999999998  1.0000
  C   C130      1.0  0.64527  0.7478099999999999  0.77388  1.0000
  C   C131      1.0  0.71819  0.7805999999999997  0.7358299999999998  1.0000
  C   C132      1.0  0.8126900000000001  0.7103299999999998  0.6783999999999998  1.0000
  C   C133      1.0  0.8451  0.6255799999999998  0.6606699999999998  1.0000
  C   C134      1.0  0.9183500000000003  0.62999  0.6275699999999997  1.0000
  C   C135      1.0  0.95999  0.71786  0.61111  1.0000
  C   C136      1.0  0.9248600000000003  0.8022199999999998  0.6281099999999997  1.0000
  C   C137      1.0  0.85149  0.7991399999999999  0.6616799999999998  1.0000
  C   C138      1.0  0.04197000000000004  0.7193600000000001  0.5769499999999997  1.0000
  C   C139      1.0  0.61655  0.8345800000000001  0.7991899999999997  1.0000
  C   C140      1.0  0.7004300000000002  0.92636  0.84628  1.0000
  C   C141      1.0  0.6153400000000002  0.9595899999999998  0.86727  1.0000
  C   C142      1.0  0.6206900000000001  0.012330000000000048  0.9029699999999998  1.0000
  C   C143      1.0  0.70884  0.03338000000000004  0.9177499999999997  1.0000
  C   C144      1.0  0.79353  0.00016000000000006886  0.8960199999999998  1.0000
  C   C145      1.0  0.78964  0.94706  0.8605899999999997  1.0000
  C   C146      1.0  0.71233  0.08987000000000003  0.9560499999999997  1.0000
  C   C147      1.0  0.69096  0.6705499999999999  0.8041099999999998  1.0000
  C   C148      1.0  0.6475600000000002  0.5757300000000001  0.8716099999999998  1.0000
  C   C149      1.0  0.7371400000000004  0.52925  0.8708399999999997  1.0000
  C   C150      1.0  0.7535100000000002  0.4563299999999999  0.9031799999999998  1.0000
  C   C151      1.0  0.68185  0.4290800000000001  0.9360599999999998  1.0000
  C   C152      1.0  0.5929700000000001  0.47745000000000004  0.9365899999999998  1.0000
  C   C153      1.0  0.57572  0.55057  0.9049899999999997  1.0000
  C   C154      1.0  0.6969100000000001  0.34694999999999987  0.96905  1.0000
  C   C155      1.0  0.55754  0.7064599999999998  0.75588  1.0000
  C   C156      1.0  0.46205  0.75541  0.6964599999999997  1.0000
  C   C157      1.0  0.4305300000000001  0.8320499999999997  0.66885  1.0000
  C   C158      1.0  0.37621000000000004  0.8140199999999997  0.63531  1.0000
  C   C159      1.0  0.3513500000000001  0.7199499999999998  0.6283299999999998  1.0000
  C   C160      1.0  0.3810299999999999  0.64443  0.65682  1.0000
  C   C161      1.0  0.43607  0.66134  0.6907499999999998  1.0000
  C   C162      1.0  0.29552000000000017  0.7035  0.5907499999999998  1.0000
  C   C163      1.0  0.151  0.42038000000000003  0.49614999999999987  1.0000
  C   C164      1.0  0.15253000000000003  0.3226  0.4916299999999999  1.0000
  C   C165      1.0  0.194  0.25962999999999997  0.52253  1.0000
  C   C166      1.0  0.2325000000000001  0.2995499999999999  0.5570199999999997  1.0000
  C   C167      1.0  0.22768000000000002  0.39812999999999993  0.5594899999999998  1.0000
  C   C168      1.0  0.2714000000000001  0.9993099999999999  0.5308999999999998  1.0000
  C   C169      1.0  0.27148  0.09757  0.53454  1.0000
  C   C170      1.0  0.19702  0.15514999999999998  0.5186399999999999  1.0000
  C   C171      1.0  0.12585  0.10971999999999998  0.49876  1.0000
  C   C172      1.0  0.13168000000000002  0.01114000000000002  0.4959199999999999  1.0000
  N   N1        1.0  0.81207  0.5420499999999998  0.47044  1.0000
  N   N2        1.0  0.7975200000000001  0.04377000000000003  0.4879399999999999  1.0000
  N   N3        1.0  0.54206  0.8120799999999998  0.9704399999999997  1.0000
  N   N4        1.0  0.04375000000000002  0.79751  0.9879399999999998  1.0000
  N   N5        1.0  0.45793  0.18790999999999997  0.029569999999999992  1.0000
  N   N6        1.0  0.95624  0.20248999999999998  0.01206  1.0000
  N   N7        1.0  0.18792000000000003  0.4579499999999999  0.52956  1.0000
  N   N8        1.0  0.20248000000000002  0.9562299999999998  0.51207  1.0000
  O   O1        1.0  0.2569699999999999  0.30141  0.28775  1.0000
  O   O2        1.0  0.92967  0.3625599999999999  0.4349499999999999  1.0000
  O   O3        1.0  0.92311  0.19974999999999998  0.43774999999999986  1.0000
  O   O4        1.0  0.29538999999999993  0.12843  0.18828  1.0000
  O   O5        1.0  0.36632000000000003  0.8762199999999999  0.027749999999999993  1.0000
  O   O6        1.0  0.20501000000000005  0.8998899999999997  0.030209999999999994  1.0000
  O   O7        1.0  0.37673  0.3524099999999999  0.15884999999999994  1.0000
  O   O8        1.0  0.21933000000000005  0.6903199999999998  0.030339999999999992  1.0000
  O   O9        1.0  0.37693  0.68038  0.00616  1.0000
  O   O10       1.0  0.4816800000000001  0.21904  0.2724799999999999  1.0000
  O   O11       1.0  0.7191000000000002  0.22234999999999996  0.4349999999999999  1.0000
  O   O12       1.0  0.73297  0.38121  0.41335  1.0000
  O   O13       1.0  0.3013800000000001  0.25696  0.7877499999999997  1.0000
  O   O14       1.0  0.36255000000000004  0.9297  0.9349399999999998  1.0000
  O   O15       1.0  0.19975000000000007  0.9231699999999998  0.9377699999999998  1.0000
  O   O16       1.0  0.12841000000000005  0.29536999999999997  0.6882699999999998  1.0000
  O   O17       1.0  0.87621  0.36633  0.52778  1.0000
  O   O18       1.0  0.89989  0.20500999999999991  0.5302  1.0000
  O   O19       1.0  0.3524  0.37671999999999994  0.6588799999999998  1.0000
  O   O20       1.0  0.69033  0.21933000000000002  0.5303399999999998  1.0000
  O   O21       1.0  0.6803800000000002  0.37693000000000004  0.5061599999999998  1.0000
  O   O22       1.0  0.21903  0.4816899999999998  0.77248  1.0000
  O   O23       1.0  0.22235000000000005  0.7191199999999998  0.9350199999999997  1.0000
  O   O24       1.0  0.38121  0.7329700000000001  0.9133499999999998  1.0000
  O   O25       1.0  0.69861  0.74304  0.21224999999999994  1.0000
  O   O26       1.0  0.6374400000000001  0.0703  0.06506  1.0000
  O   O27       1.0  0.8002400000000001  0.07681999999999997  0.06222999999999999  1.0000
  O   O28       1.0  0.8715800000000001  0.7046300000000001  0.3117299999999999  1.0000
  O   O29       1.0  0.12378  0.63367  0.47222  1.0000
  O   O30       1.0  0.10010999999999999  0.79499  0.4698  1.0000
  O   O31       1.0  0.6476  0.6232800000000001  0.3411299999999999  1.0000
  O   O32       1.0  0.30966000000000005  0.78067  0.46966999999999987  1.0000
  O   O33       1.0  0.31962  0.6230699999999999  0.4938399999999999  1.0000
  O   O34       1.0  0.7809700000000003  0.51831  0.22751999999999994  1.0000
  O   O35       1.0  0.7776500000000001  0.28088  0.06499  1.0000
  O   O36       1.0  0.61878  0.26703  0.08665  1.0000
  O   O37       1.0  0.74302  0.6985799999999998  0.71225  1.0000
  O   O38       1.0  0.07032000000000001  0.63744  0.56505  1.0000
  O   O39       1.0  0.07688000000000005  0.8002499999999998  0.5622499999999998  1.0000
  O   O40       1.0  0.7046  0.8715699999999996  0.81173  1.0000
  O   O41       1.0  0.63367  0.12378000000000006  0.9722499999999997  1.0000
  O   O42       1.0  0.7949900000000001  0.10011000000000006  0.9697899999999998  1.0000
  O   O43       1.0  0.62327  0.64759  0.8411499999999997  1.0000
  O   O44       1.0  0.78066  0.3096799999999999  0.9696599999999999  1.0000
  O   O45       1.0  0.62307  0.31962000000000007  0.9938399999999997  1.0000
  O   O46       1.0  0.51831  0.78096  0.72752  1.0000
  O   O47       1.0  0.2808900000000001  0.77765  0.5649999999999997  1.0000
  O   O48       1.0  0.26702999999999993  0.6187899999999997  0.58665  1.0000
