data_image0
_chemical_formula_structural       Zn16H96C112O64
_chemical_formula_sum              "Zn16 H96 C112 O64"
_cell_length_a       15.8141
_cell_length_b       17.103149999999996
_cell_length_c       18.45765
_cell_angle_alpha    90.01717
_cell_angle_beta     89.99547999999999
_cell_angle_gamma    89.98928

_symmetry_space_group_name_H-M    'P 1'
_symmetry_Int_Tables_number       1

loop_
  _symmetry_equiv_pos_as_xyz
  'x,y,z'

loop_
  _atom_site_type_symbol
  _atom_site_label
  _atom_site_symmetry_multiplicity
  _atom_site_fract_x
  _atom_site_fract_y
  _atom_site_fract_z
  _atom_site_occupancy
  Zn  Zn1       1.0  0.4311899999999999  0.82743  0.64553  1.0000
  Zn  Zn2       1.0  0.4760099999999999  0.67286  0.59458  1.0000
  Zn  Zn3       1.0  0.06883999999999997  0.17257999999999998  0.14635  1.0000
  Zn  Zn4       1.0  0.024099999999999993  0.32710999999999996  0.09408  1.0000
  Zn  Zn5       1.0  0.5689  0.32747999999999994  0.85342  1.0000
  Zn  Zn6       1.0  0.5241999999999998  0.17295  0.90593  1.0000
  Zn  Zn7       1.0  0.93134  0.67254  0.35444  1.0000
  Zn  Zn8       1.0  0.9759599999999998  0.82718  0.40537  1.0000
  Zn  Zn9       1.0  0.5688099999999998  0.17257  0.35447  1.0000
  Zn  Zn10      1.0  0.5239999999999998  0.32714  0.40542  1.0000
  Zn  Zn11      1.0  0.9311599999999998  0.82742  0.85366  1.0000
  Zn  Zn12      1.0  0.9759  0.67289  0.9059200000000001  1.0000
  Zn  Zn13      1.0  0.43109999999999987  0.67252  0.14658  1.0000
  Zn  Zn14      1.0  0.47581  0.82705  0.09407  1.0000
  Zn  Zn15      1.0  0.06865999999999997  0.32746  0.64556  1.0000
  Zn  Zn16      1.0  0.02404  0.17282  0.59463  1.0000
  H   H1        1.0  0.4637999999999999  0.7961  0.36735  1.0000
  H   H2        1.0  0.5355399999999998  0.717  0.36435  1.0000
  H   H3        1.0  0.5979199999999998  0.93582  0.26002  1.0000
  H   H4        1.0  0.5007899999999997  0.92589  0.30554  1.0000
  H   H5        1.0  0.73542  0.9421899999999999  0.33051  1.0000
  H   H6        1.0  0.7335799999999998  0.93698  0.42602  1.0000
  H   H7        1.0  0.6741199999999998  0.72317  0.43474  1.0000
  H   H8        1.0  0.6979399999999998  0.80668  0.48828  1.0000
  H   H9        1.0  0.59571  0.92152  0.49305  1.0000
  H   H10       1.0  0.49875  0.91738  0.44603  1.0000
  H   H11       1.0  0.7014699999999998  0.81993  0.25401  1.0000
  H   H12       1.0  0.67613  0.73118  0.2988  1.0000
  H   H13       1.0  0.036369999999999986  0.2038  0.86791  1.0000
  H   H14       1.0  0.9643899999999997  0.28274  0.86508  1.0000
  H   H15       1.0  0.9022499999999998  0.06447  0.75992  1.0000
  H   H16       1.0  0.9993599999999999  0.07392  0.80555  1.0000
  H   H17       1.0  0.7644699999999998  0.05765  0.8304  1.0000
  H   H18       1.0  0.7664399999999998  0.06298  0.92588  1.0000
  H   H19       1.0  0.8261899999999998  0.27657  0.9348599999999999  1.0000
  H   H20       1.0  0.8017399999999998  0.19306  0.98823  1.0000
  H   H21       1.0  0.90421  0.07775  0.9930400000000001  1.0000
  H   H22       1.0  0.0012099999999999995  0.08207  0.9460299999999999  1.0000
  H   H23       1.0  0.7992699999999998  0.17987  0.75399  1.0000
  H   H24       1.0  0.8242299999999998  0.26873  0.79888  1.0000
  H   H25       1.0  0.5363699999999998  0.29617  0.1321  1.0000
  H   H26       1.0  0.4644199999999999  0.21722  0.13493  1.0000
  H   H27       1.0  0.40224  0.43553  0.2401  1.0000
  H   H28       1.0  0.49936999999999987  0.426  0.19445  1.0000
  H   H29       1.0  0.2644899999999999  0.44239  0.16964  1.0000
  H   H30       1.0  0.26643  0.43707  0.07414  1.0000
  H   H31       1.0  0.3261399999999999  0.22345  0.06517  1.0000
  H   H32       1.0  0.30173  0.30692  0.01178  1.0000
  H   H33       1.0  0.40416999999999986  0.42221  0.006969999999999999  1.0000
  H   H34       1.0  0.5012  0.4178799999999999  0.05394  1.0000
  H   H35       1.0  0.2992399999999999  0.3201  0.24603999999999998  1.0000
  H   H36       1.0  0.32421  0.23127  0.20111  1.0000
  H   H37       1.0  0.9637099999999997  0.70393  0.63272  1.0000
  H   H38       1.0  0.03548  0.78298  0.63569  1.0000
  H   H39       1.0  0.09791999999999997  0.56414  0.73996  1.0000
  H   H40       1.0  0.0007699999999999997  0.57405  0.69447  1.0000
  H   H41       1.0  0.23541999999999993  0.55779  0.66944  1.0000
  H   H42       1.0  0.23356999999999994  0.5629899999999999  0.57393  1.0000
  H   H43       1.0  0.17394  0.77679  0.56526  1.0000
  H   H44       1.0  0.19779999999999995  0.69328  0.51168  1.0000
  H   H45       1.0  0.09564999999999997  0.57847  0.50693  1.0000
  H   H46       1.0  0.9986999999999999  0.58257  0.55399  1.0000
  H   H47       1.0  0.20143999999999995  0.67999  0.74593  1.0000
  H   H48       1.0  0.17603  0.76876  0.70117  1.0000
  H   H49       1.0  0.5362  0.2039  0.63266  1.0000
  H   H50       1.0  0.4644699999999999  0.283  0.63565  1.0000
  H   H51       1.0  0.40208  0.06419  0.73999  1.0000
  H   H52       1.0  0.4992199999999999  0.07411  0.69446  1.0000
  H   H53       1.0  0.26458  0.05781  0.66949  1.0000
  H   H54       1.0  0.26642  0.06302  0.57398  1.0000
  H   H55       1.0  0.32588  0.27683  0.56526  1.0000
  H   H56       1.0  0.30206  0.19332  0.51172  1.0000
  H   H57       1.0  0.40428999999999987  0.07848  0.50695  1.0000
  H   H58       1.0  0.5012499999999998  0.08262  0.55397  1.0000
  H   H59       1.0  0.2985299999999999  0.18007  0.746  1.0000
  H   H60       1.0  0.32388  0.26882  0.7012  1.0000
  H   H61       1.0  0.9636299999999998  0.7962  0.13209  1.0000
  H   H62       1.0  0.03560999999999999  0.71726  0.13492  1.0000
  H   H63       1.0  0.09775  0.93553  0.24007999999999996  1.0000
  H   H64       1.0  0.00064  0.9260799999999998  0.19445  1.0000
  H   H65       1.0  0.23552999999999993  0.9423499999999999  0.16961  1.0000
  H   H66       1.0  0.23356  0.9370199999999999  0.07413  1.0000
  H   H67       1.0  0.17381999999999995  0.72343  0.06515  1.0000
  H   H68       1.0  0.19826999999999995  0.80694  0.01177  1.0000
  H   H69       1.0  0.0958  0.92225  0.006960000000000001  1.0000
  H   H70       1.0  0.9987899999999998  0.91793  0.05397  1.0000
  H   H71       1.0  0.20073999999999995  0.82013  0.24601  1.0000
  H   H72       1.0  0.17576999999999995  0.73127  0.20112  1.0000
  H   H73       1.0  0.4636299999999999  0.70383  0.8679  1.0000
  H   H74       1.0  0.5355799999999997  0.78278  0.86508  1.0000
  H   H75       1.0  0.5977699999999998  0.56447  0.75991  1.0000
  H   H76       1.0  0.5006399999999999  0.574  0.80555  1.0000
  H   H77       1.0  0.73552  0.55761  0.83036  1.0000
  H   H78       1.0  0.7335699999999998  0.56293  0.92586  1.0000
  H   H79       1.0  0.6738599999999998  0.77655  0.93483  1.0000
  H   H80       1.0  0.6982799999999998  0.69307  0.98822  1.0000
  H   H81       1.0  0.5958399999999998  0.57779  0.9930400000000001  1.0000
  H   H82       1.0  0.4987999999999999  0.58212  0.9460699999999999  1.0000
  H   H83       1.0  0.7007599999999998  0.67989  0.75396  1.0000
  H   H84       1.0  0.67579  0.76873  0.79889  1.0000
  H   H85       1.0  0.03629  0.29607  0.36729  1.0000
  H   H86       1.0  0.9645199999999998  0.21702  0.36431  1.0000
  H   H87       1.0  0.9020799999999998  0.43585999999999997  0.26005  1.0000
  H   H88       1.0  0.99923  0.42595  0.30553  1.0000
  H   H89       1.0  0.7645799999999998  0.44221  0.33056  1.0000
  H   H90       1.0  0.76643  0.43701  0.42607  1.0000
  H   H91       1.0  0.8260599999999998  0.22321  0.43475  1.0000
  H   H92       1.0  0.8021999999999998  0.30672  0.48832  1.0000
  H   H93       1.0  0.9043499999999998  0.42153  0.49307000000000006  1.0000
  H   H94       1.0  0.00131  0.41743  0.44601  1.0000
  H   H95       1.0  0.7985699999999998  0.32001  0.25407  1.0000
  H   H96       1.0  0.8239699999999998  0.23124  0.29883  1.0000
  C   C1        1.0  0.5310199999999999  0.77198  0.50233  1.0000
  C   C2        1.0  0.5730499999999997  0.81098  0.43783999999999995  1.0000
  C   C3        1.0  0.53131  0.78089  0.36728  1.0000
  C   C4        1.0  0.57516  0.81895  0.30182  1.0000
  C   C5        1.0  0.56768  0.90883  0.30708  1.0000
  C   C6        1.0  0.60905  0.93832  0.37701  1.0000
  C   C7        1.0  0.70324  0.91487  0.37675  1.0000
  C   C8        1.0  0.71182  0.82556  0.37185  1.0000
  C   C9        1.0  0.6676799999999998  0.78699  0.43787  1.0000
  C   C10       1.0  0.5657399999999998  0.90054  0.4431399999999999  1.0000
  C   C11       1.0  0.6697599999999998  0.79502  0.30164  1.0000
  C   C12       1.0  0.53547  0.79235  0.23061  1.0000
  C   C13       1.0  0.60432  0.0278  0.38357  1.0000
  C   C14       1.0  0.8043199999999998  0.80048  0.37428  1.0000
  C   C15       1.0  0.9685799999999998  0.22784999999999994  0.0028  1.0000
  C   C16       1.0  0.9268899999999998  0.18851  0.9382000000000001  1.0000
  C   C17       1.0  0.9688399999999998  0.21887  0.86784  1.0000
  C   C18       1.0  0.92527  0.18106  0.80222  1.0000
  C   C19       1.0  0.9325299999999997  0.09119  0.80711  1.0000
  C   C20       1.0  0.8909499999999998  0.06147  0.8768000000000001  1.0000
  C   C21       1.0  0.7967399999999998  0.08504  0.8765700000000001  1.0000
  C   C22       1.0  0.78827  0.17439  0.8716800000000001  1.0000
  C   C23       1.0  0.8322599999999998  0.21271  0.9379299999999999  1.0000
  C   C24       1.0  0.9341999999999998  0.0989  0.9432  1.0000
  C   C25       1.0  0.8306999999999998  0.20491  0.8017  1.0000
  C   C26       1.0  0.9650999999999997  0.2079  0.73122  1.0000
  C   C27       1.0  0.8956299999999998  0.9719700000000001  0.88249  1.0000
  C   C28       1.0  0.6956999999999998  0.19956  0.87327  1.0000
  C   C29       1.0  0.46873  0.2721299999999999  0.9972199999999999  1.0000
  C   C30       1.0  0.42687999999999987  0.31146  0.061790000000000005  1.0000
  C   C31       1.0  0.4688399999999999  0.28108  0.13214  1.0000
  C   C32       1.0  0.4252799999999999  0.31889  0.19779  1.0000
  C   C33       1.0  0.43253  0.40875  0.19291  1.0000
  C   C34       1.0  0.3909699999999999  0.4385  0.12322  1.0000
  C   C35       1.0  0.2967399999999999  0.415  0.12345  1.0000
  C   C36       1.0  0.2882599999999999  0.32563  0.12835  1.0000
  C   C37       1.0  0.3322199999999999  0.28729  0.0621  1.0000
  C   C38       1.0  0.4341899999999999  0.40104  0.0568  1.0000
  C   C39       1.0  0.3307099999999999  0.29508  0.19832  1.0000
  C   C40       1.0  0.46517  0.29207  0.26879  1.0000
  C   C41       1.0  0.3955899999999999  0.528  0.11751000000000002  1.0000
  C   C42       1.0  0.19572999999999993  0.30031  0.12669  1.0000
  C   C43       1.0  0.031079999999999993  0.72808  0.49759  1.0000
  C   C44       1.0  0.07292999999999997  0.68898  0.56216  1.0000
  C   C45       1.0  0.031219999999999994  0.7191  0.63275  1.0000
  C   C46       1.0  0.07509999999999997  0.68099  0.69818  1.0000
  C   C47       1.0  0.06766999999999997  0.59112  0.6929  1.0000
  C   C48       1.0  0.10905999999999998  0.56165  0.62297  1.0000
  C   C49       1.0  0.20324999999999993  0.58514  0.6232  1.0000
  C   C50       1.0  0.21173999999999996  0.67445  0.6281  1.0000
  C   C51       1.0  0.16751  0.71298  0.5621  1.0000
  C   C52       1.0  0.06568999999999997  0.59942  0.55687  1.0000
  C   C53       1.0  0.16968  0.70492  0.69834  1.0000
  C   C54       1.0  0.03542999999999999  0.70764  0.76939  1.0000
  C   C55       1.0  0.10432999999999998  0.47217999999999993  0.6164  1.0000
  C   C56       1.0  0.30422  0.69965  0.62574  1.0000
  C   C57       1.0  0.4689799999999999  0.22802  0.49766999999999995  1.0000
  C   C58       1.0  0.42695999999999995  0.18902  0.56216  1.0000
  C   C59       1.0  0.4686899999999999  0.21911  0.63273  1.0000
  C   C60       1.0  0.4248399999999999  0.18105  0.69818  1.0000
  C   C61       1.0  0.43231999999999987  0.09117  0.69292  1.0000
  C   C62       1.0  0.39095999999999986  0.06168  0.62299  1.0000
  C   C63       1.0  0.29677  0.08513  0.62325  1.0000
  C   C64       1.0  0.28818  0.17444  0.62815  1.0000
  C   C65       1.0  0.3323199999999999  0.21301  0.56214  1.0000
  C   C66       1.0  0.43426  0.09946  0.55686  1.0000
  C   C67       1.0  0.33024  0.20498  0.69837  1.0000
  C   C68       1.0  0.4645299999999999  0.20765  0.7694  1.0000
  C   C69       1.0  0.3956899999999999  0.9722  0.61643  1.0000
  C   C70       1.0  0.19567999999999994  0.19952  0.62573  1.0000
  C   C71       1.0  0.03142  0.77215  0.9972  1.0000
  C   C72       1.0  0.07312  0.81149  0.0618  1.0000
  C   C73       1.0  0.031159999999999993  0.78113  0.13216  1.0000
  C   C74       1.0  0.07472999999999998  0.81893  0.19778  1.0000
  C   C75       1.0  0.06748  0.90881  0.19289  1.0000
  C   C76       1.0  0.10904999999999997  0.93853  0.12319999999999999  1.0000
  C   C77       1.0  0.20325999999999994  0.91496  0.12343000000000001  1.0000
  C   C78       1.0  0.21173999999999996  0.82561  0.12832  1.0000
  C   C79       1.0  0.16774999999999995  0.78729  0.06206999999999999  1.0000
  C   C80       1.0  0.0658  0.9011  0.0568  1.0000
  C   C81       1.0  0.16929999999999995  0.79508  0.1983  1.0000
  C   C82       1.0  0.03489999999999999  0.7921  0.26878  1.0000
  C   C83       1.0  0.10437999999999997  0.02803  0.11751000000000002  1.0000
  C   C84       1.0  0.3043099999999999  0.80044  0.12673  1.0000
  C   C85       1.0  0.5312699999999998  0.72787  0.00279  1.0000
  C   C86       1.0  0.5731199999999997  0.68855  0.9382099999999999  1.0000
  C   C87       1.0  0.5311699999999998  0.7189199999999999  0.8678599999999999  1.0000
  C   C88       1.0  0.5747299999999997  0.68111  0.80221  1.0000
  C   C89       1.0  0.5674699999999998  0.59125  0.80709  1.0000
  C   C90       1.0  0.60904  0.5615  0.87679  1.0000
  C   C91       1.0  0.70326  0.585  0.87655  1.0000
  C   C92       1.0  0.7117399999999998  0.67437  0.87165  1.0000
  C   C93       1.0  0.6677799999999998  0.71271  0.9379000000000001  1.0000
  C   C94       1.0  0.5658099999999998  0.59896  0.9432  1.0000
  C   C95       1.0  0.6692999999999998  0.70492  0.80168  1.0000
  C   C96       1.0  0.5348299999999998  0.70793  0.73121  1.0000
  C   C97       1.0  0.6044199999999997  0.472  0.88249  1.0000
  C   C98       1.0  0.8042799999999998  0.69969  0.8733200000000001  1.0000
  C   C99       1.0  0.9689199999999998  0.27192  0.50242  1.0000
  C   C100      1.0  0.9270799999999998  0.31102  0.43783999999999995  1.0000
  C   C101      1.0  0.9687899999999998  0.2809  0.36725  1.0000
  C   C102      1.0  0.9248999999999998  0.31901  0.30182  1.0000
  C   C103      1.0  0.9323299999999998  0.40888  0.30711  1.0000
  C   C104      1.0  0.8909399999999997  0.43835  0.37703  1.0000
  C   C105      1.0  0.79675  0.41486  0.3768  1.0000
  C   C106      1.0  0.7882599999999997  0.32555  0.3719  1.0000
  C   C107      1.0  0.83249  0.28702  0.4379  1.0000
  C   C108      1.0  0.9343199999999998  0.40059  0.4431300000000001  1.0000
  C   C109      1.0  0.83032  0.29508  0.30167  1.0000
  C   C110      1.0  0.9645699999999998  0.29236  0.23061  1.0000
  C   C111      1.0  0.8956699999999997  0.52782  0.3836  1.0000
  C   C112      1.0  0.69578  0.30035  0.37426  1.0000
  O   O1        1.0  0.5091599999999997  0.81297  0.55665  1.0000
  O   O2        1.0  0.52085  0.69703  0.49995  1.0000
  O   O3        1.0  0.49148999999999987  0.73038  0.22891  1.0000
  O   O4        1.0  0.5497199999999998  0.83708  0.17547  1.0000
  O   O5        1.0  0.5661799999999998  0.06363  0.32993  1.0000
  O   O6        1.0  0.63598  0.0629  0.43601000000000006  1.0000
  O   O7        1.0  0.8587299999999998  0.85307  0.39291  1.0000
  O   O8        1.0  0.8213799999999998  0.72978  0.35967  1.0000
  O   O9        1.0  0.9897699999999998  0.18743  0.05783  1.0000
  O   O10       1.0  0.9792599999999998  0.30247  0.99976  1.0000
  O   O11       1.0  0.0091  0.26979  0.72934  1.0000
  O   O12       1.0  0.9505299999999998  0.16302  0.67623  1.0000
  O   O13       1.0  0.9338599999999998  0.9364199999999999  0.82875  1.0000
  O   O14       1.0  0.86345  0.93649  0.93458  1.0000
  O   O15       1.0  0.64117  0.14712  0.89138  1.0000
  O   O16       1.0  0.6788699999999998  0.27012  0.85825  1.0000
  O   O17       1.0  0.4901599999999999  0.31248  0.9422300000000001  1.0000
  O   O18       1.0  0.4791799999999999  0.19747999999999996  0.00018  1.0000
  O   O19       1.0  0.50929  0.23029  0.2707  1.0000
  O   O20       1.0  0.45052  0.33695  0.32383  1.0000
  O   O21       1.0  0.4338899999999999  0.56353  0.17125  1.0000
  O   O22       1.0  0.3634499999999999  0.56353  0.06541  1.0000
  O   O23       1.0  0.14111  0.35268  0.10856  1.0000
  O   O24       1.0  0.17891999999999994  0.22975999999999996  0.14178  1.0000
  O   O25       1.0  0.00906  0.68693  0.44337  1.0000
  O   O26       1.0  0.020999999999999994  0.80286  0.49982000000000004  1.0000
  O   O27       1.0  0.9914599999999998  0.7696  0.77113  1.0000
  O   O28       1.0  0.049759999999999985  0.66287  0.82451  1.0000
  O   O29       1.0  0.06613999999999998  0.4364  0.67005  1.0000
  O   O30       1.0  0.13611  0.43709  0.56402  1.0000
  O   O31       1.0  0.35874  0.6473  0.60709  1.0000
  O   O32       1.0  0.32098  0.77029  0.64028  1.0000
  O   O33       1.0  0.4908499999999999  0.18704  0.44336000000000003  1.0000
  O   O34       1.0  0.47915  0.3029899999999999  0.50006  1.0000
  O   O35       1.0  0.5085199999999999  0.26961  0.77108  1.0000
  O   O36       1.0  0.4502699999999999  0.16293  0.82453  1.0000
  O   O37       1.0  0.4338299999999999  0.9363799999999999  0.67008  1.0000
  O   O38       1.0  0.3640199999999999  0.9371  0.564  1.0000
  O   O39       1.0  0.14126999999999995  0.14693  0.60708  1.0000
  O   O40       1.0  0.17862999999999996  0.27021  0.64035  1.0000
  O   O41       1.0  0.010229999999999996  0.81259  0.9421999999999999  1.0000
  O   O42       1.0  0.02074  0.69752  0.00023  1.0000
  O   O43       1.0  0.9908899999999998  0.73021  0.27069  1.0000
  O   O44       1.0  0.04944999999999999  0.83697  0.32378  1.0000
  O   O45       1.0  0.06613  0.06359  0.17124  1.0000
  O   O46       1.0  0.13653999999999994  0.06351999999999998  0.06542  1.0000
  O   O47       1.0  0.3588399999999999  0.85288  0.10863000000000002  1.0000
  O   O48       1.0  0.32113999999999987  0.72987  0.14175  1.0000
  O   O49       1.0  0.5098399999999997  0.68753  0.0578  1.0000
  O   O50       1.0  0.52082  0.80251  0.99984  1.0000
  O   O51       1.0  0.4907199999999999  0.76972  0.72931  1.0000
  O   O52       1.0  0.5494599999999997  0.66307  0.67618  1.0000
  O   O53       1.0  0.5661099999999998  0.43647  0.82876  1.0000
  O   O54       1.0  0.6365499999999997  0.43648  0.9346100000000002  1.0000
  O   O55       1.0  0.8588999999999998  0.64733  0.89144  1.0000
  O   O56       1.0  0.82108  0.77025  0.85824  1.0000
  O   O57       1.0  0.9909399999999998  0.31308  0.55663  1.0000
  O   O58       1.0  0.9789899999999998  0.19714  0.50019  1.0000
  O   O59       1.0  0.00854  0.2304  0.22887  1.0000
  O   O60       1.0  0.9502599999999998  0.33712  0.1755  1.0000
  O   O61       1.0  0.9338599999999998  0.5636  0.32994  1.0000
  O   O62       1.0  0.8638899999999999  0.56292  0.43597  1.0000
  O   O63       1.0  0.64125  0.35271  0.39292  1.0000
  O   O64       1.0  0.67901  0.22969  0.35971  1.0000
