data_image0
_chemical_formula_structural       Cu12H76C160N2O48
_chemical_formula_sum              "Cu12 H76 C160 N2 O48"
_cell_length_a       18.6835
_cell_length_b       24.92548
_cell_length_c       24.925470000000004
_cell_angle_alpha    67.95502000000002
_cell_angle_beta     68.03592
_cell_angle_gamma    68.03593

_space_group_name_H-M_alt    "P 1"
_space_group_IT_number       1

loop_
  _space_group_symop_operation_xyz
  'x, y, z'

loop_
  _atom_site_type_symbol
  _atom_site_label
  _atom_site_symmetry_multiplicity
  _atom_site_fract_x
  _atom_site_fract_y
  _atom_site_fract_z
  _atom_site_occupancy
  Cu  Cu1       1.0  0.14062000000000013  0.5181300000000001  0.9473699999999998  1.0000
  Cu  Cu2       1.0  0.03579999999999995  0.4994500000000001  0.04166999999999999  1.0000
  Cu  Cu3       1.0  0.60671  0.4819200000000001  0.05252  1.0000
  Cu  Cu4       1.0  0.57731  0.50057  0.95825  1.0000
  Cu  Cu5       1.0  0.60671  0.05252000000000002  0.48193  1.0000
  Cu  Cu6       1.0  0.5773100000000002  0.9582500000000003  0.5005699999999998  1.0000
  Cu  Cu7       1.0  0.14062000000000013  0.94736  0.51813  1.0000
  Cu  Cu8       1.0  0.03580000000000002  0.04166999999999998  0.49945  1.0000
  Cu  Cu9       1.0  0.2758099999999999  0.8341000000000002  0.8340999999999998  1.0000
  Cu  Cu10      1.0  0.20723999999999998  0.9020600000000002  0.9020599999999999  1.0000
  Cu  Cu11      1.0  0.94293  0.16586  0.16586  1.0000
  Cu  Cu12      1.0  0.011149999999999998  0.09793  0.09793  1.0000
  H   H1        1.0  0.43782999999999994  0.6873000000000002  0.93075  1.0000
  H   H2        1.0  0.5265700000000001  0.65639  0.07892999999999999  1.0000
  H   H3        1.0  0.36469  0.82741  0.0161  1.0000
  H   H4        1.0  0.3298899999999999  0.8261000000000002  0.10864999999999997  1.0000
  H   H5        1.0  0.57395  0.7509400000000002  0.18076  1.0000
  H   H6        1.0  0.5715099999999999  0.7141100000000002  0.10276999999999997  1.0000
  H   H7        1.0  0.9999899999999998  0.8411700000000002  0.0013199999999999998  1.0000
  H   H8        1.0  0.91539  0.6851  0.05246  1.0000
  H   H9        1.0  0.14690999999999999  0.69215  0.92758  1.0000
  H   H10       1.0  0.79296  0.7670700000000001  0.049289999999999994  1.0000
  H   H11       1.0  0.6684099999999997  0.8206400000000006  0.11084  1.0000
  H   H12       1.0  0.9330400000000001  0.8343100000000001  0.09963999999999999  1.0000
  H   H13       1.0  0.01355999999999996  0.5546400000000002  0.8166999999999998  1.0000
  H   H14       1.0  0.7894100000000001  0.5364400000000001  0.8231199999999997  1.0000
  H   H15       1.0  0.8454199999999998  0.5025000000000002  0.98714  1.0000
  H   H16       1.0  0.9325599999999997  0.6539300000000001  0.7421599999999998  1.0000
  H   H17       1.0  0.9183300000000001  0.5357300000000002  0.6253599999999999  1.0000
  H   H18       1.0  0.90901  0.49205000000000004  0.73412  1.0000
  H   H19       1.0  0.055439999999999934  0.3124700000000001  0.06944  1.0000
  H   H20       1.0  0.26116  0.34382000000000007  0.9213599999999997  1.0000
  H   H21       1.0  0.20807000000000003  0.17249  0.98403  1.0000
  H   H22       1.0  0.26459000000000005  0.17383000000000004  0.8913499999999999  1.0000
  H   H23       1.0  0.50504  0.24954000000000012  0.81983  1.0000
  H   H24       1.0  0.38782000000000016  0.2861500000000002  0.8976899999999998  1.0000
  H   H25       1.0  0.8423  0.15901000000000004  0.9986599999999999  1.0000
  H   H26       1.0  0.65286  0.31482000000000004  0.94748  1.0000
  H   H27       1.0  0.76615  0.30799  0.07261  1.0000
  H   H28       1.0  0.6094200000000002  0.2328000000000001  0.9504299999999998  1.0000
  H   H29       1.0  0.6002300000000002  0.17901000000000014  0.8887399999999998  1.0000
  H   H30       1.0  0.8668299999999999  0.16581000000000004  0.90048  1.0000
  H   H31       1.0  0.38516999999999996  0.44512000000000007  0.1834  1.0000
  H   H32       1.0  0.14931999999999993  0.4639700000000001  0.17635  1.0000
  H   H33       1.0  0.33567000000000013  0.49773000000000006  0.0126  1.0000
  H   H34       1.0  0.32909  0.3461500000000001  0.25782  1.0000
  H   H35       1.0  0.07980999999999995  0.4640900000000001  0.3744599999999999  1.0000
  H   H36       1.0  0.13552999999999996  0.5078500000000001  0.2657399999999999  1.0000
  H   H37       1.0  0.05544  0.06944000000000004  0.31246999999999997  1.0000
  H   H38       1.0  0.26116  0.9213600000000001  0.34381999999999996  1.0000
  H   H39       1.0  0.20806999999999998  0.98402  0.17248999999999998  1.0000
  H   H40       1.0  0.26459  0.8913500000000002  0.17383  1.0000
  H   H41       1.0  0.5050399999999999  0.81983  0.24953999999999998  1.0000
  H   H42       1.0  0.3878199999999999  0.89768  0.28615  1.0000
  H   H43       1.0  0.8423000000000002  0.99866  0.15901  1.0000
  H   H44       1.0  0.6528599999999999  0.9474800000000001  0.31481999999999993  1.0000
  H   H45       1.0  0.7661499999999999  0.07261000000000002  0.30798999999999993  1.0000
  H   H46       1.0  0.6094300000000001  0.9504200000000002  0.23279999999999995  1.0000
  H   H47       1.0  0.6002300000000002  0.8887400000000004  0.17900999999999997  1.0000
  H   H48       1.0  0.8668299999999999  0.9004800000000002  0.16580999999999999  1.0000
  H   H49       1.0  0.38516999999999996  0.18340000000000006  0.44511999999999996  1.0000
  H   H50       1.0  0.14932000000000004  0.17635000000000003  0.46397  1.0000
  H   H51       1.0  0.3356700000000001  0.012600000000000035  0.4977299999999999  1.0000
  H   H52       1.0  0.32908999999999994  0.25782  0.34614999999999996  1.0000
  H   H53       1.0  0.07981000000000003  0.37446  0.4640899999999999  1.0000
  H   H54       1.0  0.13553000000000007  0.26574  0.50785  1.0000
  H   H55       1.0  0.43783  0.9307500000000002  0.6872999999999999  1.0000
  H   H56       1.0  0.5265700000000001  0.07893000000000006  0.6563899999999999  1.0000
  H   H57       1.0  0.36468  0.016099999999999993  0.82742  1.0000
  H   H58       1.0  0.32988000000000006  0.10864999999999998  0.8261  1.0000
  H   H59       1.0  0.57395  0.18076000000000014  0.7509499999999999  1.0000
  H   H60       1.0  0.57151  0.10278000000000007  0.7141099999999999  1.0000
  H   H61       1.0  0.9999900000000002  0.0013200000000000243  0.8411699999999999  1.0000
  H   H62       1.0  0.91539  0.05246  0.6851  1.0000
  H   H63       1.0  0.14690999999999993  0.9275800000000002  0.69215  1.0000
  H   H64       1.0  0.7929600000000001  0.04929000000000004  0.7670699999999998  1.0000
  H   H65       1.0  0.6684100000000001  0.11084000000000008  0.8206499999999998  1.0000
  H   H66       1.0  0.9330400000000001  0.09964000000000006  0.8343199999999998  1.0000
  H   H67       1.0  0.013560000000000055  0.8167  0.55464  1.0000
  H   H68       1.0  0.7894099999999998  0.8231200000000004  0.5364399999999999  1.0000
  H   H69       1.0  0.84542  0.9871400000000005  0.5024999999999998  1.0000
  H   H70       1.0  0.9325599999999997  0.7421600000000002  0.65393  1.0000
  H   H71       1.0  0.9183300000000001  0.6253600000000001  0.5357299999999999  1.0000
  H   H72       1.0  0.9090099999999998  0.7341200000000001  0.49204999999999993  1.0000
  H   H73       1.0  0.25453000000000003  0.96579  0.9657899999999999  1.0000
  H   H74       1.0  0.033279999999999824  0.9652000000000003  0.9652  1.0000
  H   H75       1.0  0.18471000000000007  0.03496000000000001  0.03496  1.0000
  H   H76       1.0  0.96359  0.03427  0.03427  1.0000
  C   C1        1.0  0.34038000000000007  0.80063  0.9312199999999999  1.0000
  C   C2        1.0  0.3951899999999998  0.7612200000000005  0.9703299999999999  1.0000
  C   C3        1.0  0.4404299999999999  0.7034300000000001  0.9647  1.0000
  C   C4        1.0  0.48757000000000006  0.66617  0.0042499999999999994  1.0000
  C   C5        1.0  0.49103  0.6871000000000003  0.04796  1.0000
  C   C6        1.0  0.4476499999999999  0.74552  0.053029999999999994  1.0000
  C   C7        1.0  0.39942999999999995  0.78193  0.013749999999999997  1.0000
  C   C8        1.0  0.5309299999999999  0.6026400000000001  0.0022099999999999997  1.0000
  C   C9        1.0  0.4501099999999999  0.76798  0.09937  1.0000
  C   C10       1.0  0.38433  0.81034  0.12296999999999998  1.0000
  C   C11       1.0  0.52085  0.7679300000000001  0.16451  1.0000
  C   C12       1.0  0.51906  0.74685  0.12122  1.0000
  C   C13       1.0  0.14286000000000013  0.80324  0.9285799999999997  1.0000
  C   C14       1.0  0.07998999999999999  0.76995  0.9618  1.0000
  C   C15       1.0  0.008239999999999957  0.7965800000000001  0.99878  1.0000
  C   C16       1.0  0.9470600000000001  0.76756  0.03111999999999999  1.0000
  C   C17       1.0  0.96004  0.71006  0.02651  1.0000
  C   C18       1.0  0.03182999999999994  0.6830400000000001  0.98958  1.0000
  C   C19       1.0  0.09155000000000002  0.7132300000000003  0.9562899999999999  1.0000
  C   C20       1.0  0.04723999999999989  0.6202300000000002  0.98821  1.0000
  C   C21       1.0  0.8722199999999999  0.7975600000000003  0.06967  1.0000
  C   C22       1.0  0.79603  0.79331  0.07436  1.0000
  C   C23       1.0  0.7263199999999997  0.8233500000000006  0.10867  1.0000
  C   C24       1.0  0.87533  0.8317100000000002  0.10131999999999997  1.0000
  C   C25       1.0  0.99168  0.5223300000000001  0.9374099999999997  1.0000
  C   C26       1.0  0.9357300000000002  0.52727  0.9049399999999997  1.0000
  C   C27       1.0  0.9563600000000001  0.54438  0.8418499999999999  1.0000
  C   C28       1.0  0.9040500000000002  0.54783  0.8116699999999998  1.0000
  C   C29       1.0  0.8313100000000001  0.5334100000000003  0.8455599999999998  1.0000
  C   C30       1.0  0.8098100000000001  0.51782  0.9085  1.0000
  C   C31       1.0  0.8621100000000002  0.5145500000000001  0.9383299999999998  1.0000
  C   C32       1.0  0.72956  0.50746  0.9436899999999999  1.0000
  C   C33       1.0  0.92001  0.5706  0.74532  1.0000
  C   C34       1.0  0.93094  0.6276500000000003  0.71646  1.0000
  C   C35       1.0  0.92119  0.56157  0.65095  1.0000
  C   C36       1.0  0.9162400000000002  0.5372  0.71148  1.0000
  C   C37       1.0  0.07215999999999999  0.19902000000000003  0.06867  1.0000
  C   C38       1.0  0.12655999999999998  0.23856000000000005  0.029849999999999998  1.0000
  C   C39       1.0  0.10817999999999994  0.29636000000000007  0.03557  1.0000
  C   C40       1.0  0.15743000000000001  0.3337700000000001  0.9960999999999999  1.0000
  C   C41       1.0  0.22551000000000004  0.31301000000000007  0.95232  1.0000
  C   C42       1.0  0.24580999999999997  0.25456000000000006  0.9472099999999999  1.0000
  C   C43       1.0  0.19492  0.21798000000000003  0.98645  1.0000
  C   C44       1.0  0.1349200000000001  0.39733000000000007  0.9981599999999999  1.0000
  C   C45       1.0  0.31705  0.23218000000000005  0.9008899999999999  1.0000
  C   C46       1.0  0.31740999999999997  0.18976999999999997  0.87718  1.0000
  C   C47       1.0  0.4528100000000001  0.23241000000000012  0.8359299999999997  1.0000
  C   C48       1.0  0.3866000000000001  0.2534100000000001  0.8791599999999998  1.0000
  C   C49       1.0  0.87406  0.19703  0.07164999999999999  1.0000
  C   C50       1.0  0.8113099999999999  0.23020000000000004  0.03832  1.0000
  C   C51       1.0  0.8033300000000001  0.20353  0.00125  1.0000
  C   C52       1.0  0.74554  0.2324500000000001  0.96886  1.0000
  C   C53       1.0  0.6964800000000001  0.28995000000000004  0.9734499999999998  1.0000
  C   C54       1.0  0.70439  0.31706  0.01034  1.0000
  C   C55       1.0  0.7607500000000001  0.28689000000000003  0.0438  1.0000
  C   C56       1.0  0.65616  0.37994  0.011549999999999998  1.0000
  C   C57       1.0  0.7394100000000002  0.20242000000000002  0.9302099999999999  1.0000
  C   C58       1.0  0.66377  0.20657000000000011  0.9253999999999998  1.0000
  C   C59       1.0  0.65853  0.17647000000000002  0.8910399999999999  1.0000
  C   C60       1.0  0.8083300000000001  0.16830000000000003  0.8986499999999997  1.0000
  C   C61       1.0  0.45222000000000007  0.4773300000000001  0.06294999999999999  1.0000
  C   C62       1.0  0.3685  0.47272  0.09499999999999999  1.0000
  C   C63       1.0  0.34295  0.4555600000000001  0.15807999999999997  1.0000
  C   C64       1.0  0.26387999999999995  0.4522100000000001  0.1881  1.0000
  C   C65       1.0  0.21068000000000003  0.46685  0.15402  1.0000
  C   C66       1.0  0.23660999999999996  0.48247000000000007  0.09104  1.0000
  C   C67       1.0  0.31558  0.48561000000000004  0.061409999999999985  1.0000
  C   C68       1.0  0.18106  0.4928800000000001  0.055749999999999994  1.0000
  C   C69       1.0  0.23626  0.4293600000000001  0.25449  1.0000
  C   C70       1.0  0.27540999999999993  0.37236  0.28345  1.0000
  C   C71       1.0  0.13409000000000007  0.4382900000000001  0.3488799999999999  1.0000
  C   C72       1.0  0.16527000000000003  0.46269  0.28835  1.0000
  C   C73       1.0  0.07216000000000006  0.06867000000000002  0.19901999999999995  1.0000
  C   C74       1.0  0.12655  0.029850000000000012  0.23856999999999998  1.0000
  C   C75       1.0  0.10818000000000004  0.035580000000000014  0.29635999999999996  1.0000
  C   C76       1.0  0.1574299999999999  0.9961000000000001  0.33377  1.0000
  C   C77       1.0  0.22551000000000004  0.9523200000000003  0.31301  1.0000
  C   C78       1.0  0.2458099999999999  0.9472100000000002  0.25456  1.0000
  C   C79       1.0  0.19491999999999998  0.98645  0.21798  1.0000
  C   C80       1.0  0.13492000000000018  0.99816  0.3973299999999999  1.0000
  C   C81       1.0  0.31705000000000005  0.90089  0.23218  1.0000
  C   C82       1.0  0.31740999999999997  0.8771800000000002  0.18976999999999994  1.0000
  C   C83       1.0  0.4528099999999998  0.8359200000000002  0.23241  1.0000
  C   C84       1.0  0.3866000000000001  0.87916  0.25341  1.0000
  C   C85       1.0  0.87406  0.07165000000000003  0.19703  1.0000
  C   C86       1.0  0.8113100000000001  0.03832000000000001  0.23019999999999996  1.0000
  C   C87       1.0  0.80333  0.001249999999999998  0.20353  1.0000
  C   C88       1.0  0.7455399999999998  0.9688600000000005  0.23245  1.0000
  C   C89       1.0  0.69648  0.9734500000000003  0.28994999999999993  1.0000
  C   C90       1.0  0.70439  0.010339999999999992  0.31706  1.0000
  C   C91       1.0  0.7607500000000001  0.04380000000000003  0.28689  1.0000
  C   C92       1.0  0.6561600000000001  0.011550000000000029  0.3799399999999999  1.0000
  C   C93       1.0  0.7394099999999999  0.9302100000000001  0.20242  1.0000
  C   C94       1.0  0.6637799999999997  0.9254000000000004  0.20657  1.0000
  C   C95       1.0  0.65853  0.8910400000000003  0.17647  1.0000
  C   C96       1.0  0.80833  0.8986500000000001  0.16829999999999998  1.0000
  C   C97       1.0  0.45222000000000007  0.06295000000000003  0.47732999999999987  1.0000
  C   C98       1.0  0.36849  0.09500000000000001  0.47272  1.0000
  C   C99       1.0  0.3429399999999999  0.15808000000000005  0.45556  1.0000
  C   C100      1.0  0.26388  0.18810000000000004  0.4522199999999999  1.0000
  C   C101      1.0  0.21067999999999998  0.15402000000000007  0.46684999999999993  1.0000
  C   C102      1.0  0.23661  0.09104000000000002  0.48247999999999996  1.0000
  C   C103      1.0  0.31558  0.06141000000000002  0.48561  1.0000
  C   C104      1.0  0.18106000000000003  0.055750000000000015  0.49287999999999993  1.0000
  C   C105      1.0  0.23626000000000005  0.25448999999999994  0.42936  1.0000
  C   C106      1.0  0.2754100000000001  0.28345000000000004  0.3723599999999999  1.0000
  C   C107      1.0  0.13408999999999988  0.34888000000000013  0.43829  1.0000
  C   C108      1.0  0.16526999999999994  0.28835000000000005  0.46269  1.0000
  C   C109      1.0  0.34038  0.9312200000000003  0.80063  1.0000
  C   C110      1.0  0.3951900000000001  0.9703300000000001  0.76122  1.0000
  C   C111      1.0  0.4404299999999997  0.9647000000000004  0.7034299999999999  1.0000
  C   C112      1.0  0.48757000000000006  0.004250000000000032  0.66617  1.0000
  C   C113      1.0  0.49103000000000024  0.047960000000000044  0.6870999999999999  1.0000
  C   C114      1.0  0.44765  0.05303000000000003  0.74552  1.0000
  C   C115      1.0  0.39943000000000006  0.01374999999999998  0.78193  1.0000
  C   C116      1.0  0.5309299999999999  0.0022099999999999984  0.60264  1.0000
  C   C117      1.0  0.4501100000000001  0.09937  0.76798  1.0000
  C   C118      1.0  0.3843300000000001  0.12297000000000002  0.8103399999999998  1.0000
  C   C119      1.0  0.52085  0.16451  0.7679299999999999  1.0000
  C   C120      1.0  0.51906  0.12122000000000002  0.7468499999999999  1.0000
  C   C121      1.0  0.14286  0.9285800000000002  0.8032399999999998  1.0000
  C   C122      1.0  0.07998999999999999  0.96179  0.76995  1.0000
  C   C123      1.0  0.0082400000000001  0.9987800000000001  0.7965799999999997  1.0000
  C   C124      1.0  0.9470600000000001  0.031130000000000036  0.7675599999999999  1.0000
  C   C125      1.0  0.96004  0.02651999999999998  0.71006  1.0000
  C   C126      1.0  0.031829999999999845  0.9895700000000002  0.68304  1.0000
  C   C127      1.0  0.09155000000000016  0.95629  0.7132299999999999  1.0000
  C   C128      1.0  0.04723999999999989  0.9882100000000001  0.62023  1.0000
  C   C129      1.0  0.87222  0.06967000000000005  0.7975599999999998  1.0000
  C   C130      1.0  0.79603  0.07436000000000006  0.7933099999999997  1.0000
  C   C131      1.0  0.7263200000000001  0.10867  0.82335  1.0000
  C   C132      1.0  0.87533  0.10132000000000004  0.8317199999999999  1.0000
  C   C133      1.0  0.9916800000000002  0.9374000000000002  0.52233  1.0000
  C   C134      1.0  0.93573  0.9049400000000001  0.52727  1.0000
  C   C135      1.0  0.9563600000000001  0.8418500000000002  0.54438  1.0000
  C   C136      1.0  0.9040500000000002  0.8116600000000003  0.5478299999999999  1.0000
  C   C137      1.0  0.83131  0.8455600000000002  0.53341  1.0000
  C   C138      1.0  0.8098099999999999  0.9085  0.51782  1.0000
  C   C139      1.0  0.8621100000000002  0.93833  0.5145499999999998  1.0000
  C   C140      1.0  0.7295600000000001  0.94369  0.5074599999999999  1.0000
  C   C141      1.0  0.9200099999999998  0.74532  0.5706  1.0000
  C   C142      1.0  0.9309399999999998  0.7164600000000002  0.62765  1.0000
  C   C143      1.0  0.92119  0.65095  0.56158  1.0000
  C   C144      1.0  0.9162399999999998  0.7114800000000003  0.5371999999999999  1.0000
  C   C145      1.0  0.93229  0.65499  0.65499  1.0000
  C   C146      1.0  0.9265099999999997  0.6215600000000002  0.62156  1.0000
  C   C147      1.0  0.1894599999999999  0.98131  0.98131  1.0000
  C   C148      1.0  0.06684000000000001  0.98096  0.98096  1.0000
  C   C149      1.0  0.24266000000000001  0.34495000000000003  0.3449499999999999  1.0000
  C   C150      1.0  0.16999000000000006  0.37833  0.37832999999999994  1.0000
  C   C151      1.0  0.15128  0.019140000000000004  0.01914  1.0000
  C   C152      1.0  0.02866  0.018790000000000008  0.01879  1.0000
  C   C153      1.0  0.38478000000000007  0.8335000000000002  0.16669999999999996  1.0000
  C   C154      1.0  0.45432999999999996  0.8119800000000003  0.18833999999999998  1.0000
  C   C155      1.0  0.7284699999999998  0.859  0.14081999999999997  1.0000
  C   C156      1.0  0.8049299999999998  0.8630200000000002  0.13692  1.0000
  C   C157      1.0  0.38478  0.16670000000000001  0.8335  1.0000
  C   C158      1.0  0.45432999999999996  0.18834000000000004  0.81198  1.0000
  C   C159      1.0  0.72847  0.14082  0.859  1.0000
  C   C160      1.0  0.80493  0.13692  0.8630199999999999  1.0000
  N   N1        1.0  0.1472500000000001  0.9621900000000001  0.9621899999999998  1.0000
  N   N2        1.0  0.07085  0.0379  0.0379  1.0000
  O   O1        1.0  0.5630699999999998  0.56852  0.04516999999999999  1.0000
  O   O2        1.0  0.5314400000000002  0.5868900000000001  0.95874  1.0000
  O   O3        1.0  0.2882100000000001  0.8466000000000002  0.9472799999999998  1.0000
  O   O4        1.0  0.34925000000000006  0.7849100000000001  0.8853599999999999  1.0000
  O   O5        1.0  0.13493999999999998  0.8475600000000002  0.9464999999999999  1.0000
  O   O6        1.0  0.1988600000000001  0.7853599999999998  0.88507  1.0000
  O   O7        1.0  0.0049100000000000315  0.5877  0.03187  1.0000
  O   O8        1.0  0.10317000000000015  0.60353  0.9439199999999998  1.0000
  O   O9        1.0  0.061520000000000095  0.5287600000000002  0.9060799999999998  1.0000
  O   O10       1.0  0.9648600000000003  0.51146  0.9948099999999999  1.0000
  O   O11       1.0  0.68338  0.51306  0.9135499999999998  1.0000
  O   O12       1.0  0.7127800000000001  0.4945200000000001  0.0009999999999999998  1.0000
  O   O13       1.0  0.1751399999999999  0.43165000000000014  0.95479  1.0000
  O   O14       1.0  0.07675  0.41295  0.04192  1.0000
  O   O15       1.0  0.08304999999999997  0.15270000000000003  0.05276999999999999  1.0000
  O   O16       1.0  0.018520000000000005  0.21500000000000002  0.11406999999999998  1.0000
  O   O17       1.0  0.9285299999999999  0.15279000000000004  0.05380999999999998  1.0000
  O   O18       1.0  0.8683399999999999  0.21496000000000012  0.11524999999999998  1.0000
  O   O19       1.0  0.6252300000000002  0.4125000000000001  0.9677799999999998  1.0000
  O   O20       1.0  0.65134  0.39665000000000006  0.055799999999999995  1.0000
  O   O21       1.0  0.49698000000000003  0.47106  0.09441999999999999  1.0000
  O   O22       1.0  0.47239000000000003  0.48771  0.00559  1.0000
  O   O23       1.0  0.11023000000000002  0.48759  0.08582  1.0000
  O   O24       1.0  0.20854  0.50551  0.99844  1.0000
  O   O25       1.0  0.17514000000000002  0.95479  0.4316499999999999  1.0000
  O   O26       1.0  0.07675000000000004  0.04192000000000004  0.4129499999999999  1.0000
  O   O27       1.0  0.08304999999999998  0.05277  0.1527  1.0000
  O   O28       1.0  0.018520000000000005  0.11407000000000005  0.21499999999999994  1.0000
  O   O29       1.0  0.92853  0.05381000000000002  0.15278999999999998  1.0000
  O   O30       1.0  0.8683400000000001  0.11525000000000002  0.21495999999999996  1.0000
  O   O31       1.0  0.6252300000000001  0.96778  0.4124999999999999  1.0000
  O   O32       1.0  0.65134  0.05580000000000002  0.39664999999999995  1.0000
  O   O33       1.0  0.49698000000000003  0.09442000000000003  0.4710599999999999  1.0000
  O   O34       1.0  0.47239000000000003  0.005590000000000017  0.48771  1.0000
  O   O35       1.0  0.11023000000000006  0.08582000000000002  0.4875899999999999  1.0000
  O   O36       1.0  0.20853999999999995  0.99844  0.50551  1.0000
  O   O37       1.0  0.5630599999999999  0.045170000000000016  0.56852  1.0000
  O   O38       1.0  0.5314400000000001  0.9587400000000003  0.5868899999999999  1.0000
  O   O39       1.0  0.2882100000000001  0.9472800000000002  0.8465999999999999  1.0000
  O   O40       1.0  0.34924999999999995  0.8853500000000002  0.7849099999999998  1.0000
  O   O41       1.0  0.13493999999999998  0.9465000000000002  0.8475599999999999  1.0000
  O   O42       1.0  0.19887  0.8850700000000002  0.78536  1.0000
  O   O43       1.0  0.004909999999999996  0.03187000000000001  0.5877  1.0000
  O   O44       1.0  0.10316999999999978  0.9439200000000002  0.60353  1.0000
  O   O45       1.0  0.061520000000000054  0.9060800000000001  0.5287599999999999  1.0000
  O   O46       1.0  0.96486  0.9948100000000001  0.51146  1.0000
  O   O47       1.0  0.6833799999999999  0.9135500000000002  0.51306  1.0000
  O   O48       1.0  0.7127800000000001  0.0010000000000000178  0.4945199999999999  1.0000
