data_image0
_chemical_formula_structural       Cu12H186C138Br2N60
_chemical_formula_sum              "Cu12 H186 C138 Br2 N60"
_cell_length_a       17.42164
_cell_length_b       17.74253
_cell_length_c       17.73778
_cell_angle_alpha    120.04013999999998
_cell_angle_beta     90.0
_cell_angle_gamma    90.0

_symmetry_space_group_name_H-M    'P 1'
_symmetry_Int_Tables_number       1

loop_
  _symmetry_equiv_pos_as_xyz
  'x,y,z'

loop_
  _atom_site_type_symbol
  _atom_site_label
  _atom_site_symmetry_multiplicity
  _atom_site_fract_x
  _atom_site_fract_y
  _atom_site_fract_z
  _atom_site_occupancy
  Cu  Cu1       1.0  0.25  0.31746  0.018280000000000008  1.0000
  Cu  Cu2       1.0  0.25  0.4655  0.84521  1.0000
  Cu  Cu3       1.0  0.25  0.7004200000000004  0.6821600000000002  1.0000
  Cu  Cu4       1.0  0.25  0.37944000000000017  0.53469  1.0000
  Cu  Cu5       1.0  0.25  0.9810800000000001  0.29816  1.0000
  Cu  Cu6       1.0  0.25  0.15541000000000016  0.6184900000000002  1.0000
  Cu  Cu7       1.0  0.7500000000000002  0.68253  0.98171  1.0000
  Cu  Cu8       1.0  0.7500000000000002  0.5345000000000001  0.15478  1.0000
  Cu  Cu9       1.0  0.7500000000000002  0.29958  0.3178400000000001  1.0000
  Cu  Cu10      1.0  0.7500000000000002  0.6205600000000001  0.4653200000000001  1.0000
  Cu  Cu11      1.0  0.7500000000000002  0.018949999999999995  0.70191  1.0000
  Cu  Cu12      1.0  0.7500000000000002  0.84458  0.38158  1.0000
  H   H1        1.0  0.3208  0.47537000000000007  0.69451  1.0000
  H   H2        1.0  0.65798  0.77751  0.91696  1.0000
  H   H3        1.0  0.51628  0.83609  0.89499  1.0000
  H   H4        1.0  0.44441  0.7540100000000002  0.84447  1.0000
  H   H5        1.0  0.5203  0.7603800000000001  0.7816300000000003  1.0000
  H   H6        1.0  0.4230200000000001  0.49399000000000004  0.60563  1.0000
  H   H7        1.0  0.51443  0.53258  0.65613  1.0000
  H   H8        1.0  0.44185  0.6074600000000002  0.66593  1.0000
  H   H9        1.0  0.35401  0.55976  0.98291  1.0000
  H   H10       1.0  0.40971  0.65472  0.01155  1.0000
  H   H11       1.0  0.45619  0.5547900000000002  0.98041  1.0000
  H   H12       1.0  0.61756  0.5280600000000001  0.9486800000000002  1.0000
  H   H13       1.0  0.65751  0.4803  0.84331  1.0000
  H   H14       1.0  0.55643  0.4743200000000003  0.8553200000000002  1.0000
  H   H15       1.0  0.3004100000000001  0.01305000000000007  0.8123500000000001  1.0000
  H   H16       1.0  0.32087  0.2189900000000001  0.5242200000000001  1.0000
  H   H17       1.0  0.6572000000000002  0.13945000000000002  0.22166000000000005  1.0000
  H   H18       1.0  0.51573  0.05871000000000003  0.16393000000000002  1.0000
  H   H19       1.0  0.44414  0.09074000000000004  0.24638000000000004  1.0000
  H   H20       1.0  0.52013  0.021680000000000022  0.24003  1.0000
  H   H21       1.0  0.42401000000000005  0.11265999999999995  0.50686  1.0000
  H   H22       1.0  0.5148  0.12328999999999994  0.46631  1.0000
  H   H23       1.0  0.44116  0.05838000000000002  0.39299  1.0000
  H   H24       1.0  0.35474  0.4240000000000001  0.441  1.0000
  H   H25       1.0  0.40954  0.35705  0.34543  1.0000
  H   H26       1.0  0.45697  0.42517  0.44497  1.0000
  H   H27       1.0  0.61931  0.42048  0.47231  1.0000
  H   H28       1.0  0.6581300000000001  0.3621600000000001  0.51978  1.0000
  H   H29       1.0  0.5572900000000002  0.3815799999999999  0.52595  1.0000
  H   H30       1.0  0.30047  0.78962  0.98432  1.0000
  H   H31       1.0  0.32129000000000013  0.3059799999999999  0.77882  1.0000
  H   H32       1.0  0.65644  0.08341000000000003  0.86123  1.0000
  H   H33       1.0  0.5142500000000001  0.10538999999999991  0.94049  1.0000
  H   H34       1.0  0.44286  0.15551000000000012  0.90795  1.0000
  H   H35       1.0  0.51813  0.21869000000000008  0.97813  1.0000
  H   H36       1.0  0.42274000000000006  0.39463000000000004  0.8875400000000001  1.0000
  H   H37       1.0  0.51427  0.3443400000000001  0.87543  1.0000
  H   H38       1.0  0.44187  0.33434  0.94058  1.0000
  H   H39       1.0  0.35451  0.017140000000000093  0.5751300000000003  1.0000
  H   H40       1.0  0.40878  0.9886400000000001  0.6424500000000002  1.0000
  H   H41       1.0  0.45677  0.01973000000000005  0.5744100000000001  1.0000
  H   H42       1.0  0.61982  0.051940000000000014  0.57985  1.0000
  H   H43       1.0  0.65804  0.15813000000000005  0.63805  1.0000
  H   H44       1.0  0.55732  0.14401999999999998  0.61802  1.0000
  H   H45       1.0  0.30042  0.19153000000000006  0.20734  1.0000
  H   H46       1.0  0.82079  0.52463  0.30549  1.0000
  H   H47       1.0  0.15798  0.22249  0.08304000000000003  1.0000
  H   H48       1.0  0.01628  0.16391000000000003  0.10502000000000003  1.0000
  H   H49       1.0  0.9444100000000001  0.24599  0.15554  1.0000
  H   H50       1.0  0.0203  0.23963  0.21837000000000004  1.0000
  H   H51       1.0  0.9230200000000001  0.5060100000000001  0.39438  1.0000
  H   H52       1.0  0.014430000000000002  0.46742  0.34387  1.0000
  H   H53       1.0  0.94184  0.39254000000000017  0.3340800000000001  1.0000
  H   H54       1.0  0.85401  0.44024  0.017090000000000008  1.0000
  H   H55       1.0  0.9097100000000002  0.34528000000000014  0.9884500000000003  1.0000
  H   H56       1.0  0.9561900000000001  0.44522  0.0196  1.0000
  H   H57       1.0  0.11756  0.47194  0.05132  1.0000
  H   H58       1.0  0.15751  0.5197  0.15669000000000005  1.0000
  H   H59       1.0  0.05643  0.52568  0.14468  1.0000
  H   H60       1.0  0.8004100000000002  0.9869500000000001  0.18766000000000005  1.0000
  H   H61       1.0  0.82087  0.7810200000000002  0.47580000000000006  1.0000
  H   H62       1.0  0.1572  0.86055  0.77834  1.0000
  H   H63       1.0  0.01572  0.94129  0.83607  1.0000
  H   H64       1.0  0.94414  0.90925  0.75362  1.0000
  H   H65       1.0  0.02013  0.9783200000000001  0.75997  1.0000
  H   H66       1.0  0.9240100000000001  0.88734  0.4931500000000001  1.0000
  H   H67       1.0  0.014800000000000002  0.8767  0.5337  1.0000
  H   H68       1.0  0.94116  0.9416200000000001  0.60702  1.0000
  H   H69       1.0  0.85473  0.576  0.559  1.0000
  H   H70       1.0  0.9095400000000002  0.64295  0.65457  1.0000
  H   H71       1.0  0.95697  0.5748200000000002  0.55503  1.0000
  H   H72       1.0  0.11931000000000001  0.57952  0.52769  1.0000
  H   H73       1.0  0.15813  0.63784  0.4802300000000001  1.0000
  H   H74       1.0  0.05729  0.61842  0.47405000000000014  1.0000
  H   H75       1.0  0.8004700000000002  0.21039000000000002  0.01568  1.0000
  H   H76       1.0  0.82129  0.6940100000000002  0.22121  1.0000
  H   H77       1.0  0.15643  0.9166  0.13881  1.0000
  H   H78       1.0  0.01426  0.8946200000000002  0.05952000000000002  1.0000
  H   H79       1.0  0.9428500000000001  0.8445000000000003  0.09206  1.0000
  H   H80       1.0  0.01813  0.78132  0.02189  1.0000
  H   H81       1.0  0.9227400000000001  0.60538  0.11246  1.0000
  H   H82       1.0  0.01426  0.65568  0.12458  1.0000
  H   H83       1.0  0.9418499999999999  0.66568  0.05943  1.0000
  H   H84       1.0  0.85449  0.98285  0.42489  1.0000
  H   H85       1.0  0.9087600000000001  0.011350000000000054  0.3575800000000001  1.0000
  H   H86       1.0  0.95675  0.9802700000000001  0.42562  1.0000
  H   H87       1.0  0.11980000000000002  0.94806  0.42018  1.0000
  H   H88       1.0  0.15802  0.8418700000000002  0.36197  1.0000
  H   H89       1.0  0.0573  0.85598  0.38201  1.0000
  H   H90       1.0  0.8004200000000002  0.80846  0.79267  1.0000
  H   H91       1.0  0.6792100000000002  0.52463  0.30549  1.0000
  H   H92       1.0  0.34202  0.22249  0.08304000000000003  1.0000
  H   H93       1.0  0.48372000000000004  0.16391000000000003  0.10502000000000003  1.0000
  H   H94       1.0  0.5555800000000002  0.24599  0.15554  1.0000
  H   H95       1.0  0.4797  0.23963  0.21837000000000004  1.0000
  H   H96       1.0  0.57697  0.5060100000000001  0.39438  1.0000
  H   H97       1.0  0.48557  0.46742  0.34387  1.0000
  H   H98       1.0  0.55816  0.39254000000000017  0.3340800000000001  1.0000
  H   H99       1.0  0.6459900000000001  0.44024  0.017090000000000008  1.0000
  H   H100      1.0  0.5902800000000002  0.34528000000000014  0.9884500000000003  1.0000
  H   H101      1.0  0.54381  0.44522  0.0196  1.0000
  H   H102      1.0  0.38244000000000006  0.47194  0.05132  1.0000
  H   H103      1.0  0.34248  0.5197  0.15669000000000005  1.0000
  H   H104      1.0  0.44357000000000013  0.52568  0.14468  1.0000
  H   H105      1.0  0.69959  0.9869500000000001  0.18766000000000005  1.0000
  H   H106      1.0  0.67913  0.7810200000000002  0.47580000000000006  1.0000
  H   H107      1.0  0.3428  0.86055  0.77834  1.0000
  H   H108      1.0  0.48428  0.94129  0.83607  1.0000
  H   H109      1.0  0.55586  0.90925  0.75362  1.0000
  H   H110      1.0  0.4798700000000001  0.9783200000000001  0.75997  1.0000
  H   H111      1.0  0.5759900000000002  0.88734  0.4931500000000001  1.0000
  H   H112      1.0  0.4852000000000001  0.8767  0.5337  1.0000
  H   H113      1.0  0.5588300000000002  0.9416200000000001  0.60702  1.0000
  H   H114      1.0  0.64527  0.576  0.559  1.0000
  H   H115      1.0  0.5904500000000003  0.64295  0.65457  1.0000
  H   H116      1.0  0.54303  0.5748200000000002  0.55503  1.0000
  H   H117      1.0  0.38069  0.57952  0.52769  1.0000
  H   H118      1.0  0.3418700000000001  0.63784  0.4802300000000001  1.0000
  H   H119      1.0  0.44271000000000005  0.61842  0.47405000000000014  1.0000
  H   H120      1.0  0.69953  0.21039000000000002  0.01568  1.0000
  H   H121      1.0  0.6787100000000001  0.6940100000000002  0.22121  1.0000
  H   H122      1.0  0.34357  0.9166  0.13881  1.0000
  H   H123      1.0  0.48574  0.8946200000000002  0.05952000000000002  1.0000
  H   H124      1.0  0.55714  0.8445000000000003  0.09206  1.0000
  H   H125      1.0  0.4818700000000001  0.78132  0.02189  1.0000
  H   H126      1.0  0.5772600000000002  0.60538  0.11246  1.0000
  H   H127      1.0  0.48574  0.65568  0.12458  1.0000
  H   H128      1.0  0.55815  0.66568  0.05943  1.0000
  H   H129      1.0  0.6455100000000003  0.98285  0.42489  1.0000
  H   H130      1.0  0.59124  0.011350000000000054  0.3575800000000001  1.0000
  H   H131      1.0  0.54325  0.9802700000000001  0.42562  1.0000
  H   H132      1.0  0.3802  0.94806  0.42018  1.0000
  H   H133      1.0  0.3419800000000001  0.8418700000000002  0.36197  1.0000
  H   H134      1.0  0.4427  0.85598  0.38201  1.0000
  H   H135      1.0  0.69958  0.80846  0.79267  1.0000
  H   H136      1.0  0.1792  0.47537000000000007  0.69451  1.0000
  H   H137      1.0  0.8420200000000002  0.77751  0.91696  1.0000
  H   H138      1.0  0.98372  0.83609  0.89499  1.0000
  H   H139      1.0  0.05559  0.7540100000000002  0.84447  1.0000
  H   H140      1.0  0.9797  0.7603800000000001  0.7816300000000003  1.0000
  H   H141      1.0  0.07697000000000001  0.49399000000000004  0.60563  1.0000
  H   H142      1.0  0.98557  0.53258  0.65613  1.0000
  H   H143      1.0  0.05815  0.6074600000000002  0.66593  1.0000
  H   H144      1.0  0.14599  0.55976  0.98291  1.0000
  H   H145      1.0  0.09029  0.65472  0.01155  1.0000
  H   H146      1.0  0.04381  0.5547900000000002  0.98041  1.0000
  H   H147      1.0  0.88244  0.5280600000000001  0.9486800000000002  1.0000
  H   H148      1.0  0.84249  0.4803  0.84331  1.0000
  H   H149      1.0  0.94357  0.4743200000000003  0.8553200000000002  1.0000
  H   H150      1.0  0.19959  0.01305000000000007  0.8123500000000001  1.0000
  H   H151      1.0  0.17913  0.2189900000000001  0.5242200000000001  1.0000
  H   H152      1.0  0.8428  0.13945000000000002  0.22166000000000005  1.0000
  H   H153      1.0  0.9842700000000001  0.05871000000000003  0.16393000000000002  1.0000
  H   H154      1.0  0.055860000000000014  0.09074000000000004  0.24638000000000004  1.0000
  H   H155      1.0  0.9798600000000001  0.021680000000000022  0.24003  1.0000
  H   H156      1.0  0.07599  0.11265999999999995  0.50686  1.0000
  H   H157      1.0  0.9852000000000001  0.12328999999999994  0.46631  1.0000
  H   H158      1.0  0.05883000000000001  0.05838000000000002  0.39299  1.0000
  H   H159      1.0  0.14526  0.4240000000000001  0.441  1.0000
  H   H160      1.0  0.09046000000000003  0.35705  0.34543  1.0000
  H   H161      1.0  0.04303000000000001  0.42517  0.44497  1.0000
  H   H162      1.0  0.8806900000000002  0.42048  0.47231  1.0000
  H   H163      1.0  0.84187  0.3621600000000001  0.51978  1.0000
  H   H164      1.0  0.9427100000000002  0.3815799999999999  0.52595  1.0000
  H   H165      1.0  0.19953  0.78962  0.98432  1.0000
  H   H166      1.0  0.17871  0.3059799999999999  0.77882  1.0000
  H   H167      1.0  0.8435600000000002  0.08341000000000003  0.86123  1.0000
  H   H168      1.0  0.9857500000000001  0.10538999999999991  0.94049  1.0000
  H   H169      1.0  0.05714000000000002  0.15551000000000012  0.90795  1.0000
  H   H170      1.0  0.98187  0.21869000000000008  0.97813  1.0000
  H   H171      1.0  0.07726000000000002  0.39463000000000004  0.8875400000000001  1.0000
  H   H172      1.0  0.98573  0.3443400000000001  0.87543  1.0000
  H   H173      1.0  0.05813000000000001  0.33434  0.94058  1.0000
  H   H174      1.0  0.14549  0.017140000000000093  0.5751300000000003  1.0000
  H   H175      1.0  0.09122  0.9886400000000001  0.6424500000000002  1.0000
  H   H176      1.0  0.04323000000000001  0.01973000000000005  0.5744100000000001  1.0000
  H   H177      1.0  0.8801800000000001  0.051940000000000014  0.57985  1.0000
  H   H178      1.0  0.8419600000000003  0.15813000000000005  0.63805  1.0000
  H   H179      1.0  0.94268  0.14401999999999998  0.61802  1.0000
  H   H180      1.0  0.19958000000000006  0.19153000000000006  0.20734  1.0000
  H   H181      1.0  0.25  0.9930700000000001  0.8893700000000002  1.0000
  H   H182      1.0  0.25  0.8882600000000003  0.00957  1.0000
  H   H183      1.0  0.25  0.11841000000000002  0.10856000000000003  1.0000
  H   H184      1.0  0.7500000000000002  0.0069400000000000035  0.11064  1.0000
  H   H185      1.0  0.7500000000000002  0.11175000000000009  0.99043  1.0000
  H   H186      1.0  0.7500000000000002  0.8815700000000003  0.8914500000000002  1.0000
  C   C1        1.0  0.53034  0.62734  0.85563  1.0000
  C   C2        1.0  0.55103  0.70732  0.86367  1.0000
  C   C3        1.0  0.5060300000000001  0.7677700000000002  0.84544  1.0000
  C   C4        1.0  0.59632  0.5988000000000003  0.8816300000000002  1.0000
  C   C5        1.0  0.4566500000000001  0.58227  0.82651  1.0000
  C   C6        1.0  0.4245400000000001  0.54716  0.74326  1.0000
  C   C7        1.0  0.40366000000000013  0.56199  0.87465  1.0000
  C   C8        1.0  0.45249  0.5450800000000002  0.66326  1.0000
  C   C9        1.0  0.40612  0.58404  0.96733  1.0000
  C   C10       1.0  0.60726  0.51583  0.88239  1.0000
  C   C11       1.0  0.53051  0.22852  0.37273  1.0000
  C   C12       1.0  0.55082  0.15666000000000005  0.29246  1.0000
  C   C13       1.0  0.50572  0.07789000000000003  0.23238  1.0000
  C   C14       1.0  0.5966  0.28294000000000014  0.40112  1.0000
  C   C15       1.0  0.45686000000000004  0.24444  0.41784  1.0000
  C   C16       1.0  0.42476000000000014  0.19620000000000007  0.4527600000000001  1.0000
  C   C17       1.0  0.40376  0.31278  0.43806  1.0000
  C   C18       1.0  0.45272  0.11834999999999997  0.45492  1.0000
  C   C19       1.0  0.4064400000000001  0.38347  0.41616  1.0000
  C   C20       1.0  0.60814  0.3664600000000002  0.4843300000000001  1.0000
  C   C21       1.0  0.53007  0.14470000000000002  0.77126  1.0000
  C   C22       1.0  0.55005  0.13654000000000002  0.84331  1.0000
  C   C23       1.0  0.50433  0.15479000000000015  0.9215400000000002  1.0000
  C   C24       1.0  0.59643  0.1187600000000001  0.7172500000000003  1.0000
  C   C25       1.0  0.45649  0.17374  0.75492  1.0000
  C   C26       1.0  0.42447  0.25704  0.80288  1.0000
  C   C27       1.0  0.4034600000000001  0.12554000000000018  0.6864500000000002  1.0000
  C   C28       1.0  0.4523700000000001  0.33707  0.88087  1.0000
  C   C29       1.0  0.40606  0.03280999999999999  0.6159  1.0000
  C   C30       1.0  0.60825  0.11808  0.63362  1.0000
  C   C31       1.0  0.030340000000000002  0.3726600000000001  0.14437000000000005  1.0000
  C   C32       1.0  0.05103  0.29268  0.13633000000000006  1.0000
  C   C33       1.0  0.00604  0.23224  0.15456  1.0000
  C   C34       1.0  0.09632  0.4012  0.11838  1.0000
  C   C35       1.0  0.9566500000000001  0.41773000000000005  0.17349  1.0000
  C   C36       1.0  0.92454  0.45284  0.25674  1.0000
  C   C37       1.0  0.90366  0.43801  0.12535  1.0000
  C   C38       1.0  0.95249  0.45492  0.3367500000000001  1.0000
  C   C39       1.0  0.9061200000000003  0.41597000000000006  0.03268  1.0000
  C   C40       1.0  0.10727  0.48417  0.11762  1.0000
  C   C41       1.0  0.030520000000000002  0.77148  0.62727  1.0000
  C   C42       1.0  0.05083  0.8433400000000003  0.7075400000000002  1.0000
  C   C43       1.0  0.00572  0.9221100000000002  0.7676300000000003  1.0000
  C   C44       1.0  0.0966  0.7170600000000001  0.5988900000000001  1.0000
  C   C45       1.0  0.95686  0.75556  0.58217  1.0000
  C   C46       1.0  0.9247600000000001  0.8037999999999998  0.54724  1.0000
  C   C47       1.0  0.90376  0.68722  0.56195  1.0000
  C   C48       1.0  0.9527200000000001  0.88165  0.54509  1.0000
  C   C49       1.0  0.9064400000000001  0.61652  0.58384  1.0000
  C   C50       1.0  0.10814000000000001  0.6335400000000002  0.51567  1.0000
  C   C51       1.0  0.03005  0.85531  0.22876  1.0000
  C   C52       1.0  0.050040000000000015  0.86348  0.15672000000000003  1.0000
  C   C53       1.0  0.00433  0.8452200000000002  0.07848  1.0000
  C   C54       1.0  0.09642  0.88125  0.2827800000000001  1.0000
  C   C55       1.0  0.95647  0.8262600000000002  0.2451  1.0000
  C   C56       1.0  0.9244500000000001  0.7429600000000001  0.19715000000000005  1.0000
  C   C57       1.0  0.90345  0.8744500000000002  0.31358  1.0000
  C   C58       1.0  0.95236  0.6629400000000002  0.11914  1.0000
  C   C59       1.0  0.90604  0.96719  0.38413  1.0000
  C   C60       1.0  0.10823000000000002  0.8819200000000001  0.36641  1.0000
  C   C61       1.0  0.46966  0.3726600000000001  0.14437000000000005  1.0000
  C   C62       1.0  0.44897  0.29268  0.13633000000000006  1.0000
  C   C63       1.0  0.49396  0.23224  0.15456  1.0000
  C   C64       1.0  0.40368000000000004  0.4012  0.11838  1.0000
  C   C65       1.0  0.54335  0.41773000000000005  0.17349  1.0000
  C   C66       1.0  0.57546  0.45284  0.25674  1.0000
  C   C67       1.0  0.5963400000000001  0.43801  0.12535  1.0000
  C   C68       1.0  0.54751  0.45492  0.3367500000000001  1.0000
  C   C69       1.0  0.59388  0.41597000000000006  0.03268  1.0000
  C   C70       1.0  0.3927300000000001  0.48417  0.11762  1.0000
  C   C71       1.0  0.46948  0.77148  0.62727  1.0000
  C   C72       1.0  0.4491700000000001  0.8433400000000003  0.7075400000000002  1.0000
  C   C73       1.0  0.49428  0.9221100000000002  0.7676300000000003  1.0000
  C   C74       1.0  0.4034  0.7170600000000001  0.5988900000000001  1.0000
  C   C75       1.0  0.54313  0.75556  0.58217  1.0000
  C   C76       1.0  0.57524  0.8037999999999998  0.54724  1.0000
  C   C77       1.0  0.59623  0.68722  0.56195  1.0000
  C   C78       1.0  0.54728  0.88165  0.54509  1.0000
  C   C79       1.0  0.59355  0.61652  0.58384  1.0000
  C   C80       1.0  0.39186  0.6335400000000002  0.51567  1.0000
  C   C81       1.0  0.46995000000000003  0.85531  0.22876  1.0000
  C   C82       1.0  0.44996  0.86348  0.15672000000000003  1.0000
  C   C83       1.0  0.49567  0.8452200000000002  0.07848  1.0000
  C   C84       1.0  0.40358  0.88125  0.2827800000000001  1.0000
  C   C85       1.0  0.54353  0.8262600000000002  0.2451  1.0000
  C   C86       1.0  0.5755500000000002  0.7429600000000001  0.19715000000000005  1.0000
  C   C87       1.0  0.59655  0.8744500000000002  0.31358  1.0000
  C   C88       1.0  0.54764  0.6629400000000002  0.11914  1.0000
  C   C89       1.0  0.59396  0.96719  0.38413  1.0000
  C   C90       1.0  0.3917700000000001  0.8819200000000001  0.36641  1.0000
  C   C91       1.0  0.9696600000000002  0.62734  0.85563  1.0000
  C   C92       1.0  0.94897  0.70732  0.86367  1.0000
  C   C93       1.0  0.9939700000000001  0.7677700000000002  0.84544  1.0000
  C   C94       1.0  0.90368  0.5988000000000003  0.8816300000000002  1.0000
  C   C95       1.0  0.04335  0.58227  0.82651  1.0000
  C   C96       1.0  0.07546000000000001  0.54716  0.74326  1.0000
  C   C97       1.0  0.09634  0.56199  0.87465  1.0000
  C   C98       1.0  0.04751  0.5450800000000002  0.66326  1.0000
  C   C99       1.0  0.09388000000000003  0.58404  0.96733  1.0000
  C   C100      1.0  0.89274  0.51583  0.88239  1.0000
  C   C101      1.0  0.96949  0.22852  0.37273  1.0000
  C   C102      1.0  0.94918  0.15666000000000005  0.29246  1.0000
  C   C103      1.0  0.9942800000000002  0.07788000000000002  0.23238  1.0000
  C   C104      1.0  0.9034  0.28294000000000014  0.40112  1.0000
  C   C105      1.0  0.04314000000000001  0.24444  0.41784  1.0000
  C   C106      1.0  0.07524000000000003  0.19620000000000007  0.4527600000000001  1.0000
  C   C107      1.0  0.09624  0.31278  0.43806  1.0000
  C   C108      1.0  0.04728  0.11834999999999997  0.45492  1.0000
  C   C109      1.0  0.09356  0.38347  0.41616  1.0000
  C   C110      1.0  0.89186  0.3664600000000002  0.4843300000000001  1.0000
  C   C111      1.0  0.9699300000000001  0.14470000000000002  0.77126  1.0000
  C   C112      1.0  0.94995  0.13654000000000002  0.84331  1.0000
  C   C113      1.0  0.99567  0.15479000000000015  0.9215400000000002  1.0000
  C   C114      1.0  0.9035700000000001  0.1187600000000001  0.7172500000000003  1.0000
  C   C115      1.0  0.04351  0.17374  0.75492  1.0000
  C   C116      1.0  0.07553000000000003  0.25704  0.80288  1.0000
  C   C117      1.0  0.09654  0.12554000000000018  0.6864500000000002  1.0000
  C   C118      1.0  0.04763000000000001  0.33707  0.88087  1.0000
  C   C119      1.0  0.09393  0.03280999999999999  0.6159  1.0000
  C   C120      1.0  0.89175  0.11808  0.63362  1.0000
  C   C121      1.0  0.25  0.36675  0.94683  1.0000
  C   C122      1.0  0.25  0.12716000000000008  0.91467  1.0000
  C   C123      1.0  0.25  0.03191  0.85542  1.0000
  C   C124      1.0  0.25  0.57972  0.63266  1.0000
  C   C125      1.0  0.25  0.7842700000000001  0.8734900000000002  1.0000
  C   C126      1.0  0.25  0.81552  0.96746  1.0000
  C   C127      1.0  0.25  0.05348  0.41859  1.0000
  C   C128      1.0  0.25  0.08568000000000003  0.21219  1.0000
  C   C129      1.0  0.25  0.14870000000000005  0.18126  1.0000
  C   C130      1.0  0.7500000000000002  0.63325  0.05318  1.0000
  C   C131      1.0  0.7500000000000002  0.8728500000000002  0.08533  1.0000
  C   C132      1.0  0.7500000000000002  0.9681000000000001  0.14459  1.0000
  C   C133      1.0  0.7500000000000002  0.42028999999999994  0.36734  1.0000
  C   C134      1.0  0.7500000000000002  0.21573000000000006  0.12651  1.0000
  C   C135      1.0  0.7500000000000002  0.18448000000000003  0.03255  1.0000
  C   C136      1.0  0.7500000000000002  0.94651  0.58147  1.0000
  C   C137      1.0  0.7500000000000002  0.91434  0.78784  1.0000
  C   C138      1.0  0.7500000000000002  0.8513  0.81875  1.0000
  Br  Br1       1.0  0.25  0.33352  0.6663  1.0000
  Br  Br2       1.0  0.7500000000000002  0.6664600000000002  0.3337  1.0000
  N   N1        1.0  0.35771  0.5097  0.74522  1.0000
  N   N2        1.0  0.34378  0.5169400000000001  0.8238100000000002  1.0000
  N   N3        1.0  0.6249300000000002  0.72224  0.8926  1.0000
  N   N4        1.0  0.65304  0.6578700000000001  0.9053200000000002  1.0000
  N   N5        1.0  0.35787000000000013  0.23553000000000007  0.4901300000000001  1.0000
  N   N6        1.0  0.34386  0.30685  0.48295  1.0000
  N   N7        1.0  0.6245900000000002  0.17065  0.27713  1.0000
  N   N8        1.0  0.65303  0.24758000000000002  0.34159  1.0000
  N   N9        1.0  0.35777  0.25509000000000004  0.76325  1.0000
  N   N10       1.0  0.34379  0.17646  0.69193  1.0000
  N   N11       1.0  0.6239  0.10747999999999999  0.82982  1.0000
  N   N12       1.0  0.65272  0.09489000000000002  0.75301  1.0000
  N   N13       1.0  0.85771  0.49030000000000007  0.25478  1.0000
  N   N14       1.0  0.8437800000000002  0.48306000000000004  0.17619  1.0000
  N   N15       1.0  0.12494  0.27776  0.10741  1.0000
  N   N16       1.0  0.15305  0.34213  0.09468  1.0000
  N   N17       1.0  0.85788  0.76447  0.50988  1.0000
  N   N18       1.0  0.84386  0.69315  0.51706  1.0000
  N   N19       1.0  0.12460000000000002  0.8293500000000003  0.72287  1.0000
  N   N20       1.0  0.15303000000000003  0.7524200000000002  0.65841  1.0000
  N   N21       1.0  0.85776  0.7449000000000001  0.23678000000000005  1.0000
  N   N22       1.0  0.8437800000000002  0.8235300000000002  0.30811  1.0000
  N   N23       1.0  0.12389  0.89253  0.17021  1.0000
  N   N24       1.0  0.15271  0.9051200000000001  0.24702  1.0000
  N   N25       1.0  0.64229  0.49030000000000007  0.25478  1.0000
  N   N26       1.0  0.65622  0.48306000000000004  0.17619  1.0000
  N   N27       1.0  0.37506  0.27776  0.10741  1.0000
  N   N28       1.0  0.34695  0.34213  0.09468  1.0000
  N   N29       1.0  0.64212  0.76447  0.50988  1.0000
  N   N30       1.0  0.6561400000000001  0.69315  0.51706  1.0000
  N   N31       1.0  0.3754  0.8293500000000003  0.72287  1.0000
  N   N32       1.0  0.34696  0.7524200000000002  0.65841  1.0000
  N   N33       1.0  0.64224  0.7449000000000001  0.23678000000000005  1.0000
  N   N34       1.0  0.65622  0.8235300000000002  0.30811  1.0000
  N   N35       1.0  0.37611  0.89253  0.17021  1.0000
  N   N36       1.0  0.34729  0.9051200000000001  0.24702  1.0000
  N   N37       1.0  0.14229  0.5097  0.74522  1.0000
  N   N38       1.0  0.15622  0.5169400000000001  0.8238100000000002  1.0000
  N   N39       1.0  0.87507  0.72224  0.8926  1.0000
  N   N40       1.0  0.84695  0.6578700000000001  0.9053200000000002  1.0000
  N   N41       1.0  0.14213  0.23553000000000007  0.4901300000000001  1.0000
  N   N42       1.0  0.15614  0.3068500000000001  0.48294  1.0000
  N   N43       1.0  0.8754  0.17065  0.27713  1.0000
  N   N44       1.0  0.8469700000000001  0.24758000000000002  0.34159  1.0000
  N   N45       1.0  0.14223  0.25509000000000004  0.76325  1.0000
  N   N46       1.0  0.15621  0.17646  0.69193  1.0000
  N   N47       1.0  0.8761000000000001  0.10747999999999999  0.82982  1.0000
  N   N48       1.0  0.84728  0.09489000000000002  0.75301  1.0000
  N   N49       1.0  0.25  0.40438  0.90711  1.0000
  N   N50       1.0  0.25  0.18391000000000007  0.99078  1.0000
  N   N51       1.0  0.25  0.5023700000000003  0.5954400000000002  1.0000
  N   N52       1.0  0.25  0.8031600000000003  0.8167200000000002  1.0000
  N   N53       1.0  0.25  0.09275999999999994  0.49597  1.0000
  N   N54       1.0  0.25  0.009650000000000014  0.19233000000000003  1.0000
  N   N55       1.0  0.7500000000000002  0.59562  0.09287000000000002  1.0000
  N   N56       1.0  0.7500000000000002  0.8161000000000003  0.00922  1.0000
  N   N57       1.0  0.7500000000000002  0.49764  0.40457  1.0000
  N   N58       1.0  0.7500000000000002  0.19684  0.18328  1.0000
  N   N59       1.0  0.7500000000000002  0.90718  0.50409  1.0000
  N   N60       1.0  0.7500000000000002  0.9903800000000004  0.8077300000000002  1.0000
