data_image0
_chemical_formula_structural       Cd4H72C108N24O16
_chemical_formula_sum              "Cd4 H72 C108 N24 O16"
_cell_length_a       11.39979
_cell_length_b       13.80147
_cell_length_c       24.90102
_cell_angle_alpha    90.06182
_cell_angle_beta     89.97008
_cell_angle_gamma    114.49092

_space_group_name_H-M_alt    "P 1"
_space_group_IT_number       1

loop_
  _space_group_symop_operation_xyz
  'x, y, z'

loop_
  _atom_site_type_symbol
  _atom_site_label
  _atom_site_symmetry_multiplicity
  _atom_site_fract_x
  _atom_site_fract_y
  _atom_site_fract_z
  _atom_site_occupancy
  Cd  Cd1       1.0  0.35307  0.17436  0.8376099999999997  1.0000
  Cd  Cd2       1.0  0.85368  0.67471  0.6623599999999998  1.0000
  Cd  Cd3       1.0  0.64692  0.8256400000000002  0.16239999999999993  1.0000
  Cd  Cd4       1.0  0.14631  0.32529  0.33764  1.0000
  H   H1        1.0  0.18908  0.77979  0.6985699999999999  1.0000
  H   H2        1.0  0.42624999999999996  0.59717  0.8475899999999997  1.0000
  H   H3        1.0  0.3723  0.8883  0.8508799999999999  1.0000
  H   H4        1.0  0.4037000000000001  0.44587000000000004  0.05753  1.0000
  H   H5        1.0  0.07621  0.16685  0.23550999999999994  1.0000
  H   H6        1.0  0.12729000000000001  0.61155  0.35093  1.0000
  H   H7        1.0  0.97855  0.93607  0.6293  1.0000
  H   H8        1.0  0.88285  0.40943  0.20184  1.0000
  H   H9        1.0  0.6395  0.01348  0.3260699999999999  1.0000
  H   H10       1.0  0.89911  0.045369999999999994  0.08557  1.0000
  H   H11       1.0  0.3797400000000001  0.16438  0.68469  1.0000
  H   H12       1.0  0.82034  0.20776  0.61342  1.0000
  H   H13       1.0  0.17965  0.7922400000000002  0.38658  1.0000
  H   H14       1.0  0.8727  0.38845  0.6490799999999999  1.0000
  H   H15       1.0  0.81252  0.79901  0.04570999999999999  1.0000
  H   H16       1.0  0.60091  0.45446  0.58561  1.0000
  H   H17       1.0  0.07906  0.16693  0.72817  1.0000
  H   H18       1.0  0.5318  0.29552  0.04477  1.0000
  H   H19       1.0  0.71575  0.97585  0.66102  1.0000
  H   H20       1.0  0.5675  0.2252  0.9430299999999998  1.0000
  H   H21       1.0  0.43249000000000004  0.7747900000000001  0.05698  1.0000
  H   H22       1.0  0.47880999999999996  0.43605  0.87047  1.0000
  H   H23       1.0  0.62025  0.83561  0.31532  1.0000
  H   H24       1.0  0.57584  0.66676  0.26444999999999996  1.0000
  H   H25       1.0  0.14740000000000003  0.11344000000000001  0.0678  1.0000
  H   H26       1.0  0.39908  0.54554  0.41439999999999994  1.0000
  H   H27       1.0  0.0675799999999999  0.72503  0.55666  1.0000
  H   H28       1.0  0.21585999999999997  0.47628  0.83903  1.0000
  H   H29       1.0  0.78413  0.52371  0.16097999999999996  1.0000
  H   H30       1.0  0.6484900000000001  0.51961  0.75118  1.0000
  H   H31       1.0  0.92093  0.8330600000000001  0.27183  1.0000
  H   H32       1.0  0.11713999999999998  0.59057  0.7981599999999998  1.0000
  H   H33       1.0  0.18747  0.20099000000000003  0.95429  1.0000
  H   H34       1.0  0.09628000000000002  0.05405999999999999  0.5573999999999999  1.0000
  H   H35       1.0  0.31233  0.29892  0.4542999999999999  1.0000
  H   H36       1.0  0.64724  0.6135  0.43209  1.0000
  H   H37       1.0  0.59629  0.55413  0.9424799999999999  1.0000
  H   H38       1.0  0.38505000000000006  0.9106800000000002  0.29838  1.0000
  H   H39       1.0  0.9037100000000001  0.94594  0.4426  1.0000
  H   H40       1.0  0.02144  0.06393  0.37071  1.0000
  H   H41       1.0  0.93241  0.27497  0.44335  1.0000
  H   H42       1.0  0.32051999999999997  0.7081299999999999  0.8869599999999999  1.0000
  H   H43       1.0  0.46819000000000005  0.70448  0.95523  1.0000
  H   H44       1.0  0.10088  0.95463  0.91443  1.0000
  H   H45       1.0  0.57374  0.4028300000000001  0.15242  1.0000
  H   H46       1.0  0.14788  0.01973  0.7488999999999998  1.0000
  H   H47       1.0  0.42179000000000005  0.33383000000000007  0.22818999999999998  1.0000
  H   H48       1.0  0.13903000000000001  0.51324  0.17394  1.0000
  H   H49       1.0  0.35150000000000003  0.48039  0.24881999999999996  1.0000
  H   H50       1.0  0.5782000000000002  0.6661700000000002  0.7718099999999998  1.0000
  H   H51       1.0  0.03179999999999999  0.79539  0.45506  1.0000
  H   H52       1.0  0.11998999999999999  0.33548  0.18478  1.0000
  H   H53       1.0  0.36049000000000003  0.98652  0.67393  1.0000
  H   H54       1.0  0.42415  0.33324  0.7355499999999999  1.0000
  H   H55       1.0  0.35275  0.38649  0.56791  1.0000
  H   H56       1.0  0.8109099999999999  0.2202  0.30143  1.0000
  H   H57       1.0  0.96819  0.20461  0.54495  1.0000
  H   H58       1.0  0.30993000000000004  0.7202700000000001  0.19851  1.0000
  H   H59       1.0  0.67947  0.29187  0.11304999999999998  1.0000
  H   H60       1.0  0.8799999999999999  0.66452  0.8152199999999997  1.0000
  H   H61       1.0  0.07355000000000002  0.9028700000000001  0.34734  1.0000
  H   H62       1.0  0.68766  0.70108  0.5457  1.0000
  H   H63       1.0  0.8521099999999999  0.98026  0.2511  1.0000
  H   H64       1.0  0.52118  0.56394  0.12954  1.0000
  H   H65       1.0  0.9237799999999999  0.83315  0.76449  1.0000
  H   H66       1.0  0.62769  0.1117  0.14913  1.0000
  H   H67       1.0  0.92644  0.09712999999999998  0.65267  1.0000
  H   H68       1.0  0.69006  0.27972  0.8015  1.0000
  H   H69       1.0  0.8609600000000001  0.48676  0.82606  1.0000
  H   H70       1.0  0.85259  0.88656  0.93221  1.0000
  H   H71       1.0  0.61494  0.08932  0.70162  1.0000
  H   H72       1.0  0.28424  0.02414  0.33898  1.0000
  C   C1        1.0  0.8261999999999999  0.88135  0.42217  1.0000
  C   C2        1.0  0.6048899999999998  0.4781  0.7146399999999998  1.0000
  C   C3        1.0  0.9689400000000001  0.76689  0.4894699999999999  1.0000
  C   C4        1.0  0.7805400000000001  0.77775  0.44206  1.0000
  C   C5        1.0  0.21945000000000003  0.22225000000000003  0.55794  1.0000
  C   C6        1.0  0.28222  0.20194  0.30531  1.0000
  C   C7        1.0  0.91622  0.33908  0.6664499999999999  1.0000
  C   C8        1.0  0.11924  0.2166  0.1272  1.0000
  C   C9        1.0  0.97361  0.51769  0.26592  1.0000
  C   C10       1.0  0.17739  0.19457  0.08213999999999999  1.0000
  C   C11       1.0  0.8282500000000002  0.15683  0.32035  1.0000
  C   C12       1.0  0.14322  0.35484  0.7799  1.0000
  C   C13       1.0  0.91559  0.04985  0.12844  1.0000
  C   C14       1.0  0.11096000000000002  0.76114  0.35379  1.0000
  C   C15       1.0  0.99573  0.88589  0.7919999999999998  1.0000
  C   C16       1.0  0.2416  0.55538  0.16733  1.0000
  C   C17       1.0  0.34283  0.049920000000000006  0.30297  1.0000
  C   C18       1.0  0.026379999999999994  0.48231  0.7340799999999997  1.0000
  C   C19       1.0  0.66392  0.81933  0.35128  1.0000
  C   C20       1.0  0.38883  0.73882  0.8539799999999999  1.0000
  C   C21       1.0  0.78355  0.70235  0.19459  1.0000
  C   C22       1.0  0.85677  0.64516  0.22011  1.0000
  C   C23       1.0  0.50378  0.61422  0.29195999999999994  1.0000
  C   C24       1.0  0.46892  0.26697  0.01037  1.0000
  C   C25       1.0  0.51669  0.76982  0.03936  1.0000
  C   C26       1.0  0.93799  0.68364  0.26643  1.0000
  C   C27       1.0  0.28055  0.2777  0.05793  1.0000
  C   C28       1.0  0.4833  0.23018  0.9606399999999998  1.0000
  C   C29       1.0  0.23224  0.09912  0.62353  1.0000
  C   C30       1.0  0.03314000000000002  0.21436000000000002  0.71078  1.0000
  C   C31       1.0  0.94864  0.17643  0.66835  1.0000
  C   C32       1.0  0.97308  0.55676  0.71121  1.0000
  C   C33       1.0  0.52497  0.98123  0.76566  1.0000
  C   C34       1.0  0.17379  0.11864  0.57783  1.0000
  C   C35       1.0  0.7152799999999999  0.78732  0.0354  1.0000
  C   C36       1.0  0.71777  0.79805  0.6947  1.0000
  C   C37       1.0  0.10430999999999997  0.97825  0.78541  1.0000
  C   C38       1.0  0.6773099999999999  0.6946399999999999  0.41781  1.0000
  C   C39       1.0  0.47089999999999993  0.05526  0.7884499999999999  1.0000
  C   C40       1.0  0.8890299999999999  0.23886  0.64621  1.0000
  C   C41       1.0  0.026909999999999996  0.44324  0.2888  1.0000
  C   C42       1.0  0.7583899999999999  0.44462  0.83267  1.0000
  C   C43       1.0  0.55167  0.32371  0.16825  1.0000
  C   C44       1.0  0.08377000000000002  0.66092  0.33354999999999996  1.0000
  C   C45       1.0  0.49621  0.38578  0.7080399999999998  1.0000
  C   C46       1.0  0.8956799999999999  0.02175  0.21459  1.0000
  C   C47       1.0  0.35713  0.14574  0.28008  1.0000
  C   C48       1.0  0.15777000000000002  0.45072  0.8028599999999999  1.0000
  C   C49       1.0  0.55918  0.42061  0.8561799999999998  1.0000
  C   C50       1.0  0.61116  0.26118  0.14602  1.0000
  C   C51       1.0  0.3262  0.3813  0.07792999999999999  1.0000
  C   C52       1.0  0.96685  0.78564  0.28922  1.0000
  C   C53       1.0  0.52909  0.9447400000000001  0.21155  1.0000
  C   C54       1.0  0.28470999999999996  0.21268  0.96461  1.0000
  C   C55       1.0  0.44832000000000005  0.6762900000000001  0.83175  1.0000
  C   C56       1.0  0.49866  0.11999  0.21071  1.0000
  C   C57       1.0  0.46751999999999994  0.28616  0.21085  1.0000
  C   C58       1.0  0.2579999999999999  0.94447  0.66715  1.0000
  C   C59       1.0  0.67232  0.34313  0.82025  1.0000
  C   C60       1.0  0.3276700000000001  0.6568700000000001  0.17975  1.0000
  C   C61       1.0  0.21515000000000004  0.2873  0.4646899999999999  1.0000
  C   C62       1.0  0.59969  0.01316  0.7196199999999999  1.0000
  C   C63       1.0  0.44081  0.57939  0.14382  1.0000
  C   C64       1.0  0.058929999999999975  0.92071  0.64359  1.0000
  C   C65       1.0  0.47502000000000005  0.01877  0.23435  1.0000
  C   C66       1.0  0.74199  0.055529999999999996  0.33284999999999987  1.0000
  C   C67       1.0  0.33607  0.18067  0.64872  1.0000
  C   C68       1.0  0.58423  0.16123  0.16646  1.0000
  C   C69       1.0  0.67379  0.6187  0.9220799999999999  1.0000
  C   C70       1.0  0.051360000000000045  0.82357  0.33165  1.0000
  C   C71       1.0  0.53247  0.71384  0.78915  1.0000
  C   C72       1.0  0.56134  0.81565  0.76622  1.0000
  C   C73       1.0  0.9978299999999999  0.61923  0.28946  1.0000
  C   C74       1.0  0.004259999999999998  0.11411  0.20800999999999994  1.0000
  C   C75       1.0  0.3951  0.52189  0.28536  1.0000
  C   C76       1.0  0.43865  0.18434  0.23378999999999994  1.0000
  C   C77       1.0  0.08439999999999999  0.9501500000000002  0.8715599999999998  1.0000
  C   C78       1.0  0.41576  0.83877  0.83354  1.0000
  C   C79       1.0  0.32268  0.30536  0.58219  1.0000
  C   C80       1.0  0.16388999999999998  0.31925999999999993  0.14882  1.0000
  C   C81       1.0  0.031049999999999998  0.23311  0.51053  1.0000
  C   C82       1.0  0.71944  0.7223  0.9420699999999997  1.0000
  C   C83       1.0  0.38083999999999996  0.28333  0.6271899999999999  1.0000
  C   C84       1.0  0.8226  0.8054200000000001  0.91786  1.0000
  C   C85       1.0  0.41534999999999994  0.54996  0.3715099999999999  1.0000
  C   C86       1.0  0.50133  0.88001  0.78929  1.0000
  C   C87       1.0  0.4002999999999998  0.9868399999999999  0.28038  1.0000
  C   C88       1.0  0.002159999999999959  0.38076999999999994  0.71054  1.0000
  C   C89       1.0  0.17173999999999998  0.84317  0.67965  1.0000
  C   C90       1.0  0.64286  0.85426  0.71992  1.0000
  C   C91       1.0  0.7322700000000001  0.59921  0.8763299999999999  1.0000
  C   C92       1.0  0.8361099999999999  0.68074  0.85118  1.0000
  C   C93       1.0  0.016639999999999988  0.26996  0.46088  1.0000
  C   C94       1.0  0.78484  0.71269  0.53531  1.0000
  C   C95       1.0  0.76775  0.90088  0.37647  1.0000
  C   C96       1.0  0.21644  0.29765  0.8054099999999998  1.0000
  C   C97       1.0  0.6191500000000002  0.71667  0.37281  1.0000
  C   C98       1.0  0.062  0.31636  0.73357  1.0000
  C   C99       1.0  0.53107  0.7330300000000001  0.9896399999999997  1.0000
  C   C100      1.0  0.88075  0.7834  0.8728  1.0000
  C   C101      1.0  0.65716  0.9500800000000001  0.69704  1.0000
  C   C102      1.0  0.9833500000000001  0.73004  0.53913  1.0000
  C   C103      1.0  0.84222  0.54927  0.19713999999999995  1.0000
  C   C104      1.0  0.58464  0.45004  0.62849  1.0000
  C   C105      1.0  0.26772  0.40079  0.12366999999999999  1.0000
  C   C106      1.0  0.94106  0.07929  0.3564099999999999  1.0000
  C   C107      1.0  0.89895  0.48583999999999994  0.21983  1.0000
  C   C108      1.0  0.10103999999999998  0.51416  0.78017  1.0000
  N   N1        1.0  0.1315  0.30305  0.43281  1.0000
  N   N2        1.0  0.18548  0.99377  0.6439499999999999  1.0000
  N   N3        1.0  0.68563  0.49384  0.85582  1.0000
  N   N4        1.0  0.84105  0.98293  0.16506  1.0000
  N   N5        1.0  0.81451  0.006230000000000001  0.35604999999999987  1.0000
  N   N6        1.0  0.86849  0.69695  0.5671999999999999  1.0000
  N   N7        1.0  0.84173  0.75511  0.48728  1.0000
  N   N8        1.0  0.04883999999999998  0.82984  0.66496  1.0000
  N   N9        1.0  0.45071  0.67037  0.16511  1.0000
  N   N10       1.0  0.15894  0.01707  0.83494  1.0000
  N   N11       1.0  0.34168  0.25508  0.012639999999999997  1.0000
  N   N12       1.0  0.34062  0.48302  0.33488  1.0000
  N   N13       1.0  0.65832  0.74492  0.9873599999999999  1.0000
  N   N14       1.0  0.15826  0.24489  0.51272  1.0000
  N   N15       1.0  0.31436  0.50615  0.14419  1.0000
  N   N16       1.0  0.54928  0.32963000000000003  0.8348899999999998  1.0000
  N   N17       1.0  0.95115  0.17016  0.33504  1.0000
  N   N18       1.0  0.48342  0.36838  0.65289  1.0000
  N   N19       1.0  0.016829999999999998  0.13152  0.15286  1.0000
  N   N20       1.0  0.65937  0.51697  0.66512  1.0000
  N   N21       1.0  0.98316  0.86848  0.8471399999999998  1.0000
  N   N22       1.0  0.51657  0.63162  0.34711  1.0000
  N   N23       1.0  0.6316  0.80294  0.06738  1.0000
  N   N24       1.0  0.36839  0.19706  0.93262  1.0000
  O   O1        1.0  0.7504  0.7376399999999999  0.7250199999999999  1.0000
  O   O2        1.0  0.24959  0.26235  0.27498  1.0000
  O   O3        1.0  0.74991  0.76245  0.22485  1.0000
  O   O4        1.0  0.25008  0.23755  0.77516  1.0000
  O   O5        1.0  0.96981  0.566  0.66024  1.0000
  O   O6        1.0  0.75403  0.6867  0.14534  1.0000
  O   O7        1.0  0.4703899999999999  0.06653  0.8393499999999999  1.0000
  O   O8        1.0  0.5296  0.93347  0.16065  1.0000
  O   O9        1.0  0.93446  0.60869  0.7438699999999999  1.0000
  O   O10       1.0  0.03018000000000001  0.434  0.33975999999999995  1.0000
  O   O11       1.0  0.7495400000000001  0.8144700000000001  0.6456399999999999  1.0000
  O   O12       1.0  0.42885000000000006  0.10467000000000001  0.75582  1.0000
  O   O13       1.0  0.25045  0.18551999999999996  0.35435999999999995  1.0000
  O   O14       1.0  0.06553  0.39131  0.25613  1.0000
  O   O15       1.0  0.57114  0.89533  0.24419  1.0000
  O   O16       1.0  0.24595999999999998  0.3133  0.85466  1.0000
