data_image0
_chemical_formula_structural       Mn8H156C188N4O36
_chemical_formula_sum              "Mn8 H156 C188 N4 O36"
_cell_length_a       6.73816
_cell_length_b       20.68116
_cell_length_c       31.856440000000003
_cell_angle_alpha    103.51571
_cell_angle_beta     89.93421
_cell_angle_gamma    89.80674

_symmetry_space_group_name_H-M    'P 1'
_symmetry_Int_Tables_number       1

loop_
  _symmetry_equiv_pos_as_xyz
  'x,y,z'

loop_
  _atom_site_type_symbol
  _atom_site_label
  _atom_site_symmetry_multiplicity
  _atom_site_fract_x
  _atom_site_fract_y
  _atom_site_fract_z
  _atom_site_occupancy
  Mn  Mn1       1.0  0.8853  0.7046800000000001  0.7489000000000002  1.0000
  Mn  Mn2       1.0  0.40748  0.75214  0.76697  1.0000
  Mn  Mn3       1.0  0.38647999999999993  0.29493000000000014  0.7511600000000003  1.0000
  Mn  Mn4       1.0  0.90718  0.24766  0.73327  1.0000
  Mn  Mn5       1.0  0.11470000000000001  0.2953200000000001  0.2511  1.0000
  Mn  Mn6       1.0  0.59252  0.24787000000000003  0.23303  1.0000
  Mn  Mn7       1.0  0.61352  0.70507  0.24884000000000006  1.0000
  Mn  Mn8       1.0  0.09281999999999999  0.75234  0.26673  1.0000
  H   H1        1.0  0.011099999999999999  0.9049200000000003  0.18833000000000005  1.0000
  H   H2        1.0  0.04056  0.55971  0.83318  1.0000
  H   H3        1.0  0.32012  0.7439200000000001  0.89319  1.0000
  H   H4        1.0  0.95378  0.95966  0.12695  1.0000
  H   H5        1.0  0.65053  0.74065  0.12506  1.0000
  H   H6        1.0  0.99141  0.56713  0.61912  1.0000
  H   H7        1.0  0.54172  0.89902  0.88862  1.0000
  H   H8        1.0  0.32509  0.58124  0.95666  1.0000
  H   H9        1.0  0.19095  0.68654  0.00894  1.0000
  H   H10       1.0  0.56687  0.66414  0.82945  1.0000
  H   H11       1.0  0.05111  0.38406  0.45977000000000007  1.0000
  H   H12       1.0  0.513  0.5582100000000001  0.53976  1.0000
  H   H13       1.0  0.7555  0.9026500000000002  0.06383  1.0000
  H   H14       1.0  0.53424  0.6589600000000001  0.6739400000000002  1.0000
  H   H15       1.0  0.47063999999999995  0.12175000000000001  0.024770000000000007  1.0000
  H   H16       1.0  0.70114  0.62153  0.6028  1.0000
  H   H17       1.0  0.27025  0.9067  0.9125800000000002  1.0000
  H   H18       1.0  0.04731  0.97012  0.96867  1.0000
  H   H19       1.0  0.45063999999999993  0.43499000000000004  0.5293  1.0000
  H   H20       1.0  0.29843  0.36571000000000004  0.50616  1.0000
  H   H21       1.0  0.26319  0.4103200000000001  0.5604500000000002  1.0000
  H   H22       1.0  0.82844  0.80184  0.00961  1.0000
  H   H23       1.0  0.14284  0.5115  0.8949000000000003  1.0000
  H   H24       1.0  0.12879  0.83856  0.84349  1.0000
  H   H25       1.0  0.87032  0.7659200000000002  0.93642  1.0000
  H   H26       1.0  0.64863  0.7695900000000001  0.9076100000000002  1.0000
  H   H27       1.0  0.75031  0.69132  0.90961  1.0000
  H   H28       1.0  0.13042  0.73735  0.08059  1.0000
  H   H29       1.0  0.29288  0.79704  0.1122  1.0000
  H   H30       1.0  0.3366  0.71128  0.10644  1.0000
  H   H31       1.0  0.7504  0.51684  0.82853  1.0000
  H   H32       1.0  0.49354  0.4988  0.8232  1.0000
  H   H33       1.0  0.57438  0.57615  0.8568200000000002  1.0000
  H   H34       1.0  0.50015  0.54155  0.72571  1.0000
  H   H35       1.0  0.60719  0.47636000000000006  0.7472000000000002  1.0000
  H   H36       1.0  0.7603  0.53968  0.73307  1.0000
  H   H37       1.0  0.73901  0.07496000000000008  0.9265800000000002  1.0000
  H   H38       1.0  0.90649  0.08504000000000006  0.97006  1.0000
  H   H39       1.0  0.70054  0.13976999999999998  0.97361  1.0000
  H   H40       1.0  0.51308  0.09500000000000001  0.31136  1.0000
  H   H41       1.0  0.53944  0.44076  0.66738  1.0000
  H   H42       1.0  0.81919  0.25615  0.60711  1.0000
  H   H43       1.0  0.4559  0.039940000000000024  0.37268000000000007  1.0000
  H   H44       1.0  0.15145  0.25966  0.37515  1.0000
  H   H45       1.0  0.48954  0.43334  0.8810900000000003  1.0000
  H   H46       1.0  0.04302000000000001  0.10277000000000001  0.61148  1.0000
  H   H47       1.0  0.82418  0.41887  0.5436000000000002  1.0000
  H   H48       1.0  0.68932  0.31327000000000005  0.4915600000000001  1.0000
  H   H49       1.0  0.06528  0.33571  0.67073  1.0000
  H   H50       1.0  0.55312  0.61533  0.04085  1.0000
  H   H51       1.0  0.012749999999999997  0.44091000000000014  0.9594500000000002  1.0000
  H   H52       1.0  0.25667  0.09710000000000006  0.4359600000000001  1.0000
  H   H53       1.0  0.0326  0.34122  0.82505  1.0000
  H   H54       1.0  0.9724  0.8782500000000001  0.47559  1.0000
  H   H55       1.0  0.20048  0.3778800000000001  0.89585  1.0000
  H   H56       1.0  0.77104  0.09062  0.58639  1.0000
  H   H57       1.0  0.54641  0.02836999999999999  0.53087  1.0000
  H   H58       1.0  0.95233  0.56388  0.971  1.0000
  H   H59       1.0  0.79967  0.63355  0.99406  1.0000
  H   H60       1.0  0.76591  0.58906  0.9398  1.0000
  H   H61       1.0  0.32954  0.19781000000000004  0.49035  1.0000
  H   H62       1.0  0.64062  0.48899000000000004  0.60551  1.0000
  H   H63       1.0  0.63191  0.16020000000000015  0.6556200000000002  1.0000
  H   H64       1.0  0.3703  0.23332000000000003  0.56353  1.0000
  H   H65       1.0  0.14851999999999999  0.23091000000000003  0.5927  1.0000
  H   H66       1.0  0.25111  0.30859  0.59016  1.0000
  H   H67       1.0  0.63017  0.26304  0.41997  1.0000
  H   H68       1.0  0.7931199999999999  0.20316  0.38814  1.0000
  H   H69       1.0  0.83573  0.2889  0.39396  1.0000
  H   H70       1.0  0.24989  0.48198  0.67113  1.0000
  H   H71       1.0  0.99317  0.50099  0.67673  1.0000
  H   H72       1.0  0.07328  0.42314  0.64322  1.0000
  H   H73       1.0  0.0009100000000000009  0.45882  0.77461  1.0000
  H   H74       1.0  0.10692  0.5235100000000001  0.7526  1.0000
  H   H75       1.0  0.26077  0.46  0.76657  1.0000
  H   H76       1.0  0.23991  0.92562  0.57365  1.0000
  H   H77       1.0  0.40679999999999994  0.91459  0.52989  1.0000
  H   H78       1.0  0.20103  0.8604500000000002  0.52696  1.0000
  H   H79       1.0  0.98891  0.09509  0.81167  1.0000
  H   H80       1.0  0.9594500000000001  0.44029000000000007  0.16682  1.0000
  H   H81       1.0  0.67989  0.25608  0.10681000000000003  1.0000
  H   H82       1.0  0.04621999999999999  0.04033999999999997  0.87305  1.0000
  H   H83       1.0  0.34946999999999995  0.2593500000000001  0.87494  1.0000
  H   H84       1.0  0.00859  0.43287  0.38088  1.0000
  H   H85       1.0  0.45828  0.10098  0.11138  1.0000
  H   H86       1.0  0.67492  0.41876  0.04334  1.0000
  H   H87       1.0  0.80905  0.3134700000000001  0.99107  1.0000
  H   H88       1.0  0.43313  0.33586  0.17055  1.0000
  H   H89       1.0  0.94889  0.6159499999999999  0.54023  1.0000
  H   H90       1.0  0.487  0.4418  0.46024  1.0000
  H   H91       1.0  0.2445  0.09736  0.93617  1.0000
  H   H92       1.0  0.46577  0.3410500000000001  0.3260600000000001  1.0000
  H   H93       1.0  0.52936  0.8782500000000001  0.97523  1.0000
  H   H94       1.0  0.29885999999999996  0.37848  0.39721  1.0000
  H   H95       1.0  0.72975  0.09330000000000001  0.08742000000000003  1.0000
  H   H96       1.0  0.9526899999999999  0.02989  0.03133  1.0000
  H   H97       1.0  0.54936  0.56502  0.47071  1.0000
  H   H98       1.0  0.70157  0.6342900000000001  0.4938400000000001  1.0000
  H   H99       1.0  0.73681  0.5896900000000002  0.43956  1.0000
  H   H100      1.0  0.17156  0.19817000000000004  0.9904000000000001  1.0000
  H   H101      1.0  0.8571599999999999  0.4885  0.10511  1.0000
  H   H102      1.0  0.87121  0.16144  0.15652  1.0000
  H   H103      1.0  0.12969  0.23409000000000005  0.06359  1.0000
  H   H104      1.0  0.35137  0.23042000000000007  0.09239  1.0000
  H   H105      1.0  0.24968999999999997  0.30869  0.0904  1.0000
  H   H106      1.0  0.86959  0.26266  0.91942  1.0000
  H   H107      1.0  0.7071299999999999  0.20297000000000007  0.8878  1.0000
  H   H108      1.0  0.6634  0.2887200000000001  0.8935600000000002  1.0000
  H   H109      1.0  0.2496  0.48316  0.17147  1.0000
  H   H110      1.0  0.50646  0.5012  0.1768  1.0000
  H   H111      1.0  0.42562  0.42386  0.14318  1.0000
  H   H112      1.0  0.49986  0.45846  0.27429  1.0000
  H   H113      1.0  0.39282  0.52365  0.25281  1.0000
  H   H114      1.0  0.2397  0.46032  0.26693  1.0000
  H   H115      1.0  0.261  0.92504  0.07342  1.0000
  H   H116      1.0  0.09351  0.91496  0.02994  1.0000
  H   H117      1.0  0.29946  0.86024  0.026390000000000007  1.0000
  H   H118      1.0  0.48692  0.9050000000000002  0.68865  1.0000
  H   H119      1.0  0.46056  0.55925  0.33262000000000014  1.0000
  H   H120      1.0  0.18082  0.7438600000000001  0.3929  1.0000
  H   H121      1.0  0.5441  0.9600700000000001  0.62733  1.0000
  H   H122      1.0  0.8485499999999999  0.7403400000000001  0.6248600000000002  1.0000
  H   H123      1.0  0.51046  0.56667  0.11891  1.0000
  H   H124      1.0  0.95699  0.89724  0.38852  1.0000
  H   H125      1.0  0.17582  0.58113  0.4564  1.0000
  H   H126      1.0  0.31067999999999996  0.68673  0.50845  1.0000
  H   H127      1.0  0.9347199999999999  0.6643  0.32927  1.0000
  H   H128      1.0  0.44688  0.38468  0.95915  1.0000
  H   H129      1.0  0.98725  0.55909  0.04055000000000002  1.0000
  H   H130      1.0  0.74333  0.9029000000000003  0.5640400000000002  1.0000
  H   H131      1.0  0.9674  0.65879  0.17495  1.0000
  H   H132      1.0  0.02761  0.12176  0.52441  1.0000
  H   H133      1.0  0.79953  0.62212  0.10416  1.0000
  H   H134      1.0  0.22896  0.90938  0.41362  1.0000
  H   H135      1.0  0.4536  0.97164  0.46913  1.0000
  H   H136      1.0  0.04767999999999999  0.43612000000000006  0.02901  1.0000
  H   H137      1.0  0.20033  0.36646  0.005940000000000002  1.0000
  H   H138      1.0  0.23409  0.4109400000000001  0.0602  1.0000
  H   H139      1.0  0.67046  0.80219  0.50966  1.0000
  H   H140      1.0  0.35938  0.51102  0.39449  1.0000
  H   H141      1.0  0.3680899999999999  0.8398  0.34438  1.0000
  H   H142      1.0  0.6297  0.76669  0.43648  1.0000
  H   H143      1.0  0.85149  0.7691000000000001  0.40731  1.0000
  H   H144      1.0  0.7489  0.69142  0.40985  1.0000
  H   H145      1.0  0.36983  0.73697  0.58003  1.0000
  H   H146      1.0  0.20688  0.79684  0.61187  1.0000
  H   H147      1.0  0.16428  0.71111  0.60604  1.0000
  H   H148      1.0  0.75011  0.51802  0.3288700000000001  1.0000
  H   H149      1.0  0.00684  0.49901  0.32327  1.0000
  H   H150      1.0  0.92672  0.57687  0.35678  1.0000
  H   H151      1.0  0.99909  0.5411800000000001  0.2254  1.0000
  H   H152      1.0  0.89309  0.47649  0.2474  1.0000
  H   H153      1.0  0.73923  0.54001  0.23343000000000005  1.0000
  H   H154      1.0  0.76009  0.07438000000000002  0.42635  1.0000
  H   H155      1.0  0.5932  0.08542  0.47012  1.0000
  H   H156      1.0  0.79897  0.13956  0.47304  1.0000
  C   C1        1.0  0.92048  0.8812400000000001  0.16084  1.0000
  C   C2        1.0  0.1253  0.6814800000000001  0.8215600000000002  1.0000
  C   C3        1.0  0.42751  0.7092900000000001  0.96957  1.0000
  C   C4        1.0  0.17615  0.65428  0.85975  1.0000
  C   C5        1.0  0.83081  0.8198600000000001  0.16035  1.0000
  C   C6        1.0  0.12285  0.5891  0.86031  1.0000
  C   C7        1.0  0.15161  0.4605400000000001  0.51302  1.0000
  C   C8        1.0  0.14063000000000003  0.64162  0.6916  1.0000
  C   C9        1.0  0.11947  0.52663  0.53617  1.0000
  C   C10       1.0  0.25198  0.61524  0.6508  1.0000
  C   C11       1.0  0.60912  0.7432300000000001  0.96936  1.0000
  C   C12       1.0  0.33292  0.66811  0.93023  1.0000
  C   C13       1.0  0.69232  0.81639  0.08896  1.0000
  C   C14       1.0  0.4073  0.7468  0.04912000000000001  1.0000
  C   C15       1.0  0.62396  0.04205000000000007  0.9815000000000003  1.0000
  C   C16       1.0  0.63833  0.9723200000000001  0.96744  1.0000
  C   C17       1.0  0.28272  0.69321  0.89433  1.0000
  C   C18       1.0  0.74191  0.8217300000000001  0.8218300000000002  1.0000
  C   C19       1.0  0.59164  0.77943  0.04913  1.0000
  C   C20       1.0  0.88987  0.9111600000000001  0.12634  1.0000
  C   C21       1.0  0.71596  0.7885  0.12481  1.0000
  C   C22       1.0  0.14704000000000003  0.5784200000000002  0.61513  1.0000
  C   C23       1.0  0.7012  0.90116  0.89404  1.0000
  C   C24       1.0  0.28208999999999995  0.60187  0.9295700000000002  1.0000
  C   C25       1.0  0.77735  0.93907  0.9327500000000002  1.0000
  C   C26       1.0  0.33199  0.71223  0.00922  1.0000
  C   C27       1.0  0.8268599999999999  0.8651300000000001  0.8619300000000002  1.0000
  C   C28       1.0  0.86089  0.78601  0.19651  1.0000
  C   C29       1.0  0.58195  0.63529  0.7961  1.0000
  C   C30       1.0  0.23842  0.55851  0.57474  1.0000
  C   C31       1.0  0.03148999999999998  0.43566  0.47710000000000014  1.0000
  C   C32       1.0  0.44007  0.57358  0.57097  1.0000
  C   C33       1.0  0.7779299999999999  0.87901  0.09067  1.0000
  C   C34       1.0  0.45256  0.63041  0.64649  1.0000
  C   C35       1.0  0.4855  0.06799000000000001  0.014000000000000004  1.0000
  C   C36       1.0  0.5457700000000002  0.60926  0.60648  1.0000
  C   C37       1.0  0.1106  0.9054100000000002  0.9067800000000003  1.0000
  C   C38       1.0  0.98474  0.9412900000000001  0.93867  1.0000
  C   C39       1.0  0.29914  0.41555  0.52768  1.0000
  C   C40       1.0  0.68608  0.77694  0.00929  1.0000
  C   C41       1.0  0.17968000000000003  0.56261  0.89484  1.0000
  C   C42       1.0  0.0332  0.86758  0.8684  1.0000
  C   C43       1.0  0.72508  0.74239  0.9286900000000002  1.0000
  C   C44       1.0  0.28599  0.7484800000000001  0.08915  1.0000
  C   C45       1.0  0.60308  0.53872  0.82686  1.0000
  C   C46       1.0  0.61724  0.52892  0.74634  1.0000
  C   C47       1.0  0.74838  0.08794000000000002  0.96202  1.0000
  C   C48       1.0  0.42221  0.11864000000000001  0.33896  1.0000
  C   C49       1.0  0.62737  0.31987  0.6794  1.0000
  C   C50       1.0  0.92696  0.29067  0.5307  1.0000
  C   C51       1.0  0.67561  0.3462700000000001  0.64078  1.0000
  C   C52       1.0  0.3321  0.18022000000000002  0.33967  1.0000
  C   C53       1.0  0.62158  0.41141000000000005  0.64009  1.0000
  C   C54       1.0  0.65244  0.53909  0.98711  1.0000
  C   C55       1.0  0.63691  0.35850000000000004  0.8083900000000003  1.0000
  C   C56       1.0  0.61909  0.47333000000000003  0.96368  1.0000
  C   C57       1.0  0.74989  0.3849800000000001  0.8488100000000002  1.0000
  C   C58       1.0  0.10927  0.25663000000000014  0.5307500000000003  1.0000
  C   C59       1.0  0.83162  0.33197  0.57008  1.0000
  C   C60       1.0  0.19331  0.18355  0.41105  1.0000
  C   C61       1.0  0.90722  0.25318  0.45117  1.0000
  C   C62       1.0  0.12394999999999999  0.95803  0.51867  1.0000
  C   C63       1.0  0.13755  0.027770000000000003  0.53256  1.0000
  C   C64       1.0  0.7814499999999999  0.30694  0.60601  1.0000
  C   C65       1.0  0.24474  0.17839999999999998  0.67797  1.0000
  C   C66       1.0  0.09226  0.22049  0.451  1.0000
  C   C67       1.0  0.39166  0.08856  0.37338  1.0000
  C   C68       1.0  0.21695  0.21164000000000005  0.37531  1.0000
  C   C69       1.0  0.64548  0.42182  0.88471  1.0000
  C   C70       1.0  0.20228  0.09961000000000009  0.6057100000000002  1.0000
  C   C71       1.0  0.78084  0.39836000000000005  0.57074  1.0000
  C   C72       1.0  0.27706  0.06097999999999998  0.56697  1.0000
  C   C73       1.0  0.83124  0.28772  0.49114  1.0000
  C   C74       1.0  0.32911999999999997  0.13501  0.63764  1.0000
  C   C75       1.0  0.36116999999999994  0.21416000000000002  0.30356  1.0000
  C   C76       1.0  0.07999  0.36455  0.70408  1.0000
  C   C77       1.0  0.73764  0.44143  0.9249200000000002  1.0000
  C   C78       1.0  0.53259  0.564  0.02319  1.0000
  C   C79       1.0  0.93951  0.42599  0.92832  1.0000
  C   C80       1.0  0.27933  0.12075000000000002  0.40915  1.0000
  C   C81       1.0  0.951  0.3697300000000001  0.85266  1.0000
  C   C82       1.0  0.98642  0.9320200000000001  0.48618  1.0000
  C   C83       1.0  0.04488  0.39048  0.89253  1.0000
  C   C84       1.0  0.6115  0.09310000000000004  0.59247  1.0000
  C   C85       1.0  0.48447  0.057760000000000034  0.56085  1.0000
  C   C86       1.0  0.80084  0.5837  0.97256  1.0000
  C   C87       1.0  0.18681  0.22286000000000006  0.49077  1.0000
  C   C88       1.0  0.67778  0.4378000000000001  0.60549  1.0000
  C   C89       1.0  0.53533  0.13161000000000006  0.63089  1.0000
  C   C90       1.0  0.22535  0.25746  0.57135  1.0000
  C   C91       1.0  0.78581  0.25168  0.41125  1.0000
  C   C92       1.0  0.10231  0.46071  0.67304  1.0000
  C   C93       1.0  0.11713  0.471  0.75362  1.0000
  C   C94       1.0  0.24885999999999997  0.91219  0.53822  1.0000
  C   C95       1.0  0.07953  0.11876999999999997  0.83917  1.0000
  C   C96       1.0  0.87471  0.31853  0.17844  1.0000
  C   C97       1.0  0.5725  0.29072  0.03043  1.0000
  C   C98       1.0  0.82386  0.34572  0.14026  1.0000
  C   C99       1.0  0.1692  0.1801500000000001  0.8396500000000002  1.0000
  C   C100      1.0  0.87715  0.4109  0.1397  1.0000
  C   C101      1.0  0.84839  0.53947  0.48698000000000013  1.0000
  C   C102      1.0  0.85937  0.35839  0.3084  1.0000
  C   C103      1.0  0.8805399999999999  0.4733800000000001  0.4638400000000001  1.0000
  C   C104      1.0  0.7480299999999999  0.38476999999999995  0.34921  1.0000
  C   C105      1.0  0.39088  0.25678  0.03064  1.0000
  C   C106      1.0  0.6670899999999998  0.33189  0.06977  1.0000
  C   C107      1.0  0.30768  0.18362000000000006  0.91104  1.0000
  C   C108      1.0  0.59271  0.2532  0.95088  1.0000
  C   C109      1.0  0.37605  0.95796  0.0185  1.0000
  C   C110      1.0  0.36167  0.027690000000000003  0.03256  1.0000
  C   C111      1.0  0.7172899999999999  0.30679  0.10567000000000003  1.0000
  C   C112      1.0  0.25809  0.17828  0.17817  1.0000
  C   C113      1.0  0.40835999999999995  0.22056999999999996  0.95087  1.0000
  C   C114      1.0  0.11013  0.08884  0.87366  1.0000
  C   C115      1.0  0.28404  0.21150000000000016  0.8752000000000002  1.0000
  C   C116      1.0  0.85296  0.42158  0.38487  1.0000
  C   C117      1.0  0.29879999999999995  0.09885  0.10597000000000001  1.0000
  C   C118      1.0  0.71791  0.39813000000000004  0.07044  1.0000
  C   C119      1.0  0.22265  0.06093  0.06726  1.0000
  C   C120      1.0  0.66801  0.28777  0.99078  1.0000
  C   C121      1.0  0.17315  0.13488  0.13807  1.0000
  C   C122      1.0  0.13911  0.21399000000000004  0.8035  1.0000
  C   C123      1.0  0.41805  0.36471  0.20391  1.0000
  C   C124      1.0  0.76158  0.44150000000000006  0.42526000000000014  1.0000
  C   C125      1.0  0.96851  0.56434  0.5229  1.0000
  C   C126      1.0  0.55994  0.42643000000000003  0.42903  1.0000
  C   C127      1.0  0.22208  0.12099000000000001  0.90933  1.0000
  C   C128      1.0  0.54744  0.3696  0.35352  1.0000
  C   C129      1.0  0.5145099999999999  0.9320200000000001  0.98601  1.0000
  C   C130      1.0  0.45423  0.39075  0.39352  1.0000
  C   C131      1.0  0.8894  0.09459  0.09322  1.0000
  C   C132      1.0  0.01526  0.05872000000000001  0.06134  1.0000
  C   C133      1.0  0.70086  0.58446  0.47232  1.0000
  C   C134      1.0  0.31392  0.22306000000000006  0.9907200000000003  1.0000
  C   C135      1.0  0.82032  0.43740000000000007  0.10517000000000001  1.0000
  C   C136      1.0  0.9668  0.13243000000000002  0.1316  1.0000
  C   C137      1.0  0.27492  0.25761  0.07132  1.0000
  C   C138      1.0  0.7140099999999999  0.2515200000000001  0.91085  1.0000
  C   C139      1.0  0.39693  0.4612900000000001  0.17314  1.0000
  C   C140      1.0  0.38276  0.47108  0.25367  1.0000
  C   C141      1.0  0.25162  0.91206  0.03798  1.0000
  C   C142      1.0  0.57779  0.8813700000000001  0.66104  1.0000
  C   C143      1.0  0.37263  0.68014  0.32061  1.0000
  C   C144      1.0  0.07304  0.7093400000000001  0.4693000000000001  1.0000
  C   C145      1.0  0.32439  0.65373  0.35923  1.0000
  C   C146      1.0  0.6679  0.81979  0.66034  1.0000
  C   C147      1.0  0.37842  0.58859  0.35991  1.0000
  C   C148      1.0  0.34756  0.46092  0.0129  1.0000
  C   C149      1.0  0.36309  0.6415  0.19161000000000006  1.0000
  C   C150      1.0  0.38092  0.52667  0.03633  1.0000
  C   C151      1.0  0.25011  0.61502  0.1512  1.0000
  C   C152      1.0  0.89073  0.74337  0.4692500000000001  1.0000
  C   C153      1.0  0.16838  0.6680300000000001  0.42992  1.0000
  C   C154      1.0  0.80669  0.81645  0.5889500000000002  1.0000
  C   C155      1.0  0.09278  0.74683  0.54883  1.0000
  C   C156      1.0  0.87606  0.041970000000000014  0.48133  1.0000
  C   C157      1.0  0.86245  0.97224  0.46745  1.0000
  C   C158      1.0  0.21854999999999997  0.69306  0.39399  1.0000
  C   C159      1.0  0.75526  0.82161  0.32204  1.0000
  C   C160      1.0  0.9077399999999999  0.77952  0.54901  1.0000
  C   C161      1.0  0.60834  0.9114500000000001  0.62662  1.0000
  C   C162      1.0  0.78305  0.78837  0.62469  1.0000
  C   C163      1.0  0.35452999999999996  0.57818  0.1153  1.0000
  C   C164      1.0  0.7977300000000002  0.9004  0.39429  1.0000
  C   C165      1.0  0.21916000000000005  0.60165  0.42927  1.0000
  C   C166      1.0  0.72294  0.93902  0.4330400000000001  1.0000
  C   C167      1.0  0.16876999999999998  0.71229  0.50887  1.0000
  C   C168      1.0  0.67088  0.86499  0.36237  1.0000
  C   C169      1.0  0.63883  0.7858400000000001  0.69644  1.0000
  C   C170      1.0  0.92002  0.63545  0.29592  1.0000
  C   C171      1.0  0.26236  0.55858  0.07508  1.0000
  C   C172      1.0  0.46740999999999994  0.436  0.9768100000000002  1.0000
  C   C173      1.0  0.06049000000000001  0.57401  0.07168  1.0000
  C   C174      1.0  0.7206699999999999  0.8792500000000001  0.59085  1.0000
  C   C175      1.0  0.04901  0.63027  0.14734  1.0000
  C   C176      1.0  0.01359  0.06799000000000001  0.51382  1.0000
  C   C177      1.0  0.9551199999999999  0.60952  0.10747  1.0000
  C   C178      1.0  0.3885  0.90691  0.40754  1.0000
  C   C179      1.0  0.51554  0.9422400000000001  0.43916  1.0000
  C   C180      1.0  0.19915999999999998  0.41631  0.02744  1.0000
  C   C181      1.0  0.8131999999999999  0.77714  0.50924  1.0000
  C   C182      1.0  0.32222  0.56221  0.39451  1.0000
  C   C183      1.0  0.46467  0.8683900000000001  0.3691100000000001  1.0000
  C   C184      1.0  0.7746500000000001  0.7425500000000002  0.42865  1.0000
  C   C185      1.0  0.2142  0.74832  0.58875  1.0000
  C   C186      1.0  0.89769  0.53929  0.32696000000000003  1.0000
  C   C187      1.0  0.88287  0.5290100000000001  0.24639000000000005  1.0000
  C   C188      1.0  0.7511499999999999  0.08782000000000005  0.4617900000000001  1.0000
  N   N1        1.0  0.5932100000000001  0.5699400000000001  0.7902900000000003  1.0000
  N   N2        1.0  0.0918  0.4298700000000001  0.7097700000000001  1.0000
  N   N3        1.0  0.40679999999999994  0.43007000000000006  0.20972  1.0000
  N   N4        1.0  0.90821  0.5701400000000002  0.29023  1.0000
  O   O1        1.0  0.97971  0.65591  0.79787  1.0000
  O   O2        1.0  0.8621699999999999  0.79567  0.7914500000000001  1.0000
  O   O3        1.0  0.5856200000000003  0.66333  0.7643200000000002  1.0000
  O   O4        1.0  0.23438  0.72812  0.81468  1.0000
  O   O5        1.0  0.0025499999999999993  0.8057100000000001  0.22303  1.0000
  O   O6        1.0  0.55469  0.8119  0.8206  1.0000
  O   O7        1.0  0.97815  0.61418  0.6979800000000003  1.0000
  O   O8        1.0  0.20134  0.69469  0.71868  1.0000
  O   O9        1.0  0.74668  0.73717  0.19808000000000006  1.0000
  O   O10       1.0  0.48546  0.34685  0.70407  1.0000
  O   O11       1.0  0.36493  0.20433000000000004  0.70828  1.0000
  O   O12       1.0  0.08259  0.33657  0.73585  1.0000
  O   O13       1.0  0.7360799999999998  0.27235  0.68554  1.0000
  O   O14       1.0  0.50469  0.19493  0.27722  1.0000
  O   O15       1.0  0.05741  0.18818000000000004  0.67946  1.0000
  O   O16       1.0  0.47383  0.38601000000000013  0.8022600000000002  1.0000
  O   O17       1.0  0.69673  0.30496  0.78137  1.0000
  O   O18       1.0  0.24338  0.26242  0.30194  1.0000
  O   O19       1.0  0.0203  0.3441  0.20213  1.0000
  O   O20       1.0  0.13784  0.20433000000000004  0.20855  1.0000
  O   O21       1.0  0.41439  0.33667  0.23569  1.0000
  O   O22       1.0  0.76562  0.27189  0.18533  1.0000
  O   O23       1.0  0.99745  0.19429  0.77698  1.0000
  O   O24       1.0  0.44531  0.18811000000000003  0.1794  1.0000
  O   O25       1.0  0.02185  0.38583  0.30202  1.0000
  O   O26       1.0  0.79866  0.30532000000000004  0.28133000000000014  1.0000
  O   O27       1.0  0.25333  0.26284  0.80192  1.0000
  O   O28       1.0  0.51454  0.65316  0.29593  1.0000
  O   O29       1.0  0.6350799999999999  0.79567  0.29172  1.0000
  O   O30       1.0  0.91741  0.6634300000000001  0.26415  1.0000
  O   O31       1.0  0.26392  0.7276600000000001  0.31446  1.0000
  O   O32       1.0  0.49531  0.80508  0.7227900000000003  1.0000
  O   O33       1.0  0.9425899999999999  0.81182  0.32055  1.0000
  O   O34       1.0  0.52617  0.61399  0.19774  1.0000
  O   O35       1.0  0.30327  0.69505  0.21864  1.0000
  O   O36       1.0  0.75662  0.7375900000000001  0.69806  1.0000
