data_image0
_chemical_formula_structural       Ni4H152C114N24O24
_chemical_formula_sum              "Ni4 H152 C114 N24 O24"
_cell_length_a       9.11775
_cell_length_b       18.900590000000005
_cell_length_c       23.222510000000003
_cell_angle_alpha    85.42379
_cell_angle_beta     78.97545
_cell_angle_gamma    76.43089

_space_group_name_H-M_alt    "P 1"
_space_group_IT_number       1

loop_
  _space_group_symop_operation_xyz
  'x, y, z'

loop_
  _atom_site_type_symbol
  _atom_site_label
  _atom_site_symmetry_multiplicity
  _atom_site_fract_x
  _atom_site_fract_y
  _atom_site_fract_z
  _atom_site_occupancy
  Ni  Ni1       1.0  0.003000000000000097  0.99895  0.99893  1.0000
  Ni  Ni2       1.0  0.0012800000000000148  0.5004700000000001  0.49988999999999995  1.0000
  Ni  Ni3       1.0  0.003000000000000097  0.9984999999999999  0.49899  1.0000
  Ni  Ni4       1.0  0.49977000000000005  0.49923  0.99954  1.0000
  H   H1        1.0  0.8874600000000001  0.11678  0.45293  1.0000
  H   H2        1.0  0.14569000000000007  0.91345  0.9218299999999999  1.0000
  H   H3        1.0  0.17742999999999998  0.85819  0.11626  1.0000
  H   H4        1.0  0.9956200000000001  0.88421  0.09121  1.0000
  H   H5        1.0  0.3525400000000001  0.8604899999999999  0.95748  1.0000
  H   H6        1.0  0.42989000000000005  0.81581  0.01904  1.0000
  H   H7        1.0  0.38709000000000005  0.925  0.067  1.0000
  H   H8        1.0  0.34947000000000006  0.97248  0.99986  1.0000
  H   H9        1.0  0.97874  0.82431  0.00978  1.0000
  H   H10       1.0  0.14305999999999994  0.79167  0.9559199999999999  1.0000
  H   H11       1.0  0.819  0.90583  0.95421  1.0000
  H   H12       1.0  0.94058  0.87436  0.88736  1.0000
  H   H13       1.0  0.20920000000000014  0.9994399999999999  0.13015  1.0000
  H   H14       1.0  0.01195000000000007  0.99926  0.13492  1.0000
  H   H15       1.0  0.060690000000000036  0.09970999999999998  0.63445  1.0000
  H   H16       1.0  0.90323  0.07487  0.61014  1.0000
  H   H17       1.0  0.32799  0.06442  0.56667  1.0000
  H   H18       1.0  0.33469000000000004  0.9989799999999999  0.51411  1.0000
  H   H19       1.0  0.27984  0.91236  0.59178  1.0000
  H   H20       1.0  0.31320000000000026  0.97365  0.63978  1.0000
  H   H21       1.0  0.97321  0.1129  0.34879  1.0000
  H   H22       1.0  0.13116  0.04047999999999999  0.35971  1.0000
  H   H23       1.0  0.10380000000000002  0.17567  0.42495999999999995  1.0000
  H   H24       1.0  0.22694999999999999  0.08802  0.43149  1.0000
  H   H25       1.0  0.17860000000000004  0.16193  0.52266  1.0000
  H   H26       1.0  0.9799900000000001  0.16516  0.53002  1.0000
  H   H27       1.0  0.6108700000000002  0.05475999999999999  0.65018  1.0000
  H   H28       1.0  0.36637000000000003  0.08817999999999997  0.72291  1.0000
  H   H29       1.0  0.18083  0.24914  0.59813  1.0000
  H   H30       1.0  0.4298  0.218  0.52822  1.0000
  H   H31       1.0  0.9597  0.23341  0.65635  1.0000
  H   H32       1.0  0.04882999999999996  0.29261  0.68737  1.0000
  H   H33       1.0  0.7711299999999999  0.17234  0.71895  1.0000
  H   H34       1.0  0.89161  0.13466  0.77156  1.0000
  H   H35       1.0  0.4385500000000001  0.23264000000000004  0.88113  1.0000
  H   H36       1.0  0.26461  0.15047  0.92474  1.0000
  H   H37       1.0  0.52389  0.98362  0.8082  1.0000
  H   H38       1.0  0.7050799999999999  0.06353  0.76557  1.0000
  H   H39       1.0  0.45779000000000003  0.38302  0.04793000000000001  1.0000
  H   H40       1.0  0.9836400000000001  0.58564  0.57742  1.0000
  H   H41       1.0  0.15439000000000014  0.64198  0.3842499999999999  1.0000
  H   H42       1.0  0.9732800000000001  0.6158  0.40856  1.0000
  H   H43       1.0  0.1730999999999999  0.63948  0.54344  1.0000
  H   H44       1.0  0.26824  0.68411  0.4822  1.0000
  H   H45       1.0  0.37992000000000004  0.57466  0.43463  1.0000
  H   H46       1.0  0.32036000000000003  0.52735  0.50149  1.0000
  H   H47       1.0  0.81691  0.67585  0.48969  1.0000
  H   H48       1.0  0.89587  0.7075199999999999  0.54434  1.0000
  H   H49       1.0  0.6809799999999999  0.59375  0.54497  1.0000
  H   H50       1.0  0.7075100000000001  0.62452  0.61196  1.0000
  H   H51       1.0  0.33732  0.50111  0.37028000000000005  1.0000
  H   H52       1.0  0.14498000000000008  0.5011199999999999  0.36497  1.0000
  H   H53       1.0  0.7917400000000002  0.39885000000000004  0.8672999999999998  1.0000
  H   H54       1.0  0.58577  0.42299  0.88912  1.0000
  H   H55       1.0  0.9514100000000003  0.43624999999999997  0.9349699999999999  1.0000
  H   H56       1.0  0.8424499999999998  0.50305  0.98617  1.0000
  H   H57       1.0  0.7813999999999999  0.58773  0.90684  1.0000
  H   H58       1.0  0.9236800000000001  0.52544  0.8605100000000001  1.0000
  H   H59       1.0  0.4381399999999999  0.38743  0.15125  1.0000
  H   H60       1.0  0.5340400000000001  0.46054000000000006  0.14056  1.0000
  H   H61       1.0  0.70469  0.3264699999999999  0.07612  1.0000
  H   H62       1.0  0.7465899999999999  0.41467  0.06822  1.0000
  H   H63       1.0  0.8579999999999997  0.33983  0.97712  1.0000
  H   H64       1.0  0.66926  0.33521  0.97141  1.0000
  H   H65       1.0  0.31483000000000005  0.44734  0.8532300000000002  1.0000
  H   H66       1.0  0.17653  0.41438  0.77922  1.0000
  H   H67       1.0  0.025410000000000026  0.2517  0.9020699999999999  1.0000
  H   H68       1.0  0.17371  0.28215  0.97308  1.0000
  H   H69       1.0  0.84988  0.26721  0.843  1.0000
  H   H70       1.0  0.02842000000000001  0.20907000000000003  0.8123  1.0000
  H   H71       1.0  0.6659199999999998  0.32902  0.78073  1.0000
  H   H72       1.0  0.8006999999999999  0.36658  0.72789  1.0000
  H   H73       1.0  0.55238  0.27016  0.61758  1.0000
  H   H74       1.0  0.33802  0.35153999999999996  0.57489  1.0000
  H   H75       1.0  0.3159799999999999  0.51707  0.69356  1.0000
  H   H76       1.0  0.5343099999999998  0.4377499999999999  0.7357300000000001  1.0000
  H   H77       1.0  0.11496999999999996  0.88127  0.54631  1.0000
  H   H78       1.0  0.85858  0.0841  0.07625  1.0000
  H   H79       1.0  0.82477  0.14074999999999996  0.88282  1.0000
  H   H80       1.0  0.006850000000000018  0.11483999999999998  0.9077  1.0000
  H   H81       1.0  0.65031  0.13861  0.0417  1.0000
  H   H82       1.0  0.5728699999999999  0.18277999999999997  0.98004  1.0000
  H   H83       1.0  0.6154099999999999  0.07333  0.9326000000000001  1.0000
  H   H84       1.0  0.65463  0.02614  0.9996699999999998  1.0000
  H   H85       1.0  0.02346999999999992  0.17514  0.9894  1.0000
  H   H86       1.0  0.8590699999999999  0.20637999999999998  0.04356  1.0000
  H   H87       1.0  0.18401  0.09343  0.04544999999999999  1.0000
  H   H88       1.0  0.05949000000000003  0.12436999999999998  0.11184  1.0000
  H   H89       1.0  0.7927000000000003  0.99939  0.86904  1.0000
  H   H90       1.0  0.9900900000000002  0.99954  0.86388  1.0000
  H   H91       1.0  0.9407900000000002  0.89894  0.36438  1.0000
  H   H92       1.0  0.09906999999999999  0.92354  0.38817  1.0000
  H   H93       1.0  0.6734100000000001  0.9346599999999999  0.43382999999999994  1.0000
  H   H94       1.0  0.6706299999999998  1.0000000000000133e-05  0.48596  1.0000
  H   H95       1.0  0.72244  0.08629  0.40776999999999997  1.0000
  H   H96       1.0  0.68773  0.024869999999999996  0.36024  1.0000
  H   H97       1.0  0.027930000000000014  0.88579  0.65023  1.0000
  H   H98       1.0  0.87053  0.9582700000000001  0.63882  1.0000
  H   H99       1.0  0.89663  0.82339  0.57441  1.0000
  H   H100      1.0  0.77538  0.9113599999999998  0.56709  1.0000
  H   H101      1.0  0.8235  0.83663  0.47639  1.0000
  H   H102      1.0  0.02229000000000005  0.83275  0.46918999999999994  1.0000
  H   H103      1.0  0.39117  0.9445200000000002  0.34946  1.0000
  H   H104      1.0  0.6357599999999998  0.9110300000000001  0.27681  1.0000
  H   H105      1.0  0.8213200000000006  0.75007  0.40136  1.0000
  H   H106      1.0  0.57278  0.78097  0.47139  1.0000
  H   H107      1.0  0.04249999999999998  0.76613  0.34319  1.0000
  H   H108      1.0  0.95325  0.70703  0.31213  1.0000
  H   H109      1.0  0.22957000000000008  0.82765  0.2809  1.0000
  H   H110      1.0  0.10969000000000002  0.86522  0.22807  1.0000
  H   H111      1.0  0.5624899999999999  0.76699  0.11878999999999999  1.0000
  H   H112      1.0  0.73741  0.84858  0.07459  1.0000
  H   H113      1.0  0.47981000000000007  0.01638  0.19045999999999996  1.0000
  H   H114      1.0  0.2976799999999999  0.9373000000000001  0.23359  1.0000
  H   H115      1.0  0.5426800000000003  0.61598  0.95213  1.0000
  H   H116      1.0  0.01681999999999999  0.41501  0.4226500000000001  1.0000
  H   H117      1.0  0.84615  0.35859  0.6156  1.0000
  H   H118      1.0  0.027379999999999956  0.38465  0.59139  1.0000
  H   H119      1.0  0.8274099999999999  0.36074  0.4565199999999999  1.0000
  H   H120      1.0  0.7324199999999996  0.31631  0.51794  1.0000
  H   H121      1.0  0.6209599999999998  0.42587  0.56528  1.0000
  H   H122      1.0  0.6803700000000001  0.47304  0.49833999999999995  1.0000
  H   H123      1.0  0.18382999999999997  0.32456  0.51017  1.0000
  H   H124      1.0  0.10458000000000008  0.2931  0.45548999999999995  1.0000
  H   H125      1.0  0.31990999999999997  0.40664  0.45476  1.0000
  H   H126      1.0  0.2928200000000001  0.37592999999999993  0.38784  1.0000
  H   H127      1.0  0.6633899999999999  0.4993099999999999  0.62948  1.0000
  H   H128      1.0  0.8556  0.49937999999999994  0.63489  1.0000
  H   H129      1.0  0.20923  0.60072  0.13234  1.0000
  H   H130      1.0  0.41515000000000013  0.57637  0.11043999999999998  1.0000
  H   H131      1.0  0.048880000000000035  0.56348  0.06516  1.0000
  H   H132      1.0  0.1568  0.49654  0.01394  1.0000
  H   H133      1.0  0.21849000000000002  0.41187  0.09324  1.0000
  H   H134      1.0  0.07667  0.4742799999999999  0.13961  1.0000
  H   H135      1.0  0.5625  0.61221  0.84877  1.0000
  H   H136      1.0  0.46657000000000004  0.53912  0.85908  1.0000
  H   H137      1.0  0.29645  0.67308  0.92382  1.0000
  H   H138      1.0  0.25353  0.58512  0.93157  1.0000
  H   H139      1.0  0.14286000000000001  0.65963  0.022829999999999996  1.0000
  H   H140      1.0  0.33170000000000005  0.66398  0.0285  1.0000
  H   H141      1.0  0.6852700000000002  0.55253  0.1468  1.0000
  H   H142      1.0  0.8234300000000001  0.58565  0.22073  1.0000
  H   H143      1.0  0.9745200000000004  0.74818  0.09773  1.0000
  H   H144      1.0  0.8262399999999999  0.71759  0.026789999999999998  1.0000
  H   H145      1.0  0.15085  0.73233  0.15653  1.0000
  H   H146      1.0  0.9729999999999998  0.79095  0.18733  1.0000
  H   H147      1.0  0.33632  0.67091  0.21896  1.0000
  H   H148      1.0  0.20070000000000002  0.63315  0.27125  1.0000
  H   H149      1.0  0.4476  0.72971  0.38236  1.0000
  H   H150      1.0  0.66207  0.64849  0.42516  1.0000
  H   H151      1.0  0.68479  0.48280999999999996  0.30653  1.0000
  H   H152      1.0  0.46645  0.56201  0.26427  1.0000
  C   C1        1.0  0.11914000000000008  0.87978  0.07908  1.0000
  C   C2        1.0  0.33371  0.85633  0.00553  1.0000
  C   C3        1.0  0.31783  0.93107  0.03233  1.0000
  C   C4        1.0  0.08742000000000004  0.83595  0.9862699999999999  1.0000
  C   C5        1.0  0.9187400000000007  0.91433  0.92176  1.0000
  C   C6        1.0  0.11595999999999998  0.0071  0.10479000000000001  1.0000
  C   C7        1.0  0.026889999999999994  0.06116  0.60921  1.0000
  C   C8        1.0  0.27008  0.024380000000000002  0.55474  1.0000
  C   C9        1.0  0.24587000000000006  0.96844  0.60653  1.0000
  C   C10       1.0  0.009529999999999985  0.06383  0.37595000000000006  1.0000
  C   C11       1.0  0.11338999999999992  0.12198  0.44815  1.0000
  C   C12       1.0  0.09513000000000003  0.13216  0.51436  1.0000
  C   C13       1.0  0.68124  0.11437999999999998  0.54052  1.0000
  C   C14       1.0  0.53525  0.13458  0.58459  1.0000
  C   C15       1.0  0.5164400000000001  0.09783999999999998  0.63967  1.0000
  C   C16       1.0  0.38057  0.11556  0.67987  1.0000
  C   C17       1.0  0.25863  0.1701  0.66485  1.0000
  C   C18       1.0  0.27513999999999994  0.20741000000000004  0.61024  1.0000
  C   C19       1.0  0.4136500000000001  0.18968000000000002  0.57087  1.0000
  C   C20       1.0  0.004869999999999995  0.24260999999999996  0.69513  1.0000
  C   C21       1.0  0.80794  0.18289  0.7592099999999999  1.0000
  C   C22       1.0  0.5836300000000001  0.15246  0.82203  1.0000
  C   C23       1.0  0.45715  0.17778  0.86586  1.0000
  C   C24       1.0  0.3599200000000001  0.13235  0.88939  1.0000
  C   C25       1.0  0.38348999999999994  0.06162999999999999  0.86937  1.0000
  C   C26       1.0  0.5069599999999999  0.03817  0.82394  1.0000
  C   C27       1.0  0.6081800000000002  0.08283  0.8001399999999999  1.0000
  C   C28       1.0  0.27962999999999993  0.012440000000000001  0.89772  1.0000
  C   C29       1.0  0.08021000000000003  0.62028  0.42110999999999993  1.0000
  C   C30       1.0  0.19820000000000002  0.64357  0.49540999999999996  1.0000
  C   C31       1.0  0.28167  0.56877  0.46878  1.0000
  C   C32       1.0  0.9134299999999999  0.66368  0.51352  1.0000
  C   C33       1.0  0.75776  0.5848599999999999  0.5773  1.0000
  C   C34       1.0  0.22673999999999994  0.49313  0.39534  1.0000
  C   C35       1.0  0.6935699999999999  0.43773  0.891  1.0000
  C   C36       1.0  0.8430799999999999  0.47674999999999995  0.9458800000000002  1.0000
  C   C37       1.0  0.8175399999999999  0.53123  0.8930800000000001  1.0000
  C   C38       1.0  0.45198000000000016  0.43667  0.12412999999999999  1.0000
  C   C39       1.0  0.6829700000000001  0.37972  0.05233999999999999  1.0000
  C   C40       1.0  0.7370299999999999  0.36885999999999997  0.9862699999999999  1.0000
  C   C41       1.0  0.33594000000000007  0.38584  0.96221  1.0000
  C   C42       1.0  0.25290000000000007  0.3665  0.91776  1.0000
  C   C43       1.0  0.25256000000000006  0.40403  0.8629899999999999  1.0000
  C   C44       1.0  0.17464  0.38665  0.82215  1.0000
  C   C45       1.0  0.09206000000000004  0.33169  0.8362299999999999  1.0000
  C   C46       1.0  0.09043999999999994  0.29374  0.89065  1.0000
  C   C47       1.0  0.17203000000000004  0.3111  0.93065  1.0000
  C   C48       1.0  0.9425699999999999  0.25869  0.8044900000000001  1.0000
  C   C49       1.0  0.7516399999999999  0.31844  0.7403500000000001  1.0000
  C   C50       1.0  0.5576900000000004  0.34929  0.67813  1.0000
  C   C51       1.0  0.5000300000000001  0.32435  0.63372  1.0000
  C   C52       1.0  0.38060000000000005  0.36937999999999993  0.61056  1.0000
  C   C53       1.0  0.3141  0.43957  0.63129  1.0000
  C   C54       1.0  0.36897  0.46287999999999996  0.67723  1.0000
  C   C55       1.0  0.49108  0.41837999999999986  0.70086  1.0000
  C   C56       1.0  0.19030000000000008  0.48807  0.60252  1.0000
  C   C57       1.0  0.8833799999999999  0.11913  0.9199  1.0000
  C   C58       1.0  0.6691600000000001  0.14241  0.99364  1.0000
  C   C59       1.0  0.6853399999999998  0.06752999999999999  0.96702  1.0000
  C   C60       1.0  0.9153799999999999  0.16268  0.01272  1.0000
  C   C61       1.0  0.08359999999999997  0.08443  0.07727  1.0000
  C   C62       1.0  0.8863600000000003  0.99169  0.8942099999999998  1.0000
  C   C63       1.0  0.9752000000000002  0.93733  0.38955999999999996  1.0000
  C   C64       1.0  0.7329500000000001  0.97442  0.44511  1.0000
  C   C65       1.0  0.7560499999999999  0.030169999999999992  0.39312  1.0000
  C   C66       1.0  0.9922799999999999  0.93483  0.62295  1.0000
  C   C67       1.0  0.8885599999999999  0.87678  0.55083  1.0000
  C   C68       1.0  0.9074300000000001  0.8661099999999998  0.48468  1.0000
  C   C69       1.0  0.32061  0.88487  0.45927  1.0000
  C   C70       1.0  0.4666500000000001  0.86464  0.41518  1.0000
  C   C71       1.0  0.48544  0.90142  0.36006  1.0000
  C   C72       1.0  0.62124  0.88372  0.31987  1.0000
  C   C73       1.0  0.7432  0.82926  0.33487  1.0000
  C   C74       1.0  0.72682  0.7918  0.38937999999999995  1.0000
  C   C75       1.0  0.5883799999999999  0.80948  0.4288  1.0000
  C   C76       1.0  0.99705  0.75707  0.30444  1.0000
  C   C77       1.0  0.19357  0.81706  0.24047  1.0000
  C   C78       1.0  0.41830000000000006  0.8476599999999999  0.17756  1.0000
  C   C79       1.0  0.5445100000000002  0.82194  0.13374  1.0000
  C   C80       1.0  0.6421699999999999  0.86702  0.10987  1.0000
  C   C81       1.0  0.61929  0.93775  0.12962  1.0000
  C   C82       1.0  0.49604  0.96176  0.17496  1.0000
  C   C83       1.0  0.39426999999999995  0.9174900000000001  0.19905  1.0000
  C   C84       1.0  0.7247500000000001  0.9861499999999999  0.1015  1.0000
  C   C85       1.0  0.9205  0.38025999999999993  0.57876  1.0000
  C   C86       1.0  0.80248  0.35682  0.50457  1.0000
  C   C87       1.0  0.7192000000000001  0.43169999999999986  0.53108  1.0000
  C   C88       1.0  0.08723000000000006  0.33685  0.4863799999999999  1.0000
  C   C89       1.0  0.24290000000000003  0.4156  0.42251  1.0000
  C   C90       1.0  0.77401  0.50733  0.60446  1.0000
  C   C91       1.0  0.30722  0.56169  0.10868999999999998  1.0000
  C   C92       1.0  0.15691  0.52283  0.054139999999999994  1.0000
  C   C93       1.0  0.18267000000000003  0.46837  0.10696000000000001  1.0000
  C   C94       1.0  0.5485499999999999  0.56284  0.8757000000000001  1.0000
  C   C95       1.0  0.3176  0.61977  0.94753  1.0000
  C   C96       1.0  0.26371000000000006  0.6304899999999999  0.01359  1.0000
  C   C97       1.0  0.66398  0.61394  0.03774  1.0000
  C   C98       1.0  0.7471199999999999  0.6333  0.08218  1.0000
  C   C99       1.0  0.7475100000000001  0.59586  0.13697  1.0000
  C   C100      1.0  0.8254100000000001  0.61334  0.17779  1.0000
  C   C101      1.0  0.90802  0.6683  0.16367  1.0000
  C   C102      1.0  0.90965  0.7060999999999998  0.1092  1.0000
  C   C103      1.0  0.82806  0.68867  0.06922  1.0000
  C   C104      1.0  0.058460000000000005  0.74118  0.19514  1.0000
  C   C105      1.0  0.24987999999999994  0.68131  0.25917  1.0000
  C   C106      1.0  0.44286000000000003  0.65045  0.32184  1.0000
  C   C107      1.0  0.5002  0.67552  0.3662599999999999  1.0000
  C   C108      1.0  0.61966  0.6306  0.38948  1.0000
  C   C109      1.0  0.6864000000000001  0.5604199999999999  0.36876  1.0000
  C   C110      1.0  0.63173  0.537  0.32283  1.0000
  C   C111      1.0  0.5096600000000001  0.5813899999999999  0.29915  1.0000
  C   C112      1.0  0.8104600000000001  0.51202  0.39743  1.0000
  C   C113      1.0  0.8778700000000003  0.25061  0.7497  1.0000
  C   C114      1.0  0.1238  0.74922  0.24981000000000003  1.0000
  N   N1        1.0  0.99601  0.08438  0.43786  1.0000
  N   N2        1.0  0.11126000000000003  0.06104  0.54719  1.0000
  N   N3        1.0  0.07929999999999994  0.98744  0.63171  1.0000
  N   N4        1.0  0.15215  0.95249  0.0588  1.0000
  N   N5        1.0  0.049850000000000144  0.9060899999999998  0.95252  1.0000
  N   N6        1.0  0.18645999999999993  0.83406  0.029130000000000003  1.0000
  N   N7        1.0  0.51885  0.41655  0.0623  1.0000
  N   N8        1.0  0.71224  0.44002  0.95351  1.0000
  N   N9        1.0  0.6962600000000001  0.51091  0.8672799999999999  1.0000
  N   N10       1.0  0.16382  0.54749  0.44144999999999995  1.0000
  N   N11       1.0  0.91081  0.59318  0.54661  1.0000
  N   N12       1.0  0.053110000000000025  0.66586  0.47121999999999997  1.0000
  N   N13       1.0  0.006559999999999802  0.9139600000000001  0.56107  1.0000
  N   N14       1.0  0.89215  0.93717  0.45176999999999995  1.0000
  N   N15       1.0  0.92229  0.011179999999999997  0.36739  1.0000
  N   N16       1.0  0.8508700000000002  0.0463  0.94015  1.0000
  N   N17       1.0  0.9541900000000001  0.09213  0.04574  1.0000
  N   N18       1.0  0.8161899999999999  0.16478  0.96991  1.0000
  N   N19       1.0  0.48151  0.58266  0.9375299999999999  1.0000
  N   N20       1.0  0.28814  0.55928  0.04626  1.0000
  N   N21       1.0  0.30432  0.48863  0.13257  1.0000
  N   N22       1.0  0.83715  0.45303999999999994  0.55834  1.0000
  N   N23       1.0  0.08995000000000004  0.40741  0.45335  1.0000
  N   N24       1.0  0.94764  0.33464  0.52869  1.0000
  O   O1        1.0  0.77075  0.05320999999999999  0.55154  1.0000
  O   O2        1.0  0.70435  0.15738  0.49685  1.0000
  O   O3        1.0  0.12636000000000008  0.18197  0.7060799999999999  1.0000
  O   O4        1.0  0.6778600000000001  0.20015  0.8057000000000001  1.0000
  O   O5        1.0  0.29630000000000006  0.95058  0.8771  1.0000
  O   O6        1.0  0.17976000000000003  0.03924999999999999  0.9424899999999999  1.0000
  O   O7        1.0  0.37904  0.4466  0.95144  1.0000
  O   O8        1.0  0.35614  0.34265  0.00591  1.0000
  O   O9        1.0  0.014030000000000088  0.31991  0.7941799999999999  1.0000
  O   O10       1.0  0.6824599999999998  0.30136  0.6942  1.0000
  O   O11       1.0  0.12521000000000002  0.54987  0.62291  1.0000
  O   O12       1.0  0.16259000000000004  0.4609699999999998  0.5574  1.0000
  O   O13       1.0  0.23122999999999996  0.94612  0.4481  1.0000
  O   O14       1.0  0.29679000000000005  0.8420499999999997  0.50298  1.0000
  O   O15       1.0  0.8753099999999999  0.81773  0.29368  1.0000
  O   O16       1.0  0.3243400000000001  0.79989  0.19422  1.0000
  O   O17       1.0  0.71187  0.04698  0.12317  1.0000
  O   O18       1.0  0.8217499999999999  0.9601300000000001  0.05585  1.0000
  O   O19       1.0  0.6208299999999999  0.55323  0.04843  1.0000
  O   O20       1.0  0.64378  0.65719  0.99404  1.0000
  O   O21       1.0  0.9859900000000001  0.68027  0.20571  1.0000
  O   O22       1.0  0.31782  0.69808  0.30578  1.0000
  O   O23       1.0  0.87509  0.45013999999999993  0.37712  1.0000
  O   O24       1.0  0.8386600000000001  0.53924  0.44239  1.0000
