data_image0
_chemical_formula_structural       Zn9H96C156N18O36
_chemical_formula_sum              "Zn9 H96 C156 N18 O36"
_cell_length_a       14.03904
_cell_length_b       14.03897
_cell_length_c       24.856999999999996
_cell_angle_alpha    90.00201000000001
_cell_angle_beta     89.99677
_cell_angle_gamma    120.00461

_symmetry_space_group_name_H-M    'P 1'
_symmetry_Int_Tables_number       1

loop_
  _symmetry_equiv_pos_as_xyz
  'x,y,z'

loop_
  _atom_site_type_symbol
  _atom_site_label
  _atom_site_symmetry_multiplicity
  _atom_site_fract_x
  _atom_site_fract_y
  _atom_site_fract_z
  _atom_site_occupancy
  Zn  Zn1       1.0  0.8515099999999998  0.54155  0.9535  1.0000
  Zn  Zn2       1.0  0.69001  0.14844  0.62015  1.0000
  Zn  Zn3       1.0  0.45855  0.31  0.28680999999999995  1.0000
  Zn  Zn4       1.0  0.30999  0.45852  0.04653  1.0000
  Zn  Zn5       1.0  0.5415299999999998  0.8514999999999999  0.37983  1.0000
  Zn  Zn6       1.0  0.14845  0.69  0.71318  1.0000
  Zn  Zn7       1.0  1.999999999998751e-05  0.70007  0.83334  1.0000
  Zn  Zn8       1.0  0.70008  3e-05  0.49987  1.0000
  Zn  Zn9       1.0  0.2999099999999999  0.29992  0.16677999999999996  1.0000
  H   H1        1.0  0.36868  0.73243  0.82926  1.0000
  H   H2        1.0  0.16910000000000006  0.63009  0.8469999999999999  1.0000
  H   H3        1.0  0.2225899999999999  0.78145  0.00326  1.0000
  H   H4        1.0  0.42477  0.8871  0.9851599999999999  1.0000
  H   H5        1.0  0.4512799999999999  0.01407  0.87266  1.0000
  H   H6        1.0  0.54816  0.21462  0.8915999999999997  1.0000
  H   H7        1.0  0.8185199999999999  0.19578  0.96068  1.0000
  H   H8        1.0  0.7216  0.99398  0.94241  1.0000
  H   H9        1.0  0.69456  0.9456699999999999  0.8288099999999999  1.0000
  H   H10       1.0  0.8146099999999997  0.8629  0.8183899999999997  1.0000
  H   H11       1.0  0.6036999999999999  0.60118  0.92508  1.0000
  H   H12       1.0  0.4847499999999999  0.68296  0.9367599999999998  1.0000
  H   H13       1.0  0.6646299999999998  0.56255  0.9885  1.0000
  H   H14       1.0  0.59658  0.61297  0.07084  1.0000
  H   H15       1.0  0.8528499999999999  0.59611  0.16005  1.0000
  H   H16       1.0  0.91551  0.55487  0.07183  1.0000
  H   H17       1.0  0.36381  0.63129  0.4959299999999999  1.0000
  H   H18       1.0  0.4609999999999999  0.8308599999999999  0.51363  1.0000
  H   H19       1.0  0.55889  0.7775100000000001  0.6699  1.0000
  H   H20       1.0  0.46247  0.57533  0.65179  1.0000
  H   H21       1.0  0.5629499999999997  0.5488  0.53934  1.0000
  H   H22       1.0  0.66662  0.45196  0.5582999999999999  1.0000
  H   H23       1.0  0.3774  0.1815  0.62736  1.0000
  H   H24       1.0  0.2724  0.27829  0.6091099999999999  1.0000
  H   H25       1.0  0.25123  0.30552  0.49554  1.0000
  H   H26       1.0  0.048389999999999975  0.18547999999999998  0.48506  1.0000
  H   H27       1.0  0.9975899999999998  0.39639  0.59176  1.0000
  H   H28       1.0  0.19835  0.51528  0.60344  1.0000
  H   H29       1.0  0.8980199999999999  0.3355  0.6551699999999999  1.0000
  H   H30       1.0  0.01648999999999998  0.40355  0.73753  1.0000
  H   H31       1.0  0.74324  0.14716  0.82676  1.0000
  H   H32       1.0  0.63927  0.08446999999999999  0.73851  1.0000
  H   H33       1.0  0.2675799999999999  0.63616  0.16257  1.0000
  H   H34       1.0  0.3699199999999999  0.539  0.18030999999999997  1.0000
  H   H35       1.0  0.21869  0.44116  0.33657  1.0000
  H   H36       1.0  0.11294  0.53749  0.31848999999999994  1.0000
  H   H37       1.0  0.98602  0.4372599999999999  0.20601  1.0000
  H   H38       1.0  0.78545  0.33346  0.22495  1.0000
  H   H39       1.0  0.80418  0.62264  0.29403  1.0000
  H   H40       1.0  0.006000000000000049  0.72764  0.27575999999999995  1.0000
  H   H41       1.0  0.05433000000000001  0.74879  0.16213  1.0000
  H   H42       1.0  0.13712000000000002  0.95162  0.1517  1.0000
  H   H43       1.0  0.3988  0.00249  0.25837999999999994  1.0000
  H   H44       1.0  0.3169599999999999  0.80169  0.27008  1.0000
  H   H45       1.0  0.43738  0.10208  0.32182  1.0000
  H   H46       1.0  0.38701999999999986  0.98356  0.40417999999999993  1.0000
  H   H47       1.0  0.40383999999999987  0.2567  0.49344999999999994  1.0000
  H   H48       1.0  0.44505999999999996  0.36067999999999995  0.4051999999999999  1.0000
  H   H49       1.0  0.63617  0.26758  0.17076  1.0000
  H   H50       1.0  0.5389899999999997  0.36991  0.15303  1.0000
  H   H51       1.0  0.44113  0.2187  0.9967699999999999  1.0000
  H   H52       1.0  0.53749  0.11295999999999999  0.014839999999999997  1.0000
  H   H53       1.0  0.43725999999999987  0.9860299999999999  0.12731  1.0000
  H   H54       1.0  0.33346  0.78545  0.10838  1.0000
  H   H55       1.0  0.6226399999999999  0.8041899999999998  0.0393  1.0000
  H   H56       1.0  0.7276399999999997  0.005999999999999999  0.05756  1.0000
  H   H57       1.0  0.7487799999999999  0.05432  0.1712  1.0000
  H   H58       1.0  0.95161  0.13711  0.18163999999999997  1.0000
  H   H59       1.0  0.0024999999999999883  0.3988  0.07495  1.0000
  H   H60       1.0  0.80171  0.31697  0.06324999999999999  1.0000
  H   H61       1.0  0.10207999999999998  0.43738999999999995  0.011509999999999996  1.0000
  H   H62       1.0  0.98356  0.38703  0.9291599999999999  1.0000
  H   H63       1.0  0.2567  0.40384  0.83989  1.0000
  H   H64       1.0  0.36068  0.44506  0.9281299999999998  1.0000
  H   H65       1.0  0.7324199999999998  0.36868  0.50407  1.0000
  H   H66       1.0  0.63008  0.1691  0.48633  1.0000
  H   H67       1.0  0.78145  0.2226  0.33005999999999996  1.0000
  H   H68       1.0  0.88711  0.42477999999999994  0.34817  1.0000
  H   H69       1.0  0.014069999999999975  0.45127999999999996  0.46067  1.0000
  H   H70       1.0  0.21462  0.54816  0.44172999999999996  1.0000
  H   H71       1.0  0.19578  0.81852  0.3726499999999999  1.0000
  H   H72       1.0  0.9939800000000001  0.7216  0.3909099999999999  1.0000
  H   H73       1.0  0.94566  0.69456  0.50452  1.0000
  H   H74       1.0  0.8628899999999998  0.8146  0.5149399999999998  1.0000
  H   H75       1.0  0.60117  0.6037  0.40825  1.0000
  H   H76       1.0  0.68295  0.48475  0.39657  1.0000
  H   H77       1.0  0.56255  0.6646299999999999  0.34483  1.0000
  H   H78       1.0  0.6129699999999999  0.59658  0.26248999999999995  1.0000
  H   H79       1.0  0.59611  0.85286  0.17327999999999996  1.0000
  H   H80       1.0  0.5548699999999999  0.9155199999999999  0.2615  1.0000
  H   H81       1.0  0.6312999999999999  0.36382  0.83741  1.0000
  H   H82       1.0  0.8308699999999999  0.461  0.8197  1.0000
  H   H83       1.0  0.77749  0.55887  0.66342  1.0000
  H   H84       1.0  0.57532  0.46247  0.68155  1.0000
  H   H85       1.0  0.5488  0.56295  0.794  1.0000
  H   H86       1.0  0.45195999999999986  0.6666299999999998  0.7750299999999998  1.0000
  H   H87       1.0  0.18149999999999994  0.3774  0.70598  1.0000
  H   H88       1.0  0.27829  0.2724  0.72423  1.0000
  H   H89       1.0  0.3055199999999999  0.25122  0.8377999999999998  1.0000
  H   H90       1.0  0.18547  0.04838  0.8482699999999999  1.0000
  H   H91       1.0  0.3963999999999999  0.9975999999999999  0.74157  1.0000
  H   H92       1.0  0.51529  0.19836  0.7298899999999999  1.0000
  H   H93       1.0  0.33549  0.89802  0.67816  1.0000
  H   H94       1.0  0.40355  0.01649  0.5958  1.0000
  H   H95       1.0  0.14716000000000007  0.74324  0.50658  1.0000
  H   H96       1.0  0.08446999999999993  0.63927  0.59483  1.0000
  C   C1        1.0  0.4093  0.8152199999999998  0.90652  1.0000
  C   C2        1.0  0.33764999999999995  0.7417199999999999  0.86783  1.0000
  C   C3        1.0  0.22497000000000006  0.68536  0.8775199999999997  1.0000
  C   C4        1.0  0.18295  0.70042  0.92609  1.0000
  C   C5        1.0  0.25564999999999993  0.7720399999999998  0.9653199999999998  1.0000
  C   C6        1.0  0.36811999999999984  0.8303199999999998  0.9553499999999999  1.0000
  C   C7        1.0  0.5806299999999999  0.9910099999999998  0.9060599999999999  1.0000
  C   C8        1.0  0.53148  0.05375  0.89201  1.0000
  C   C9        1.0  0.58592  0.166  0.9025099999999999  1.0000
  C   C10       1.0  0.6900799999999999  0.21829  0.9269899999999999  1.0000
  C   C11       1.0  0.7385  0.15524  0.9411299999999998  1.0000
  C   C12       1.0  0.6845799999999997  0.04289  0.9309599999999998  1.0000
  C   C13       1.0  0.5837199999999998  0.82203  0.88474  1.0000
  C   C14       1.0  0.67506  0.8701999999999999  0.8498899999999998  1.0000
  C   C15       1.0  0.74218  0.82414  0.8440299999999998  1.0000
  C   C16       1.0  0.7193699999999996  0.7286799999999999  0.8725799999999999  1.0000
  C   C17       1.0  0.6234699999999997  0.6767299999999999  0.9040599999999998  1.0000
  C   C18       1.0  0.55556  0.72177  0.9100699999999999  1.0000
  C   C19       1.0  0.06313999999999995  0.6445  0.93558  1.0000
  C   C20       1.0  0.748  0.33824  0.93746  1.0000
  C   C21       1.0  0.8008799999999999  0.6899  0.87434  1.0000
  C   C22       1.0  0.70434  0.57283  0.027189999999999992  1.0000
  C   C23       1.0  0.66746  0.60095  0.07289  1.0000
  C   C24       1.0  0.7241299999999999  0.61304  0.12112  1.0000
  C   C25       1.0  0.8115299999999998  0.59159  0.12228999999999998  1.0000
  C   C26       1.0  0.8449899999999998  0.5672  0.07404999999999999  1.0000
  C   C27       1.0  0.40602000000000005  0.59074  0.57318  1.0000
  C   C28       1.0  0.40414999999999995  0.66237  0.53449  1.0000
  C   C29       1.0  0.4604199999999999  0.77505  0.5441799999999999  1.0000
  C   C30       1.0  0.51741  0.81711  0.59276  1.0000
  C   C31       1.0  0.5164  0.74443  0.63198  1.0000
  C   C32       1.0  0.4623  0.63197  0.6219899999999999  1.0000
  C   C33       1.0  0.41046  0.41939  0.57275  1.0000
  C   C34       1.0  0.52238  0.4686  0.5587  1.0000
  C   C35       1.0  0.58021  0.41418  0.56919  1.0000
  C   C36       1.0  0.52832  0.31001  0.5936599999999999  1.0000
  C   C37       1.0  0.41683999999999993  0.26152  0.60781  1.0000
  C   C38       1.0  0.35836  0.3154  0.5976499999999999  1.0000
  C   C39       1.0  0.23838999999999994  0.41631999999999997  0.5514399999999999  1.0000
  C   C40       1.0  0.19522  0.325  0.5165999999999998  1.0000
  C   C41       1.0  0.08205  0.2579  0.5107099999999999  1.0000
  C   C42       1.0  0.00937  0.2807  0.53924  1.0000
  C   C43       1.0  0.053339999999999964  0.3765899999999999  0.57073  1.0000
  C   C44       1.0  0.16629  0.44447  0.57676  1.0000
  C   C45       1.0  0.58117  0.9369199999999999  0.6022699999999999  1.0000
  C   C46       1.0  0.5903  0.25204  0.60413  1.0000
  C   C47       1.0  0.88905  0.1992  0.54098  1.0000
  C   C48       1.0  0.8685399999999999  0.29571  0.6938599999999999  1.0000
  C   C49       1.0  0.9335599999999998  0.33261  0.7395599999999999  1.0000
  C   C50       1.0  0.88891  0.27586  0.78777  1.0000
  C   C51       1.0  0.7800399999999998  0.18845999999999996  0.78897  1.0000
  C   C52       1.0  0.7221699999999995  0.15499  0.74073  1.0000
  C   C53       1.0  0.18479  0.59403  0.23984999999999998  1.0000
  C   C54       1.0  0.25828999999999996  0.59587  0.20114999999999994  1.0000
  C   C55       1.0  0.31467  0.53959  0.21085  1.0000
  C   C56       1.0  0.29974999999999996  0.48261999999999994  0.25943  1.0000
  C   C57       1.0  0.22807  0.48362  0.29864  1.0000
  C   C58       1.0  0.16974  0.53774  0.28867  1.0000
  C   C59       1.0  0.009010000000000035  0.58962  0.23943  1.0000
  C   C60       1.0  0.94631  0.47773  0.22537  1.0000
  C   C61       1.0  0.8340499999999998  0.41986  0.23585  1.0000
  C   C62       1.0  0.78174  0.4717  0.26032  1.0000
  C   C63       1.0  0.84474  0.58318  0.27447  1.0000
  C   C64       1.0  0.9570999999999996  0.64169  0.26431999999999994  1.0000
  C   C65       1.0  0.17797000000000002  0.76163  0.21804999999999994  1.0000
  C   C66       1.0  0.1298  0.80479  0.18320999999999996  1.0000
  C   C67       1.0  0.17585999999999985  0.9179599999999999  0.17734999999999998  1.0000
  C   C68       1.0  0.27129  0.99064  0.20592  1.0000
  C   C69       1.0  0.3232499999999999  0.9466799999999999  0.23739  1.0000
  C   C70       1.0  0.27821  0.83374  0.24337999999999996  1.0000
  C   C71       1.0  0.35586  0.41893  0.26896  1.0000
  C   C72       1.0  0.6618  0.40973  0.27079  1.0000
  C   C73       1.0  0.3100399999999999  0.11094  0.20770999999999995  1.0000
  C   C74       1.0  0.42711  0.13151  0.36052  1.0000
  C   C75       1.0  0.39903  0.06649  0.40622  1.0000
  C   C76       1.0  0.38695  0.11109  0.4544499999999999  1.0000
  C   C77       1.0  0.40837  0.21995  0.4556599999999999  1.0000
  C   C78       1.0  0.43272999999999995  0.27781  0.40741999999999995  1.0000
  C   C79       1.0  0.59403  0.18479999999999996  0.09347999999999998  1.0000
  C   C80       1.0  0.59588  0.25829  0.13218  1.0000
  C   C81       1.0  0.53958  0.31466  0.12249  1.0000
  C   C82       1.0  0.48258  0.29972  0.07391999999999999  1.0000
  C   C83       1.0  0.4836  0.22807  0.0347  1.0000
  C   C84       1.0  0.53774  0.16976000000000002  0.044669999999999994  1.0000
  C   C85       1.0  0.58962  0.00901  0.0939  1.0000
  C   C86       1.0  0.47772999999999993  0.94631  0.10795  1.0000
  C   C87       1.0  0.41985999999999996  0.8340599999999999  0.09748  1.0000
  C   C88       1.0  0.4717  0.78174  0.07301  1.0000
  C   C89       1.0  0.5831799999999998  0.84474  0.05886  1.0000
  C   C90       1.0  0.64169  0.9570999999999998  0.06901  1.0000
  C   C91       1.0  0.76163  0.17797  0.11527999999999997  1.0000
  C   C92       1.0  0.8047799999999998  0.1298  0.15012  1.0000
  C   C93       1.0  0.91796  0.17586  0.15597999999999998  1.0000
  C   C94       1.0  0.99064  0.27129  0.12742  1.0000
  C   C95       1.0  0.94669  0.32325  0.09594999999999997  1.0000
  C   C96       1.0  0.83375  0.27821  0.08994999999999997  1.0000
  C   C97       1.0  0.41884999999999994  0.35579999999999995  0.06442  1.0000
  C   C98       1.0  0.40973  0.6618  0.06254  1.0000
  C   C99       1.0  0.11094999999999998  0.31007  0.12565  1.0000
  C   C100      1.0  0.13150999999999996  0.42711999999999994  0.9728099999999998  1.0000
  C   C101      1.0  0.06649000000000002  0.39904  0.9271199999999999  1.0000
  C   C102      1.0  0.11108999999999998  0.38694999999999996  0.87888  1.0000
  C   C103      1.0  0.21995  0.40837  0.87768  1.0000
  C   C104      1.0  0.27781  0.43273  0.92591  1.0000
  C   C105      1.0  0.81521  0.4093  0.42681  1.0000
  C   C106      1.0  0.74171  0.33764  0.4655  1.0000
  C   C107      1.0  0.6853499999999998  0.22495999999999997  0.45579999999999987  1.0000
  C   C108      1.0  0.7003999999999998  0.18295  0.40722999999999987  1.0000
  C   C109      1.0  0.7720399999999998  0.25566  0.36799999999999994  1.0000
  C   C110      1.0  0.83032  0.36812  0.3779699999999999  1.0000
  C   C111      1.0  0.9910000000000001  0.58063  0.42726999999999987  1.0000
  C   C112      1.0  0.053739999999999996  0.53147  0.44132  1.0000
  C   C113      1.0  0.166  0.58592  0.43083  1.0000
  C   C114      1.0  0.21829000000000004  0.69008  0.4063499999999999  1.0000
  C   C115      1.0  0.15524  0.7385  0.3921999999999999  1.0000
  C   C116      1.0  0.042890000000000005  0.6845800000000001  0.40236999999999995  1.0000
  C   C117      1.0  0.82202  0.58372  0.44858999999999993  1.0000
  C   C118      1.0  0.87019  0.67506  0.48343  1.0000
  C   C119      1.0  0.82413  0.74217  0.4892999999999999  1.0000
  C   C120      1.0  0.7286699999999998  0.71937  0.46075  1.0000
  C   C121      1.0  0.67672  0.62347  0.42926999999999993  1.0000
  C   C122      1.0  0.7217599999999997  0.55556  0.42325999999999997  1.0000
  C   C123      1.0  0.64448  0.06315  0.39772999999999986  1.0000
  C   C124      1.0  0.33824  0.748  0.39586999999999994  1.0000
  C   C125      1.0  0.6899199999999998  0.8008899999999999  0.4589799999999999  1.0000
  C   C126      1.0  0.5728299999999997  0.70435  0.30614  1.0000
  C   C127      1.0  0.6009499999999999  0.66746  0.26044  1.0000
  C   C128      1.0  0.61304  0.72414  0.21221  1.0000
  C   C129      1.0  0.59159  0.81153  0.21103999999999998  1.0000
  C   C130      1.0  0.5672  0.8449899999999999  0.25926999999999994  1.0000
  C   C131      1.0  0.59074  0.40602  0.7601599999999997  1.0000
  C   C132      1.0  0.6623699999999998  0.40416  0.7988499999999997  1.0000
  C   C133      1.0  0.77505  0.46042  0.78915  1.0000
  C   C134      1.0  0.8171  0.51739  0.74056  1.0000
  C   C135      1.0  0.74442  0.51639  0.7013499999999998  1.0000
  C   C136      1.0  0.63196  0.46230999999999994  0.71134  1.0000
  C   C137      1.0  0.41938999999999993  0.41045999999999994  0.7605899999999998  1.0000
  C   C138      1.0  0.4685999999999999  0.52238  0.77464  1.0000
  C   C139      1.0  0.41418  0.58022  0.7641499999999998  1.0000
  C   C140      1.0  0.31001  0.52833  0.7396699999999998  1.0000
  C   C141      1.0  0.26153  0.41684  0.7255299999999998  1.0000
  C   C142      1.0  0.3154  0.35836  0.7356899999999998  1.0000
  C   C143      1.0  0.41631999999999997  0.23839999999999997  0.7819  1.0000
  C   C144      1.0  0.325  0.19522  0.81674  1.0000
  C   C145      1.0  0.2579000000000001  0.08205  0.8226299999999999  1.0000
  C   C146      1.0  0.28071  0.00938  0.7940899999999999  1.0000
  C   C147      1.0  0.3766  0.05335  0.7626  1.0000
  C   C148      1.0  0.44448  0.1663  0.75658  1.0000
  C   C149      1.0  0.9369100000000001  0.58112  0.7310399999999999  1.0000
  C   C150      1.0  0.2520499999999999  0.5903  0.7291999999999997  1.0000
  C   C151      1.0  0.19919999999999993  0.88907  0.7923499999999999  1.0000
  C   C152      1.0  0.29570999999999986  0.8685499999999999  0.63948  1.0000
  C   C153      1.0  0.3326099999999999  0.93356  0.5937799999999999  1.0000
  C   C154      1.0  0.27584999999999993  0.8889099999999999  0.54556  1.0000
  C   C155      1.0  0.18846  0.78004  0.54436  1.0000
  C   C156      1.0  0.15498999999999993  0.7221699999999999  0.5926  1.0000
  N   N1        1.0  0.52433  0.87667  0.8957999999999999  1.0000
  N   N2        1.0  0.79316  0.55936  0.02717  1.0000
  N   N3        1.0  0.69657  0.64471  0.17017  1.0000
  N   N4        1.0  0.35244  0.47569  0.56249  1.0000
  N   N5        1.0  0.7662399999999999  0.20687  0.6938399999999998  1.0000
  N   N6        1.0  0.9481200000000001  0.30338  0.8368199999999998  1.0000
  N   N7        1.0  0.12332999999999993  0.64761  0.22915  1.0000
  N   N8        1.0  0.44055  0.2338  0.36052  1.0000
  N   N9        1.0  0.3553099999999999  0.05187  0.5035  1.0000
  N   N10       1.0  0.64761  0.12332999999999998  0.10417999999999997  1.0000
  N   N11       1.0  0.23379999999999998  0.44056  0.9728099999999998  1.0000
  N   N12       1.0  0.051869999999999965  0.35531  0.82984  1.0000
  N   N13       1.0  0.8766700000000001  0.52433  0.43753  1.0000
  N   N14       1.0  0.55936  0.7931599999999999  0.30616  1.0000
  N   N15       1.0  0.6447  0.69657  0.16316  1.0000
  N   N16       1.0  0.4756999999999999  0.35244  0.77085  1.0000
  N   N17       1.0  0.20686000000000004  0.76625  0.6394899999999999  1.0000
  N   N18       1.0  0.30338  0.94813  0.49651  1.0000
  O   O1        1.0  0.9956499999999999  0.60523  0.8943299999999998  1.0000
  O   O2        1.0  0.023130000000000008  0.6326  0.98213  1.0000
  O   O3        1.0  0.7044299999999998  0.39527  0.9232299999999998  1.0000
  O   O4        1.0  0.8428099999999997  0.38503999999999994  0.9605999999999999  1.0000
  O   O5        1.0  0.87204  0.7211799999999999  0.8359899999999998  1.0000
  O   O6        1.0  0.7959499999999999  0.633  0.9149499999999998  1.0000
  O   O7        1.0  0.60969  0.00438  0.561  1.0000
  O   O8        1.0  0.6089099999999998  0.9769599999999999  0.64884  1.0000
  O   O9        1.0  0.69089  0.29553  0.5898799999999998  1.0000
  O   O10       1.0  0.54221  0.15723  0.62726  1.0000
  O   O11       1.0  0.84907  0.12818  0.50258  1.0000
  O   O12       1.0  0.83715  0.20402  0.58165  1.0000
  O   O13       1.0  0.39486  0.39047  0.22768999999999995  1.0000
  O   O14       1.0  0.3681  0.39115  0.31552  1.0000
  O   O15       1.0  0.6046499999999999  0.30914  0.25656  1.0000
  O   O16       1.0  0.6151499999999999  0.45787  0.29392999999999997  1.0000
  O   O17       1.0  0.2786  0.15075  0.16937999999999995  1.0000
  O   O18       1.0  0.36699  0.16294  0.24827999999999995  1.0000
  O   O19       1.0  0.39037  0.39476  0.10569  1.0000
  O   O20       1.0  0.3910899999999999  0.36806  0.01786  1.0000
  O   O21       1.0  0.30912999999999996  0.60465  0.07678  1.0000
  O   O22       1.0  0.45787000000000005  0.61514  0.0394  1.0000
  O   O23       1.0  0.15078  0.27872  0.16399999999999995  1.0000
  O   O24       1.0  0.16294999999999998  0.36696999999999996  0.08505999999999997  1.0000
  O   O25       1.0  0.60517  0.99565  0.4389699999999999  1.0000
  O   O26       1.0  0.6326099999999998  0.02314  0.3511799999999999  1.0000
  O   O27       1.0  0.39525999999999994  0.7044299999999999  0.41011  1.0000
  O   O28       1.0  0.38503999999999994  0.84282  0.37273  1.0000
  O   O29       1.0  0.7212399999999999  0.8720799999999999  0.49730999999999986  1.0000
  O   O30       1.0  0.63299  0.79595  0.41837999999999986  1.0000
  O   O31       1.0  0.004379999999999985  0.60964  0.7723  1.0000
  O   O32       1.0  0.97695  0.60885  0.6844699999999998  1.0000
  O   O33       1.0  0.29552  0.69089  0.74345  1.0000
  O   O34       1.0  0.15724  0.54221  0.7060699999999999  1.0000
  O   O35       1.0  0.12814  0.84909  0.8307299999999999  1.0000
  O   O36       1.0  0.20403  0.8371599999999999  0.75168  1.0000
