data_image0
_chemical_formula_structural       Ca8Y8H96C96O120
_chemical_formula_sum              "Ca8 Y8 H96 C96 O120"
_cell_length_a       18.84377
_cell_length_b       18.84777
_cell_length_c       18.84776
_cell_angle_alpha    59.98219999999999
_cell_angle_beta     59.97398
_cell_angle_gamma    59.97399

_space_group_name_H-M_alt    "P 1"
_space_group_IT_number       1

loop_
  _space_group_symop_operation_xyz
  'x, y, z'

loop_
  _atom_site_type_symbol
  _atom_site_label
  _atom_site_symmetry_multiplicity
  _atom_site_fract_x
  _atom_site_fract_y
  _atom_site_fract_z
  _atom_site_occupancy
  Ca  Ca1       1.0  0.5  0.5  0.5  1.0000
  Ca  Ca2       1.0  0.5  0.5  0.0  1.0000
  Ca  Ca3       1.0  0.5  0.0  0.0  1.0000
  Ca  Ca4       1.0  0.0  0.5  0.0  1.0000
  Ca  Ca5       1.0  0.0  0.0  0.5  1.0000
  Ca  Ca6       1.0  0.0  0.0  0.0  1.0000
  Ca  Ca7       1.0  0.0  0.5  0.5  1.0000
  Ca  Ca8       1.0  0.5  0.0  0.5  1.0000
  Y   Y1        1.0  0.25  0.75007  0.24993  1.0000
  Y   Y2        1.0  0.7498700000000001  0.25001  0.25009  1.0000
  Y   Y3        1.0  0.7500000000000001  0.75001  0.24999  1.0000
  Y   Y4        1.0  0.75013  0.7499199999999997  0.7499900000000003  1.0000
  Y   Y5        1.0  0.7500000000000001  0.24992999999999993  0.7500700000000002  1.0000
  Y   Y6        1.0  0.25013000000000013  0.74999  0.74992  1.0000
  Y   Y7        1.0  0.25  0.24998999999999993  0.7500100000000002  1.0000
  Y   Y8        1.0  0.24987  0.25009  0.25001  1.0000
  H   H1        1.0  0.29455000000000003  0.6638399999999999  0.4874100000000001  1.0000
  H   H2        1.0  0.36672000000000005  0.7197299999999998  0.39479  1.0000
  H   H3        1.0  0.66355  0.29437  0.054390000000000015  1.0000
  H   H4        1.0  0.72001  0.36603999999999987  0.01877  1.0000
  H   H5        1.0  0.5545999999999995  0.98764  0.16351000000000004  1.0000
  H   H6        1.0  0.51822  0.89566  0.22009000000000006  1.0000
  H   H7        1.0  0.98801  0.55382  0.7941600000000002  1.0000
  H   H8        1.0  0.89539  0.51838  0.86622  1.0000
  H   H9        1.0  0.55386  0.29420999999999997  0.4879900000000001  1.0000
  H   H10       1.0  0.5183299999999998  0.36627  0.3954  1.0000
  H   H11       1.0  0.98769  0.66346  0.05465  1.0000
  H   H12       1.0  0.89562  0.72005  0.018280000000000005  1.0000
  H   H13       1.0  0.29434  0.55445  0.16350000000000006  1.0000
  H   H14       1.0  0.36607  0.51879  0.21997  1.0000
  H   H15       1.0  0.6638  0.9874300000000001  0.79456  1.0000
  H   H16       1.0  0.7198099999999998  0.8947899999999998  0.8666900000000002  1.0000
  H   H17       1.0  0.66345  0.55467  0.48761  1.0000
  H   H18       1.0  0.72009  0.51824  0.3956  1.0000
  H   H19       1.0  0.29420000000000013  0.9879299999999999  0.05391000000000001  1.0000
  H   H20       1.0  0.36631  0.89533  0.0184  1.0000
  H   H21       1.0  0.98741  0.29457999999999995  0.16381000000000007  1.0000
  H   H22       1.0  0.89475  0.36671  0.21977000000000005  1.0000
  H   H23       1.0  0.5544099999999997  0.66353  0.7944100000000002  1.0000
  H   H24       1.0  0.5187700000000001  0.7199999999999999  0.86608  1.0000
  H   H25       1.0  0.20566999999999988  0.8365  0.4455500000000001  1.0000
  H   H26       1.0  0.13392999999999994  0.78003  0.48121  1.0000
  H   H27       1.0  0.8362099999999999  0.20544  0.01257  1.0000
  H   H28       1.0  0.7802000000000001  0.13332  0.10521000000000003  1.0000
  H   H29       1.0  0.9461399999999998  0.51201  0.70579  1.0000
  H   H30       1.0  0.9816700000000002  0.6045999999999999  0.6337400000000002  1.0000
  H   H31       1.0  0.51232  0.94535  0.3365400000000001  1.0000
  H   H32       1.0  0.60438  0.9817200000000001  0.27995  1.0000
  H   H33       1.0  0.9456  0.20558999999999997  0.3364700000000001  1.0000
  H   H34       1.0  0.98123  0.13391999999999998  0.28  1.0000
  H   H35       1.0  0.5125899999999998  0.83619  0.7054200000000002  1.0000
  H   H36       1.0  0.60525  0.78023  0.6333  1.0000
  H   H37       1.0  0.20581  0.94609  0.012070000000000004  1.0000
  H   H38       1.0  0.13370000000000007  0.9815999999999999  0.10467  1.0000
  H   H39       1.0  0.83655  0.51239  0.44533  1.0000
  H   H40       1.0  0.77991  0.6044  0.4817600000000001  1.0000
  H   H41       1.0  0.83645  0.9456099999999995  0.7056300000000002  1.0000
  H   H42       1.0  0.78  0.98123  0.6339700000000003  1.0000
  H   H43       1.0  0.20545999999999995  0.5125899999999999  0.3361600000000001  1.0000
  H   H44       1.0  0.13329000000000005  0.60521  0.28027  1.0000
  H   H45       1.0  0.512  0.20583999999999994  0.4461900000000001  1.0000
  H   H46       1.0  0.6046100000000001  0.13379  0.48162  1.0000
  H   H47       1.0  0.9454  0.83649  0.012360000000000003  1.0000
  H   H48       1.0  0.98179  0.7799099999999999  0.10435000000000001  1.0000
  H   H49       1.0  0.7054600000000002  0.33615999999999985  0.5126  1.0000
  H   H50       1.0  0.63329  0.28027  0.60521  1.0000
  H   H51       1.0  0.33644999999999986  0.7056300000000001  0.94561  1.0000
  H   H52       1.0  0.2799999999999998  0.6339699999999999  0.98123  1.0000
  H   H53       1.0  0.44539999999999996  0.012359999999999984  0.83649  1.0000
  H   H54       1.0  0.4817899999999999  0.10433999999999993  0.7799100000000002  1.0000
  H   H55       1.0  0.012  0.44619  0.20584000000000005  1.0000
  H   H56       1.0  0.10461000000000012  0.48161999999999977  0.13379  1.0000
  H   H57       1.0  0.44614  0.70579  0.51201  1.0000
  H   H58       1.0  0.4816699999999998  0.63373  0.6046000000000001  1.0000
  H   H59       1.0  0.012320000000000027  0.33654  0.94536  1.0000
  H   H60       1.0  0.10437999999999982  0.2799499999999999  0.9817200000000003  1.0000
  H   H61       1.0  0.7056699999999998  0.44555  0.8365000000000002  1.0000
  H   H62       1.0  0.63393  0.48121  0.78004  1.0000
  H   H63       1.0  0.33620999999999995  0.01256999999999999  0.20544  1.0000
  H   H64       1.0  0.2802  0.10521  0.13332  1.0000
  H   H65       1.0  0.33655  0.44533  0.51239  1.0000
  H   H66       1.0  0.27991  0.48176  0.6044  1.0000
  H   H67       1.0  0.7058  0.012069999999999978  0.9460900000000001  1.0000
  H   H68       1.0  0.6336999999999998  0.10467  0.9816  1.0000
  H   H69       1.0  0.01258999999999997  0.7054199999999999  0.8361900000000002  1.0000
  H   H70       1.0  0.10524999999999994  0.63329  0.78023  1.0000
  H   H71       1.0  0.4456  0.33646999999999994  0.20559  1.0000
  H   H72       1.0  0.48122999999999994  0.28  0.13392  1.0000
  H   H73       1.0  0.79434  0.16349999999999995  0.5544600000000002  1.0000
  H   H74       1.0  0.8660699999999998  0.21997000000000003  0.51879  1.0000
  H   H75       1.0  0.16379999999999983  0.7945600000000002  0.98743  1.0000
  H   H76       1.0  0.2198099999999998  0.8666800000000001  0.8948  1.0000
  H   H77       1.0  0.05386  0.48799  0.29421  1.0000
  H   H78       1.0  0.018329999999999975  0.3954  0.3662700000000001  1.0000
  H   H79       1.0  0.48769  0.05464999999999992  0.6634600000000003  1.0000
  H   H80       1.0  0.39562  0.018279999999999987  0.72005  1.0000
  H   H81       1.0  0.054409999999999896  0.7944100000000001  0.66353  1.0000
  H   H82       1.0  0.01877000000000004  0.8660799999999998  0.7200000000000002  1.0000
  H   H83       1.0  0.48741  0.16381  0.29458  1.0000
  H   H84       1.0  0.39474999999999993  0.21977  0.36671  1.0000
  H   H85       1.0  0.7942  0.05391000000000002  0.98794  1.0000
  H   H86       1.0  0.86631  0.01839999999999995  0.8953300000000002  1.0000
  H   H87       1.0  0.16344999999999998  0.48761  0.55467  1.0000
  H   H88       1.0  0.2200900000000002  0.3956  0.51824  1.0000
  H   H89       1.0  0.16354999999999992  0.05438999999999996  0.29437000000000013  1.0000
  H   H90       1.0  0.22000999999999996  0.01876999999999997  0.36604000000000003  1.0000
  H   H91       1.0  0.79455  0.48741  0.66384  1.0000
  H   H92       1.0  0.8667199999999997  0.39479000000000003  0.71973  1.0000
  H   H93       1.0  0.4880099999999997  0.79416  0.5538200000000002  1.0000
  H   H94       1.0  0.39539  0.8662199999999999  0.51838  1.0000
  H   H95       1.0  0.054599999999999996  0.16350999999999988  0.9876400000000001  1.0000
  H   H96       1.0  0.01821999999999995  0.22008999999999998  0.8956600000000002  1.0000
  C   C1        1.0  0.31903000000000004  0.68939  0.4160500000000001  1.0000
  C   C2        1.0  0.36623  0.61536  0.37819  1.0000
  C   C3        1.0  0.68931  0.31868  0.07566  1.0000
  C   C4        1.0  0.61533  0.36613  0.14018  1.0000
  C   C5        1.0  0.5754599999999999  0.91629  0.18941  1.0000
  C   C6        1.0  0.63991  0.878  0.11559000000000003  1.0000
  C   C7        1.0  0.9165899999999999  0.57525  0.8188000000000002  1.0000
  C   C8        1.0  0.87856  0.63996  0.8661500000000002  1.0000
  C   C9        1.0  0.57523  0.31883999999999996  0.41659  1.0000
  C   C10       1.0  0.63998  0.36617000000000005  0.37849  1.0000
  C   C11       1.0  0.9163100000000001  0.68938  0.07548000000000003  1.0000
  C   C12       1.0  0.8779999999999999  0.6155899999999997  0.13993  1.0000
  C   C13       1.0  0.3186700000000002  0.5756699999999998  0.1893  1.0000
  C   C14       1.0  0.36613  0.64017  0.11539  1.0000
  C   C15       1.0  0.68941  0.91607  0.81904  1.0000
  C   C16       1.0  0.6153900000000001  0.8781699999999997  0.86622  1.0000
  C   C17       1.0  0.6894100000000001  0.5754799999999998  0.41626  1.0000
  C   C18       1.0  0.6155800000000001  0.6399099999999998  0.37797  1.0000
  C   C19       1.0  0.3188399999999999  0.91654  0.07528  1.0000
  C   C20       1.0  0.3662  0.87848  0.13999  1.0000
  C   C21       1.0  0.9160299999999999  0.31903  0.18941  1.0000
  C   C22       1.0  0.87816  0.36621  0.1154  1.0000
  C   C23       1.0  0.5756600000000002  0.6893299999999998  0.81869  1.0000
  C   C24       1.0  0.64019  0.6153899999999997  0.86612  1.0000
  C   C25       1.0  0.18134000000000003  0.8106999999999998  0.4243300000000001  1.0000
  C   C26       1.0  0.1338699999999999  0.8846100000000001  0.35983  1.0000
  C   C27       1.0  0.8106  0.18097  0.08393  1.0000
  C   C28       1.0  0.8846099999999999  0.13378999999999994  0.12183  1.0000
  C   C29       1.0  0.9247699999999999  0.58341  0.68117  1.0000
  C   C30       1.0  0.86002  0.62151  0.63383  1.0000
  C   C31       1.0  0.58369  0.9245199999999999  0.31062  1.0000
  C   C32       1.0  0.6219999999999998  0.8600799999999998  0.3844100000000001  1.0000
  C   C33       1.0  0.92435  0.18130999999999997  0.31067  1.0000
  C   C34       1.0  0.85982  0.13388  0.38461  1.0000
  C   C35       1.0  0.5839699999999999  0.8105899999999999  0.6809700000000002  1.0000
  C   C36       1.0  0.6218400000000001  0.88461  0.6338  1.0000
  C   C37       1.0  0.18116000000000002  0.92472  0.08346  1.0000
  C   C38       1.0  0.13379999999999986  0.86001  0.12152000000000003  1.0000
  C   C39       1.0  0.8106000000000001  0.58374  0.42453  1.0000
  C   C40       1.0  0.88442  0.62204  0.36009  1.0000
  C   C41       1.0  0.8106999999999999  0.9243499999999999  0.6813200000000003  1.0000
  C   C42       1.0  0.8846800000000002  0.8598299999999999  0.63387  1.0000
  C   C43       1.0  0.18096999999999996  0.58395  0.31062  1.0000
  C   C44       1.0  0.13377999999999998  0.62181  0.38464  1.0000
  C   C45       1.0  0.58341  0.18120999999999998  0.42475  1.0000
  C   C46       1.0  0.6214500000000001  0.13385  0.36004  1.0000
  C   C47       1.0  0.9245399999999999  0.81059  0.08371  1.0000
  C   C48       1.0  0.8600899999999999  0.88441  0.12200000000000003  1.0000
  C   C49       1.0  0.6809699999999999  0.31061999999999995  0.58396  1.0000
  C   C50       1.0  0.63378  0.38464  0.62181  1.0000
  C   C51       1.0  0.3106999999999998  0.68132  0.9243500000000002  1.0000
  C   C52       1.0  0.3846799999999999  0.6338699999999999  0.8598300000000002  1.0000
  C   C53       1.0  0.42454000000000003  0.08370999999999992  0.81059  1.0000
  C   C54       1.0  0.36008999999999985  0.1219999999999999  0.8844100000000003  1.0000
  C   C55       1.0  0.08340999999999998  0.42475  0.18121  1.0000
  C   C56       1.0  0.12145000000000003  0.36003999999999997  0.13385000000000005  1.0000
  C   C57       1.0  0.42477000000000004  0.68117  0.58341  1.0000
  C   C58       1.0  0.36002  0.6338299999999998  0.62151  1.0000
  C   C59       1.0  0.08368999999999994  0.31062  0.92452  1.0000
  C   C60       1.0  0.12199999999999993  0.3844099999999999  0.8600800000000002  1.0000
  C   C61       1.0  0.68134  0.42433  0.8107000000000001  1.0000
  C   C62       1.0  0.6338699999999998  0.35983  0.88462  1.0000
  C   C63       1.0  0.31060000000000004  0.08393  0.18097  1.0000
  C   C64       1.0  0.38461  0.12183000000000001  0.13379  1.0000
  C   C65       1.0  0.31059999999999993  0.4245300000000001  0.58374  1.0000
  C   C66       1.0  0.38442  0.36008999999999997  0.62204  1.0000
  C   C67       1.0  0.6811599999999999  0.08345999999999992  0.9247200000000002  1.0000
  C   C68       1.0  0.6337999999999999  0.12153000000000001  0.86001  1.0000
  C   C69       1.0  0.08396999999999985  0.68097  0.81059  1.0000
  C   C70       1.0  0.12183999999999998  0.6338  0.88461  1.0000
  C   C71       1.0  0.42435  0.31067  0.18131  1.0000
  C   C72       1.0  0.3598199999999999  0.38461  0.13388  1.0000
  C   C73       1.0  0.8186699999999999  0.1892999999999999  0.5756700000000002  1.0000
  C   C74       1.0  0.8661299999999998  0.11538999999999999  0.64017  1.0000
  C   C75       1.0  0.18940999999999994  0.8190399999999999  0.9160700000000003  1.0000
  C   C76       1.0  0.11539000000000016  0.8662099999999997  0.8781700000000002  1.0000
  C   C77       1.0  0.07523000000000019  0.4165899999999998  0.31884  1.0000
  C   C78       1.0  0.13997999999999997  0.37849  0.36617  1.0000
  C   C79       1.0  0.41631  0.07548000000000002  0.68939  1.0000
  C   C80       1.0  0.37800000000000017  0.13992999999999997  0.6156  1.0000
  C   C81       1.0  0.07566000000000002  0.81869  0.68933  1.0000
  C   C82       1.0  0.14018999999999993  0.86612  0.61539  1.0000
  C   C83       1.0  0.41603  0.18941  0.31903  1.0000
  C   C84       1.0  0.37816000000000005  0.1154  0.36621  1.0000
  C   C85       1.0  0.8188399999999998  0.07527999999999997  0.9165400000000002  1.0000
  C   C86       1.0  0.8662  0.13998999999999995  0.8784800000000003  1.0000
  C   C87       1.0  0.18941  0.41626  0.57548  1.0000
  C   C88       1.0  0.11558000000000003  0.37795999999999996  0.63992  1.0000
  C   C89       1.0  0.18930999999999995  0.07564999999999998  0.31868  1.0000
  C   C90       1.0  0.1153300000000001  0.14016999999999988  0.36613  1.0000
  C   C91       1.0  0.81903  0.41605  0.68939  1.0000
  C   C92       1.0  0.86623  0.37818999999999986  0.6153600000000002  1.0000
  C   C93       1.0  0.4165900000000001  0.8187999999999999  0.57525  1.0000
  C   C94       1.0  0.37855999999999995  0.86615  0.63996  1.0000
  C   C95       1.0  0.07546000000000003  0.18940999999999997  0.91629  1.0000
  C   C96       1.0  0.13991  0.11558999999999997  0.878  1.0000
  O   O1        1.0  0.35019999999999996  0.62733  0.31472  1.0000
  O   O2        1.0  0.41779  0.54724  0.41467  1.0000
  O   O3        1.0  0.62714  0.35  0.20783  1.0000
  O   O4        1.0  0.54735  0.41797  0.12005  1.0000
  O   O5        1.0  0.7075800000000001  0.81466  0.1274  1.0000
  O   O6        1.0  0.6197700000000002  0.91419  0.04763  1.0000
  O   O7        1.0  0.81507  0.7075  0.85006  1.0000
  O   O8        1.0  0.91475  0.6202  0.91787  1.0000
  O   O9        1.0  0.7074499999999999  0.35015999999999997  0.3149200000000001  1.0000
  O   O10       1.0  0.6203000000000001  0.41781  0.41475  1.0000
  O   O11       1.0  0.81469  0.62739  0.2076  1.0000
  O   O12       1.0  0.9141899999999998  0.54764  0.11976  1.0000
  O   O13       1.0  0.3500800000000001  0.7077599999999997  0.12727  1.0000
  O   O14       1.0  0.41791  0.62008  0.04739  1.0000
  O   O15       1.0  0.6273799999999999  0.8146900000000001  0.8502  1.0000
  O   O16       1.0  0.54722  0.9146899999999999  0.9177600000000002  1.0000
  O   O17       1.0  0.6273499999999997  0.7076  0.31468  1.0000
  O   O18       1.0  0.5476199999999999  0.61974  0.4141600000000001  1.0000
  O   O19       1.0  0.35011999999999993  0.81498  0.20751  1.0000
  O   O20       1.0  0.41791  0.91469  0.12024  1.0000
  O   O21       1.0  0.81471  0.3501399999999999  0.12738  1.0000
  O   O22       1.0  0.91464  0.41777  0.04727  1.0000
  O   O23       1.0  0.7078199999999999  0.62725  0.84999  1.0000
  O   O24       1.0  0.6200799999999999  0.54742  0.91793  1.0000
  O   O25       1.0  0.14993000000000004  0.87273  0.29224  1.0000
  O   O26       1.0  0.08209000000000005  0.9526099999999998  0.3799200000000001  1.0000
  O   O27       1.0  0.8726200000000001  0.1498  0.18531  1.0000
  O   O28       1.0  0.9527800000000002  0.08224999999999999  0.08531000000000002  1.0000
  O   O29       1.0  0.7925600000000002  0.6850799999999998  0.64984  1.0000
  O   O30       1.0  0.8797100000000002  0.58525  0.5822  1.0000
  O   O31       1.0  0.6853199999999999  0.7924  0.3726100000000001  1.0000
  O   O32       1.0  0.5858200000000001  0.8802499999999999  0.45236  1.0000
  O   O33       1.0  0.7921799999999998  0.15001  0.37275  1.0000
  O   O34       1.0  0.8799199999999998  0.08207999999999997  0.4525800000000001  1.0000
  O   O35       1.0  0.6852999999999999  0.8726199999999998  0.64986  1.0000
  O   O36       1.0  0.58536  0.9527299999999997  0.58223  1.0000
  O   O37       1.0  0.14988999999999997  0.79249  0.18502  1.0000
  O   O38       1.0  0.08210000000000006  0.8797599999999999  0.08531000000000002  1.0000
  O   O39       1.0  0.8726500000000003  0.68532  0.2924  1.0000
  O   O40       1.0  0.9523800000000004  0.5858499999999999  0.3802600000000001  1.0000
  O   O41       1.0  0.8728599999999999  0.7921700000000002  0.65  1.0000
  O   O42       1.0  0.9526499999999999  0.8799499999999999  0.5820300000000003  1.0000
  O   O43       1.0  0.14980000000000004  0.6852899999999997  0.3726700000000001  1.0000
  O   O44       1.0  0.08221000000000002  0.58533  0.45276  1.0000
  O   O45       1.0  0.6849399999999998  0.14994000000000002  0.29251  1.0000
  O   O46       1.0  0.5852500000000002  0.08213  0.3798  1.0000
  O   O47       1.0  0.7924299999999997  0.8726000000000002  0.18534  1.0000
  O   O48       1.0  0.8802399999999998  0.9523700000000002  0.08582  1.0000
  O   O49       1.0  0.6497999999999998  0.37267000000000006  0.68529  1.0000
  O   O50       1.0  0.5822099999999999  0.45275999999999983  0.58533  1.0000
  O   O51       1.0  0.37287000000000003  0.6499999999999999  0.79217  1.0000
  O   O52       1.0  0.45264999999999994  0.58203  0.8799500000000002  1.0000
  O   O53       1.0  0.29243  0.18533999999999998  0.8726  1.0000
  O   O54       1.0  0.3802399999999999  0.08581999999999991  0.9523700000000003  1.0000
  O   O55       1.0  0.18494  0.29251  0.14994  1.0000
  O   O56       1.0  0.08525  0.3798  0.08213  1.0000
  O   O57       1.0  0.29254999999999987  0.6498399999999999  0.6850800000000002  1.0000
  O   O58       1.0  0.3796999999999998  0.5821999999999999  0.5852500000000003  1.0000
  O   O59       1.0  0.1853200000000001  0.37260999999999994  0.7924  1.0000
  O   O60       1.0  0.08580999999999993  0.45236000000000004  0.88025  1.0000
  O   O61       1.0  0.6499199999999999  0.29223999999999994  0.87273  1.0000
  O   O62       1.0  0.5820899999999999  0.37991999999999976  0.95261  1.0000
  O   O63       1.0  0.37262  0.18531  0.1498  1.0000
  O   O64       1.0  0.45278  0.08531  0.08225  1.0000
  O   O65       1.0  0.3726500000000002  0.2923999999999998  0.68532  1.0000
  O   O66       1.0  0.45238000000000006  0.3802599999999999  0.5858500000000002  1.0000
  O   O67       1.0  0.6498799999999999  0.18501999999999993  0.7924900000000002  1.0000
  O   O68       1.0  0.5820999999999998  0.08531999999999991  0.8797600000000002  1.0000
  O   O69       1.0  0.18529999999999994  0.64986  0.87262  1.0000
  O   O70       1.0  0.08535999999999996  0.58223  0.95273  1.0000
  O   O71       1.0  0.2921799999999999  0.37275  0.15001000000000006  1.0000
  O   O72       1.0  0.37992000000000004  0.45258  0.08208  1.0000
  O   O73       1.0  0.8500800000000001  0.12727000000000002  0.70776  1.0000
  O   O74       1.0  0.9179099999999999  0.047389999999999925  0.6200900000000003  1.0000
  O   O75       1.0  0.12738000000000005  0.8501999999999998  0.8146900000000002  1.0000
  O   O76       1.0  0.04721999999999999  0.91775  0.91469  1.0000
  O   O77       1.0  0.20745000000000002  0.31491999999999987  0.35016000000000014  1.0000
  O   O78       1.0  0.12029999999999991  0.41475000000000006  0.41781  1.0000
  O   O79       1.0  0.31468999999999997  0.20760000000000003  0.62739  1.0000
  O   O80       1.0  0.4141900000000001  0.11975  0.54764  1.0000
  O   O81       1.0  0.2078200000000002  0.8499899999999997  0.62726  1.0000
  O   O82       1.0  0.12008999999999988  0.91792  0.5474200000000002  1.0000
  O   O83       1.0  0.31470999999999993  0.12737999999999997  0.3501400000000001  1.0000
  O   O84       1.0  0.4146399999999999  0.04727000000000001  0.41777  1.0000
  O   O85       1.0  0.8501199999999998  0.20750999999999994  0.8149800000000003  1.0000
  O   O86       1.0  0.9179  0.12025000000000002  0.91469  1.0000
  O   O87       1.0  0.12735000000000002  0.31467999999999985  0.7076  1.0000
  O   O88       1.0  0.04761999999999997  0.4141499999999998  0.6197400000000002  1.0000
  O   O89       1.0  0.12714  0.20783  0.35  1.0000
  O   O90       1.0  0.047349999999999975  0.12004999999999993  0.4179700000000001  1.0000
  O   O91       1.0  0.8502000000000006  0.31471  0.62733  1.0000
  O   O92       1.0  0.9177900000000001  0.4146699999999999  0.54724  1.0000
  O   O93       1.0  0.31506999999999996  0.85006  0.7075  1.0000
  O   O94       1.0  0.4147500000000001  0.9178699999999996  0.6202  1.0000
  O   O95       1.0  0.20757999999999993  0.12739999999999993  0.8146700000000002  1.0000
  O   O96       1.0  0.11976999999999985  0.04762999999999991  0.9141900000000002  1.0000
  O   O97       1.0  0.25023000000000006  0.75014  0.38116  1.0000
  O   O98       1.0  0.7498699999999999  0.24979  0.1188  1.0000
  O   O99       1.0  0.6185899999999999  0.88136  0.25003  1.0000
  O   O100      1.0  0.88166  0.61837  0.74998  1.0000
  O   O101      1.0  0.61835  0.25002  0.38164  1.0000
  O   O102      1.0  0.8814099999999999  0.74997  0.11864  1.0000
  O   O103      1.0  0.24977999999999995  0.6188399999999998  0.24986000000000005  1.0000
  O   O104      1.0  0.7501300000000001  0.8811999999999997  0.75021  1.0000
  O   O105      1.0  0.7500000000000001  0.6186199999999997  0.38138  1.0000
  O   O106      1.0  0.25  0.88162  0.11838000000000001  1.0000
  O   O107      1.0  0.8811799999999999  0.2502  0.25012  1.0000
  O   O108      1.0  0.6188299999999999  0.74988  0.7498000000000002  1.0000
  O   O109      1.0  0.7497799999999999  0.24986  0.61884  1.0000
  O   O110      1.0  0.25012999999999996  0.75021  0.8812  1.0000
  O   O111      1.0  0.3814099999999999  0.11863999999999993  0.7499700000000002  1.0000
  O   O112      1.0  0.11835000000000007  0.38163999999999987  0.25002  1.0000
  O   O113      1.0  0.38166000000000005  0.74998  0.61837  1.0000
  O   O114      1.0  0.1186  0.25003  0.88136  1.0000
  O   O115      1.0  0.7502299999999998  0.38116  0.7501500000000001  1.0000
  O   O116      1.0  0.24987  0.11880000000000002  0.24979  1.0000
  O   O117      1.0  0.25  0.38138  0.61862  1.0000
  O   O118      1.0  0.75  0.11837999999999996  0.8816200000000002  1.0000
  O   O119      1.0  0.11882999999999994  0.7498000000000001  0.74988  1.0000
  O   O120      1.0  0.38118  0.25012  0.2502  1.0000
