data_image0
_chemical_formula_structural       Cd12B8H108C132N64O24
_chemical_formula_sum              "Cd12 B8 H108 C132 N64 O24"
_cell_length_a       14.04982
_cell_length_b       15.97465
_cell_length_c       25.43834
_cell_angle_alpha    79.88398
_cell_angle_beta     74.02985
_cell_angle_gamma    63.85052999999999

_symmetry_space_group_name_H-M    'P 1'
_symmetry_Int_Tables_number       1

loop_
  _symmetry_equiv_pos_as_xyz
  'x,y,z'

loop_
  _atom_site_type_symbol
  _atom_site_label
  _atom_site_symmetry_multiplicity
  _atom_site_fract_x
  _atom_site_fract_y
  _atom_site_fract_z
  _atom_site_occupancy
  Cd  Cd1       1.0  0.57913  0.75007  0.84656  1.0000
  Cd  Cd2       1.0  0.03331999999999997  0.25542  0.94518  1.0000
  Cd  Cd3       1.0  0.6499600000000003  0.9892600000000001  0.79749  1.0000
  Cd  Cd4       1.0  0.17584000000000008  0.75025  0.65362  1.0000
  Cd  Cd5       1.0  0.23350999999999997  0.2452400000000001  0.55457  1.0000
  Cd  Cd6       1.0  0.43724  0.51061  0.70175  1.0000
  Cd  Cd7       1.0  0.42085999999999996  0.24994  0.15344  1.0000
  Cd  Cd8       1.0  0.9666700000000003  0.74459  0.05482  1.0000
  Cd  Cd9       1.0  0.35003  0.010750000000000001  0.20251  1.0000
  Cd  Cd10      1.0  0.8241600000000001  0.24976  0.34638  1.0000
  Cd  Cd11      1.0  0.7664799999999998  0.7547699999999999  0.44543  1.0000
  Cd  Cd12      1.0  0.56275  0.4894000000000001  0.29825  1.0000
  B   B1        1.0  0.6825500000000001  0.5779  0.0599  1.0000
  B   B2        1.0  0.11097999999999998  0.9191800000000002  0.84691  1.0000
  B   B3        1.0  0.31982999999999995  0.92228  0.44017999999999996  1.0000
  B   B4        1.0  0.87703  0.58152  0.65309  1.0000
  B   B5        1.0  0.31743999999999983  0.4221000000000001  0.9401  1.0000
  B   B6        1.0  0.8890100000000002  0.08082000000000003  0.15309  1.0000
  B   B7        1.0  0.68017  0.07773  0.55982  1.0000
  B   B8        1.0  0.12296999999999987  0.4184900000000002  0.34691  1.0000
  H   H1        1.0  0.4219999999999998  0.6338200000000003  0.8559199999999999  1.0000
  H   H2        1.0  0.13895000000000007  0.21111000000000002  0.8133499999999998  1.0000
  H   H3        1.0  0.0037200000000000024  0.73645  0.76614  1.0000
  H   H4        1.0  0.8607  0.4816600000000001  0.11733999999999999  1.0000
  H   H5        1.0  0.18485000000000001  0.04615000000000001  0.7688999999999999  1.0000
  H   H6        1.0  0.02101999999999998  0.04383  0.93556  1.0000
  H   H7        1.0  0.1291999999999999  0.4380300000000001  0.80054  1.0000
  H   H8        1.0  0.70965  0.4764500000000001  0.16504  1.0000
  H   H9        1.0  0.6784399999999998  0.8552500000000002  0.10665  1.0000
  H   H10       1.0  0.6618  0.7216700000000003  0.9688799999999999  1.0000
  H   H11       1.0  0.20111  0.71656  0.86177  1.0000
  H   H12       1.0  0.79684  0.6106600000000002  0.87037  1.0000
  H   H13       1.0  0.44604999999999995  0.6541700000000003  0.09203999999999998  1.0000
  H   H14       1.0  0.3158499999999998  0.9266200000000002  0.84476  1.0000
  H   H15       1.0  0.11645999999999992  0.85214  0.95823  1.0000
  H   H16       1.0  0.18981999999999982  0.7722500000000004  0.77225  1.0000
  H   H17       1.0  0.9785900000000001  0.060250000000000005  0.77643  1.0000
  H   H18       1.0  0.3691800000000002  0.61883  0.20268  1.0000
  H   H19       1.0  0.019210000000000015  0.31863  0.07202  1.0000
  H   H20       1.0  0.8927599999999999  0.9276600000000003  0.8574599999999999  1.0000
  H   H21       1.0  0.7907499999999998  0.44618000000000013  0.97271  1.0000
  H   H22       1.0  0.57992  0.49014000000000013  0.01887  1.0000
  H   H23       1.0  0.87132  0.6160000000000002  0.01633  1.0000
  H   H24       1.0  0.56345  0.74666  0.12183  1.0000
  H   H25       1.0  0.5239399999999999  0.5699000000000004  0.9197299999999999  1.0000
  H   H26       1.0  0.9957199999999999  0.9941000000000002  0.67908  1.0000
  H   H27       1.0  0.8015800000000003  0.8806900000000002  0.96337  1.0000
  H   H28       1.0  0.9126100000000003  0.8662499999999999  0.6434  1.0000
  H   H29       1.0  0.16348999999999989  0.2889700000000002  0.68649  1.0000
  H   H30       1.0  0.50692  0.7648899999999998  0.73363  1.0000
  H   H31       1.0  0.45906  0.017980000000000003  0.38267999999999996  1.0000
  H   H32       1.0  0.00034000000000003694  0.45406000000000013  0.7310999999999998  1.0000
  H   H33       1.0  0.9998800000000002  0.45721  0.56444  1.0000
  H   H34       1.0  0.36642000000000013  0.06324  0.69851  1.0000
  H   H35       1.0  0.34893  0.024349999999999997  0.33526  1.0000
  H   H36       1.0  0.64028  0.645  0.39310999999999996  1.0000
  H   H37       1.0  0.35234000000000004  0.77807  0.53103  1.0000
  H   H38       1.0  0.7796499999999998  0.7839700000000001  0.63796  1.0000
  H   H39       1.0  0.27671  0.8890400000000002  0.63003  1.0000
  H   H40       1.0  0.1925499999999999  0.8452300000000003  0.40803  1.0000
  H   H41       1.0  0.08770999999999989  0.5733200000000003  0.65483  1.0000
  H   H42       1.0  0.9266  0.6476100000000002  0.54158  1.0000
  H   H43       1.0  0.7331800000000005  0.7291  0.72725  1.0000
  H   H44       1.0  0.8157600000000002  0.4407900000000001  0.7238099999999998  1.0000
  H   H45       1.0  0.19063999999999998  0.8802600000000003  0.29742  1.0000
  H   H46       1.0  0.41013  0.18071  0.42792  1.0000
  H   H47       1.0  0.6774200000000001  0.57347  0.64292  1.0000
  H   H48       1.0  0.20909999999999998  0.05439999999999999  0.52724  1.0000
  H   H49       1.0  0.08881000000000008  0.010330000000000011  0.4811899999999999  1.0000
  H   H50       1.0  0.5038699999999999  0.88446  0.48327  1.0000
  H   H51       1.0  0.4314199999999999  0.75342  0.37827  1.0000
  H   H52       1.0  0.013659999999999938  0.9309000000000001  0.58036  1.0000
  H   H53       1.0  0.6671199999999999  0.5079900000000002  0.82041  1.0000
  H   H54       1.0  0.6451199999999999  0.61903  0.53695  1.0000
  H   H55       1.0  0.5779899999999999  0.36619  0.14408  1.0000
  H   H56       1.0  0.8610400000000002  0.7889  0.18665  1.0000
  H   H57       1.0  0.9962700000000002  0.26356  0.23385999999999998  1.0000
  H   H58       1.0  0.13928999999999997  0.51835  0.88266  1.0000
  H   H59       1.0  0.8151500000000003  0.95386  0.2311  1.0000
  H   H60       1.0  0.9789700000000001  0.95618  0.06444  1.0000
  H   H61       1.0  0.8707900000000001  0.56198  0.19946  1.0000
  H   H62       1.0  0.2903500000000002  0.52356  0.83496  1.0000
  H   H63       1.0  0.32156  0.14476000000000006  0.89335  1.0000
  H   H64       1.0  0.3382  0.27834  0.031119999999999995  1.0000
  H   H65       1.0  0.79889  0.28345  0.13823  1.0000
  H   H66       1.0  0.20316  0.38935  0.12963  1.0000
  H   H67       1.0  0.5539400000000003  0.34583  0.9079599999999999  1.0000
  H   H68       1.0  0.68415  0.07339000000000002  0.15524  1.0000
  H   H69       1.0  0.8835300000000003  0.14786  0.04177  1.0000
  H   H70       1.0  0.81017  0.22775  0.22774999999999998  1.0000
  H   H71       1.0  0.0214099999999998  0.9397500000000002  0.22357  1.0000
  H   H72       1.0  0.6308200000000003  0.38118  0.79732  1.0000
  H   H73       1.0  0.9807799999999999  0.6813800000000002  0.92798  1.0000
  H   H74       1.0  0.10723000000000003  0.07235000000000003  0.14254  1.0000
  H   H75       1.0  0.20925000000000002  0.55383  0.02729  1.0000
  H   H76       1.0  0.42008000000000006  0.5098600000000002  0.9811299999999998  1.0000
  H   H77       1.0  0.1286799999999999  0.3840100000000001  0.98367  1.0000
  H   H78       1.0  0.43654999999999994  0.25335  0.87817  1.0000
  H   H79       1.0  0.4760600000000002  0.43011  0.08027  1.0000
  H   H80       1.0  0.004280000000000002  0.005899999999999996  0.32092  1.0000
  H   H81       1.0  0.19841999999999999  0.11932000000000002  0.03663  1.0000
  H   H82       1.0  0.08739000000000004  0.13376  0.3566  1.0000
  H   H83       1.0  0.83651  0.71104  0.31351  1.0000
  H   H84       1.0  0.4930800000000001  0.23512  0.26637  1.0000
  H   H85       1.0  0.5409400000000002  0.9820300000000002  0.61732  1.0000
  H   H86       1.0  0.99965  0.54594  0.2689  1.0000
  H   H87       1.0  0.00012000000000002047  0.54279  0.43556  1.0000
  H   H88       1.0  0.63357  0.9367700000000001  0.30149  1.0000
  H   H89       1.0  0.6510600000000007  0.9756600000000002  0.66474  1.0000
  H   H90       1.0  0.3597099999999999  0.3550100000000002  0.60689  1.0000
  H   H91       1.0  0.6476600000000001  0.22194000000000005  0.46897  1.0000
  H   H92       1.0  0.22034999999999996  0.21604000000000007  0.36204  1.0000
  H   H93       1.0  0.72329  0.11097000000000004  0.36997  1.0000
  H   H94       1.0  0.8074400000000002  0.15476999999999996  0.59197  1.0000
  H   H95       1.0  0.9122899999999999  0.4266800000000001  0.34517  1.0000
  H   H96       1.0  0.07338999999999997  0.35240000000000005  0.45841999999999994  1.0000
  H   H97       1.0  0.26682  0.27091  0.27275  1.0000
  H   H98       1.0  0.18424000000000001  0.55922  0.27619  1.0000
  H   H99       1.0  0.80935  0.11974  0.70258  1.0000
  H   H100      1.0  0.5898699999999996  0.81929  0.57208  1.0000
  H   H101      1.0  0.3225800000000002  0.42653  0.35708  1.0000
  H   H102      1.0  0.79089  0.94561  0.47276  1.0000
  H   H103      1.0  0.9111899999999999  0.9896800000000001  0.51881  1.0000
  H   H104      1.0  0.49612  0.11554999999999999  0.51673  1.0000
  H   H105      1.0  0.5685700000000001  0.24659000000000003  0.62173  1.0000
  H   H106      1.0  0.98634  0.06910000000000001  0.41964  1.0000
  H   H107      1.0  0.33288000000000006  0.49202  0.17959  1.0000
  H   H108      1.0  0.35488000000000014  0.38098  0.46305  1.0000
  C   C1        1.0  0.3672000000000002  0.7071900000000001  0.8558999999999998  1.0000
  C   C2        1.0  0.12201999999999996  0.15126  0.8318  1.0000
  C   C3        1.0  0.9926900000000003  0.67418  0.78581  1.0000
  C   C4        1.0  0.9602100000000002  0.51533  0.83773  1.0000
  C   C5        1.0  0.07892000000000007  0.58527  0.77897  1.0000
  C   C6        1.0  0.86683  0.44878  0.08211  1.0000
  C   C7        1.0  0.19229000000000013  0.5704100000000001  0.7468799999999998  1.0000
  C   C8        1.0  0.9459200000000001  0.4300900000000001  0.86865  1.0000
  C   C9        1.0  0.7970100000000001  0.7798300000000002  0.82511  1.0000
  C   C10       1.0  0.14456999999999998  0.07033  0.8097  1.0000
  C   C11       1.0  0.05885000000000002  0.06757000000000003  0.89648  1.0000
  C   C12       1.0  0.06163999999999988  0.5065800000000003  0.80501  1.0000
  C   C13       1.0  0.6272  0.5188300000000001  0.16059  1.0000
  C   C14       1.0  0.7011599999999999  0.7902  0.08909999999999998  1.0000
  C   C15       1.0  0.6298799999999998  0.6709700000000002  0.9692799999999999  1.0000
  C   C16       1.0  0.25799000000000005  0.74749  0.85707  1.0000
  C   C17       1.0  0.8749899999999999  0.6043800000000001  0.8443399999999999  1.0000
  C   C18       1.0  0.48863  0.61202  0.1235  1.0000
  C   C19       1.0  0.3158999999999998  0.8580000000000002  0.84912  1.0000
  C   C20       1.0  0.04150999999999997  0.8681600000000004  0.9464599999999997  1.0000
  C   C21       1.0  0.1339899999999999  0.8412600000000002  0.7605699999999999  1.0000
  C   C22       1.0  0.023419999999999937  0.9911100000000003  0.76132  1.0000
  C   C23       1.0  0.45179  0.5937300000000001  0.17838  1.0000
  C   C24       1.0  0.9468200000000002  0.36892000000000014  0.0585  1.0000
  C   C25       1.0  0.92416  0.9072900000000003  0.8943399999999999  1.0000
  C   C26       1.0  0.8279299999999999  0.43214  0.00722  1.0000
  C   C27       1.0  0.5858000000000002  0.5509  0.99441  1.0000
  C   C28       1.0  0.8032699999999999  0.6679600000000002  0.04182  1.0000
  C   C29       1.0  0.6434  0.7367500000000002  0.09723999999999998  1.0000
  C   C30       1.0  0.5588  0.59089  0.94527  1.0000
  C   C31       1.0  0.03162999999999995  0.95725  0.71353  1.0000
  C   C32       1.0  0.8798199999999996  0.8837200000000002  0.94695  1.0000
  C   C33       1.0  0.8903799999999998  0.6841000000000003  0.8186  1.0000
  C   C34       1.0  0.9309600000000001  0.79292  0.64359  1.0000
  C   C35       1.0  0.10514000000000007  0.3490700000000001  0.6680899999999999  1.0000
  C   C36       1.0  0.45267  0.82687  0.7139599999999999  1.0000
  C   C37       1.0  0.31187  0.98511  0.66213  1.0000
  C   C38       1.0  0.44273999999999997  0.9159500000000003  0.72057  1.0000
  C   C39       1.0  0.3972200000000001  0.05104  0.41788  1.0000
  C   C40       1.0  0.5094599999999998  0.9299600000000005  0.7528299999999999  1.0000
  C   C41       1.0  0.24162  0.06976  0.63131  1.0000
  C   C42       1.0  0.4035400000000001  0.7201900000000002  0.6746599999999999  1.0000
  C   C43       1.0  0.024729999999999978  0.43  0.6902999999999999  1.0000
  C   C44       1.0  0.02262  0.43322  0.60349  1.0000
  C   C45       1.0  0.3723000000000001  0.9944100000000001  0.69446  1.0000
  C   C46       1.0  0.3050699999999999  0.9815400000000002  0.33962  1.0000
  C   C47       1.0  0.5805099999999999  0.71016  0.41059999999999997  1.0000
  C   C48       1.0  0.27009000000000005  0.82904  0.53073  1.0000
  C   C49       1.0  0.8629  0.7529400000000002  0.64259  1.0000
  C   C50       1.0  0.3229999999999999  0.8958000000000004  0.65568  1.0000
  C   C51       1.0  0.22389999999999996  0.88762  0.3766  1.0000
  C   C52       1.0  0.02349000000000007  0.6420599999999999  0.65054  1.0000
  C   C53       1.0  0.8558300000000003  0.63177  0.5535  1.0000
  C   C54       1.0  0.73504  0.66009  0.7391  1.0000
  C   C55       1.0  0.77572  0.51014  0.73866  1.0000
  C   C56       1.0  0.22348999999999994  0.9057900000000002  0.32171  1.0000
  C   C57       1.0  0.37411  0.13082000000000002  0.44143999999999994  1.0000
  C   C58       1.0  0.7254099999999999  0.5932900000000002  0.60592  1.0000
  C   C59       1.0  0.26684000000000013  0.06820000000000002  0.49275  1.0000
  C   C60       1.0  0.13099999999999973  0.9494900000000002  0.50565  1.0000
  C   C61       1.0  0.51321  0.8325200000000003  0.4577899999999999  1.0000
  C   C62       1.0  0.4771199999999999  0.7635000000000002  0.40269  1.0000
  C   C63       1.0  0.09498999999999988  0.9096000000000002  0.55478  1.0000
  C   C64       1.0  0.70144  0.54438  0.78612  1.0000
  C   C65       1.0  0.70999  0.6163  0.55328  1.0000
  C   C66       1.0  0.3931099999999999  0.8163600000000002  0.6813599999999997  1.0000
  C   C67       1.0  0.6327899999999999  0.2928200000000001  0.1441  1.0000
  C   C68       1.0  0.8779800000000002  0.84874  0.1682  1.0000
  C   C69       1.0  0.007299999999999959  0.3258300000000001  0.21419  1.0000
  C   C70       1.0  0.03979000000000002  0.48468  0.16227  1.0000
  C   C71       1.0  0.9210800000000002  0.41474000000000005  0.22103  1.0000
  C   C72       1.0  0.13317000000000004  0.55122  0.91789  1.0000
  C   C73       1.0  0.8076999999999999  0.42959  0.25312  1.0000
  C   C74       1.0  0.05407999999999989  0.5699100000000002  0.13135  1.0000
  C   C75       1.0  0.20299  0.22018000000000004  0.17488999999999996  1.0000
  C   C76       1.0  0.8554300000000001  0.92968  0.1903  1.0000
  C   C77       1.0  0.9411500000000002  0.93243  0.10352  1.0000
  C   C78       1.0  0.93836  0.4934300000000001  0.19498999999999997  1.0000
  C   C79       1.0  0.37279000000000007  0.48118  0.83941  1.0000
  C   C80       1.0  0.29884000000000005  0.20981000000000002  0.9108999999999999  1.0000
  C   C81       1.0  0.37012  0.32904  0.03072  1.0000
  C   C82       1.0  0.7420099999999998  0.25252  0.14293  1.0000
  C   C83       1.0  0.12500000000000003  0.39563  0.15566  1.0000
  C   C84       1.0  0.5113599999999999  0.38799  0.8764999999999998  1.0000
  C   C85       1.0  0.68409  0.14201000000000003  0.15088  1.0000
  C   C86       1.0  0.95849  0.13184  0.05354  1.0000
  C   C87       1.0  0.8660100000000002  0.15875  0.23943  1.0000
  C   C88       1.0  0.97657  0.0089  0.23868  1.0000
  C   C89       1.0  0.5482099999999999  0.4062800000000001  0.82162  1.0000
  C   C90       1.0  0.053169999999999995  0.6310900000000002  0.9415  1.0000
  C   C91       1.0  0.07583000000000001  0.09272  0.10566  1.0000
  C   C92       1.0  0.17207000000000003  0.5678600000000001  0.9927799999999998  1.0000
  C   C93       1.0  0.4142000000000001  0.4491  0.00559  1.0000
  C   C94       1.0  0.19673000000000013  0.33205  0.9581799999999998  1.0000
  C   C95       1.0  0.35659000000000013  0.26326  0.90276  1.0000
  C   C96       1.0  0.44120000000000004  0.40912  0.05473  1.0000
  C   C97       1.0  0.9683600000000002  0.04276000000000001  0.28647  1.0000
  C   C98       1.0  0.12018000000000008  0.11629  0.05304999999999999  1.0000
  C   C99       1.0  0.10962000000000002  0.31591  0.1814  1.0000
  C   C100      1.0  0.06904000000000003  0.20709000000000002  0.35640999999999995  1.0000
  C   C101      1.0  0.8948600000000001  0.65094  0.3319099999999999  1.0000
  C   C102      1.0  0.54732  0.17313  0.28604  1.0000
  C   C103      1.0  0.68813  0.014900000000000004  0.33787  1.0000
  C   C104      1.0  0.5572500000000001  0.08405  0.27943  1.0000
  C   C105      1.0  0.6027700000000001  0.94897  0.58212  1.0000
  C   C106      1.0  0.49053  0.07005000000000002  0.24717  1.0000
  C   C107      1.0  0.7583700000000003  0.9302500000000001  0.36868999999999996  1.0000
  C   C108      1.0  0.59645  0.27982  0.32534  1.0000
  C   C109      1.0  0.97527  0.57001  0.3097  1.0000
  C   C110      1.0  0.97738  0.56679  0.39651  1.0000
  C   C111      1.0  0.62769  0.005600000000000002  0.30554  1.0000
  C   C112      1.0  0.6949300000000002  0.018470000000000018  0.6603799999999999  1.0000
  C   C113      1.0  0.4194799999999999  0.2898400000000001  0.5894  1.0000
  C   C114      1.0  0.7299100000000002  0.17096999999999998  0.46926  1.0000
  C   C115      1.0  0.13709999999999997  0.24707000000000012  0.35741  1.0000
  C   C116      1.0  0.6770000000000002  0.10421000000000001  0.34431999999999996  1.0000
  C   C117      1.0  0.7761000000000003  0.11239  0.6234  1.0000
  C   C118      1.0  0.97651  0.35795  0.3494599999999999  1.0000
  C   C119      1.0  0.14417000000000008  0.36824  0.4465  1.0000
  C   C120      1.0  0.26496  0.33992  0.2609  1.0000
  C   C121      1.0  0.22427999999999995  0.48987  0.26134  1.0000
  C   C122      1.0  0.7765  0.09421  0.67829  1.0000
  C   C123      1.0  0.62589  0.86919  0.55856  1.0000
  C   C124      1.0  0.27457999999999994  0.40672000000000014  0.39408  1.0000
  C   C125      1.0  0.7331599999999999  0.93181  0.50725  1.0000
  C   C126      1.0  0.8689899999999999  0.05052000000000002  0.49435  1.0000
  C   C127      1.0  0.48678  0.16748000000000005  0.54221  1.0000
  C   C128      1.0  0.52287  0.2365  0.59731  1.0000
  C   C129      1.0  0.9050100000000004  0.09040000000000002  0.44522  1.0000
  C   C130      1.0  0.2985499999999999  0.45562000000000014  0.21387999999999996  1.0000
  C   C131      1.0  0.29  0.38370000000000004  0.44671999999999995  1.0000
  C   C132      1.0  0.6068800000000005  0.18365  0.3186399999999999  1.0000
  N   N1        1.0  0.02759000000000019  0.8972800000000002  0.8942499999999998  1.0000
  N   N2        1.0  0.10021000000000005  0.86319  0.71386  1.0000
  N   N3        1.0  0.92178  0.3595700000000001  0.01135  1.0000
  N   N4        1.0  0.79037  0.4884  0.04964  1.0000
  N   N5        1.0  0.40253  0.7770900000000002  0.85161  1.0000
  N   N6        1.0  0.10337000000000005  0.01734  0.85104  1.0000
  N   N7        1.0  0.7093300000000001  0.6584600000000003  0.06711  1.0000
  N   N8        1.0  0.58616  0.66635  0.93002  1.0000
  N   N9        1.0  0.63069  0.60224  0.009719999999999998  1.0000
  N   N10       1.0  0.08997999999999999  0.9169  0.79094  1.0000
  N   N11       1.0  0.95399  0.85955  0.9794199999999998  1.0000
  N   N12       1.0  0.6014900000000001  0.56337  0.11199  1.0000
  N   N13       1.0  0.22568999999999992  0.8438100000000002  0.8523099999999999  1.0000
  N   N14       1.0  0.06834000000000001  0.14851000000000003  0.8861999999999999  1.0000
  N   N15       1.0  0.5393399999999999  0.5348700000000001  0.2012  1.0000
  N   N16       1.0  0.8011  0.74671  0.05399  1.0000
  N   N17       1.0  0.8188200000000004  0.6032900000000001  0.60582  1.0000
  N   N18       1.0  0.67603  0.63845  0.78565  1.0000
  N   N19       1.0  0.29257999999999995  0.14052000000000006  0.48856999999999995  1.0000
  N   N20       1.0  0.32780000000000004  0.011769999999999996  0.45038  1.0000
  N   N21       1.0  0.03193999999999994  0.7228200000000001  0.6479  1.0000
  N   N22       1.0  0.97163  0.48326000000000013  0.64901  1.0000
  N   N23       1.0  0.43465999999999994  0.84182  0.43278  1.0000
  N   N24       1.0  0.18257000000000004  0.83386  0.56999  1.0000
  N   N25       1.0  0.24253000000000005  0.89787  0.49033  1.0000
  N   N26       1.0  0.79776  0.5841500000000002  0.7090499999999998  1.0000
  N   N27       1.0  0.79249  0.64007  0.52063  1.0000
  N   N28       1.0  0.27588999999999997  0.9367800000000002  0.38817  1.0000
  N   N29       1.0  0.9220300000000001  0.65659  0.64749  1.0000
  N   N30       1.0  0.10286  0.35216000000000003  0.61367  1.0000
  N   N31       1.0  0.27422999999999986  0.9651  0.29894  1.0000
  N   N32       1.0  0.6021499999999999  0.75388  0.44549  1.0000
  N   N33       1.0  0.9724000000000002  0.10273  0.10574999999999998  1.0000
  N   N34       1.0  0.89978  0.13682000000000002  0.28614  1.0000
  N   N35       1.0  0.07822000000000001  0.6404400000000001  0.9886499999999998  1.0000
  N   N36       1.0  0.20962999999999996  0.5116100000000001  0.95036  1.0000
  N   N37       1.0  0.59747  0.22292  0.14839  1.0000
  N   N38       1.0  0.8966200000000004  0.9826700000000002  0.14896  1.0000
  N   N39       1.0  0.2906599999999999  0.3415500000000001  0.93289  1.0000
  N   N40       1.0  0.41383  0.3336600000000001  0.06998  1.0000
  N   N41       1.0  0.3693000000000002  0.3977700000000001  0.9902799999999999  1.0000
  N   N42       1.0  0.91001  0.08310000000000002  0.20906  1.0000
  N   N43       1.0  0.04599999999999998  0.14046000000000006  0.02058  1.0000
  N   N44       1.0  0.3985099999999999  0.43664000000000014  0.8880099999999997  1.0000
  N   N45       1.0  0.7743  0.1562  0.14769  1.0000
  N   N46       1.0  0.93166  0.8514900000000001  0.1138  1.0000
  N   N47       1.0  0.46065999999999996  0.46513  0.7987999999999998  1.0000
  N   N48       1.0  0.19888999999999993  0.2533  0.94601  1.0000
  N   N49       1.0  0.1811800000000001  0.39672000000000013  0.3941799999999999  1.0000
  N   N50       1.0  0.32397  0.36156  0.21435  1.0000
  N   N51       1.0  0.70741  0.8594900000000002  0.51143  1.0000
  N   N52       1.0  0.6721900000000001  0.98824  0.54962  1.0000
  N   N53       1.0  0.9680499999999999  0.27719  0.3521  1.0000
  N   N54       1.0  0.028369999999999975  0.51675  0.35099  1.0000
  N   N55       1.0  0.5653400000000001  0.15818  0.56722  1.0000
  N   N56       1.0  0.81742  0.16615000000000005  0.42999999999999994  1.0000
  N   N57       1.0  0.7574700000000001  0.10214  0.50967  1.0000
  N   N58       1.0  0.20223  0.41586000000000006  0.29095  1.0000
  N   N59       1.0  0.20751  0.35994  0.47937  1.0000
  N   N60       1.0  0.7241000000000002  0.06323  0.61183  1.0000
  N   N61       1.0  0.07797000000000004  0.34342  0.35251  1.0000
  N   N62       1.0  0.8971300000000002  0.6478500000000001  0.38633  1.0000
  N   N63       1.0  0.72577  0.034910000000000004  0.70106  1.0000
  N   N64       1.0  0.3978499999999999  0.24613  0.55451  1.0000
  O   O1        1.0  0.7094899999999997  0.7877500000000002  0.86117  1.0000
  O   O2        1.0  0.85212  0.43373000000000006  0.8888399999999997  1.0000
  O   O3        1.0  0.81166  0.8467200000000003  0.7941199999999999  1.0000
  O   O4        1.0  0.21343999999999988  0.6418800000000002  0.72725  1.0000
  O   O5        1.0  0.036650000000000064  0.35965  0.87279  1.0000
  O   O6        1.0  0.26401  0.48721000000000003  0.74316  1.0000
  O   O7        1.0  0.3575  0.7123  0.63972  1.0000
  O   O8        1.0  0.17249  0.06433  0.61127  1.0000
  O   O9        1.0  0.4583199999999999  0.65278  0.70393  1.0000
  O   O10       1.0  0.5813599999999999  0.8576000000000003  0.77261  1.0000
  O   O11       1.0  0.26370999999999994  0.1414  0.62725  1.0000
  O   O12       1.0  0.4954299999999999  0.012760000000000006  0.75679  1.0000
  O   O13       1.0  0.29051000000000016  0.21226000000000006  0.13883  1.0000
  O   O14       1.0  0.14787999999999996  0.5662800000000002  0.11116  1.0000
  O   O15       1.0  0.18833000000000003  0.15329  0.20588  1.0000
  O   O16       1.0  0.7865500000000001  0.35812000000000005  0.27275  1.0000
  O   O17       1.0  0.9633399999999999  0.6403600000000003  0.12721  1.0000
  O   O18       1.0  0.73598  0.5128  0.25684  1.0000
  O   O19       1.0  0.6424900000000001  0.2877100000000002  0.36027999999999993  1.0000
  O   O20       1.0  0.8275  0.9356800000000002  0.38873  1.0000
  O   O21       1.0  0.5416799999999999  0.34723  0.29607  1.0000
  O   O22       1.0  0.41864000000000007  0.1424  0.22739  1.0000
  O   O23       1.0  0.7362900000000001  0.8586100000000002  0.37274999999999997  1.0000
  O   O24       1.0  0.50456  0.9872500000000002  0.24320999999999998  1.0000
