data_image0
_chemical_formula_structural       Zn18H84C96N24O52
_chemical_formula_sum              "Zn18 H84 C96 N24 O52"
_cell_length_a       14.16339
_cell_length_b       14.1327
_cell_length_c       19.243170000000003
_cell_angle_alpha    89.96583
_cell_angle_beta     90.02587
_cell_angle_gamma    120.06351

_space_group_name_H-M_alt    "P 1"
_space_group_IT_number       1

loop_
  _space_group_symop_operation_xyz
  'x, y, z'

loop_
  _atom_site_type_symbol
  _atom_site_label
  _atom_site_symmetry_multiplicity
  _atom_site_fract_x
  _atom_site_fract_y
  _atom_site_fract_z
  _atom_site_occupancy
  Zn  Zn1       1.0  0.23175000000000004  0.51162  0.00817  1.0000
  Zn  Zn2       1.0  0.4860200000000001  0.71911  0.00857  1.0000
  Zn  Zn3       1.0  0.28106  0.7667  0.00832  1.0000
  Zn  Zn4       1.0  0.51373  0.23262  0.48845  1.0000
  Zn  Zn5       1.0  0.7193700000000002  0.48671  0.48821  1.0000
  Zn  Zn6       1.0  0.7670800000000002  0.28082  0.48811  1.0000
  Zn  Zn7       1.0  0.7682500000000002  0.48838  0.9918299999999999  1.0000
  Zn  Zn8       1.0  0.51398  0.2809  0.9914300000000001  1.0000
  Zn  Zn9       1.0  0.7189400000000002  0.2333  0.9916900000000001  1.0000
  Zn  Zn10      1.0  0.48628  0.76738  0.51155  1.0000
  Zn  Zn11      1.0  0.28063  0.51329  0.5118  1.0000
  Zn  Zn12      1.0  0.23293000000000008  0.71918  0.5119  1.0000
  Zn  Zn13      1.0  0.40029  0.40315999999999996  0.25068  1.0000
  Zn  Zn14      1.0  0.5972800000000003  0.9974499999999998  0.25058  1.0000
  Zn  Zn15      1.0  0.004550000000000021  0.60002  0.2509  1.0000
  Zn  Zn16      1.0  0.5997100000000002  0.59684  0.74932  1.0000
  Zn  Zn17      1.0  0.40272  0.00255  0.74942  1.0000
  Zn  Zn18      1.0  0.9954500000000002  0.39999  0.74911  1.0000
  H   H1        1.0  0.40317000000000003  0.36812  0.8647899999999998  1.0000
  H   H2        1.0  0.3060100000000001  0.41306999999999994  0.87209  1.0000
  H   H3        1.0  0.22810000000000005  0.22335  0.82602  1.0000
  H   H4        1.0  0.26569000000000004  0.18154  0.90195  1.0000
  H   H5        1.0  0.13653  0.21825  0.97297  1.0000
  H   H6        1.0  0.06678000000000002  0.12389  0.9051499999999999  1.0000
  H   H7        1.0  0.09909000000000003  0.26183  0.89674  1.0000
  H   H8        1.0  0.62994  0.03375  0.86425  1.0000
  H   H9        1.0  0.58587  0.89166  0.8720299999999999  1.0000
  H   H10       1.0  0.7763400000000003  0.00546  0.82638  1.0000
  H   H11       1.0  0.81628  0.08403  0.90267  1.0000
  H   H12       1.0  0.7796000000000002  0.9173499999999999  0.97322  1.0000
  H   H13       1.0  0.8749000000000002  0.94319  0.9059900000000001  1.0000
  H   H14       1.0  0.73772  0.83693  0.89672  1.0000
  H   H15       1.0  0.9668300000000003  0.59751  0.86487  1.0000
  H   H16       1.0  0.10896000000000007  0.69478  0.8721  1.0000
  H   H17       1.0  0.9975500000000002  0.77336  0.82603  1.0000
  H   H18       1.0  0.9179800000000001  0.7348799999999999  0.90181  1.0000
  H   H19       1.0  0.08399999999999999  0.86386  0.9732  1.0000
  H   H20       1.0  0.05875999999999999  0.93398  0.9059300000000001  1.0000
  H   H21       1.0  0.16474999999999995  0.9027299999999999  0.8969299999999999  1.0000
  H   H22       1.0  0.3708500000000001  0.40142000000000005  0.63653  1.0000
  H   H23       1.0  0.41510000000000014  0.30379  0.62822  1.0000
  H   H24       1.0  0.22486  0.22601  0.67462  1.0000
  H   H25       1.0  0.18464000000000005  0.26566  0.5989  1.0000
  H   H26       1.0  0.22000000000000006  0.13628  0.52706  1.0000
  H   H27       1.0  0.12441000000000003  0.06623  0.59418  1.0000
  H   H28       1.0  0.2612  0.09583  0.60307  1.0000
  H   H29       1.0  0.03048999999999996  0.62864  0.63675  1.0000
  H   H30       1.0  0.8888799999999999  0.58484  0.62811  1.0000
  H   H31       1.0  0.0027499999999999803  0.77551  0.67431  1.0000
  H   H32       1.0  0.0819  0.81542  0.59834  1.0000
  H   H33       1.0  0.9165  0.77982  0.52706  1.0000
  H   H34       1.0  0.94308  0.87585  0.59407  1.0000
  H   H35       1.0  0.8357699999999999  0.7388499999999999  0.60339  1.0000
  H   H36       1.0  0.59804  0.96894  0.63545  1.0000
  H   H37       1.0  0.6952700000000003  0.11112  0.62707  1.0000
  H   H38       1.0  0.7733300000000002  0.99952  0.67433  1.0000
  H   H39       1.0  0.7346400000000002  0.91896  0.59884  1.0000
  H   H40       1.0  0.8636200000000003  0.08508  0.52691  1.0000
  H   H41       1.0  0.9332800000000002  0.05855  0.59369  1.0000
  H   H42       1.0  0.9039300000000002  0.16591  0.60326  1.0000
  H   H43       1.0  0.5968300000000002  0.63188  0.13521  1.0000
  H   H44       1.0  0.69399  0.58693  0.12791  1.0000
  H   H45       1.0  0.77191  0.77665  0.17398  1.0000
  H   H46       1.0  0.73431  0.8184599999999999  0.09806  1.0000
  H   H47       1.0  0.8634700000000002  0.78175  0.027030000000000002  1.0000
  H   H48       1.0  0.9332200000000003  0.87612  0.09485  1.0000
  H   H49       1.0  0.90091  0.73817  0.10326  1.0000
  H   H50       1.0  0.37006000000000006  0.9662599999999999  0.13575  1.0000
  H   H51       1.0  0.41413  0.10834  0.12797  1.0000
  H   H52       1.0  0.22366  0.99454  0.17362  1.0000
  H   H53       1.0  0.18372  0.91597  0.09734  1.0000
  H   H54       1.0  0.22041000000000005  0.08264999999999999  0.026790000000000005  1.0000
  H   H55       1.0  0.12510000000000002  0.05680999999999999  0.09402  1.0000
  H   H56       1.0  0.2622800000000001  0.16307  0.10328  1.0000
  H   H57       1.0  0.03317000000000002  0.4025  0.13513  1.0000
  H   H58       1.0  0.89104  0.30522  0.12791  1.0000
  H   H59       1.0  0.00245000000000001  0.22665  0.17397  1.0000
  H   H60       1.0  0.08202  0.26513  0.0982  1.0000
  H   H61       1.0  0.9160000000000003  0.13614  0.026799999999999997  1.0000
  H   H62       1.0  0.9412400000000002  0.06602  0.09407  1.0000
  H   H63       1.0  0.8352500000000003  0.09726999999999998  0.10308  1.0000
  H   H64       1.0  0.62916  0.59858  0.36347  1.0000
  H   H65       1.0  0.5849  0.69621  0.37179  1.0000
  H   H66       1.0  0.7751400000000002  0.7739899999999998  0.32538  1.0000
  H   H67       1.0  0.81536  0.73434  0.40111  1.0000
  H   H68       1.0  0.78  0.86372  0.4729400000000001  1.0000
  H   H69       1.0  0.87559  0.93377  0.40583  1.0000
  H   H70       1.0  0.7388000000000002  0.90417  0.39693  1.0000
  H   H71       1.0  0.9695200000000003  0.37136  0.36325  1.0000
  H   H72       1.0  0.11111999999999995  0.41516999999999993  0.37189  1.0000
  H   H73       1.0  0.9972600000000001  0.22449  0.32569  1.0000
  H   H74       1.0  0.9181  0.18458  0.40167  1.0000
  H   H75       1.0  0.08351  0.22018  0.47295  1.0000
  H   H76       1.0  0.056930000000000015  0.12415  0.40593  1.0000
  H   H77       1.0  0.16424000000000005  0.26116  0.39662  1.0000
  H   H78       1.0  0.4019600000000001  0.03106  0.36456  1.0000
  H   H79       1.0  0.30473999999999996  0.8888799999999999  0.37294  1.0000
  H   H80       1.0  0.22667000000000007  0.00048  0.32567  1.0000
  H   H81       1.0  0.26536000000000004  0.08104  0.40116  1.0000
  H   H82       1.0  0.13639  0.91493  0.4731  1.0000
  H   H83       1.0  0.06671999999999999  0.94145  0.40631  1.0000
  H   H84       1.0  0.09607000000000004  0.8341  0.39674  1.0000
  C   C1        1.0  0.4883000000000001  0.3649  0.12392  1.0000
  C   C2        1.0  0.28481  0.43592999999999993  0.13433  1.0000
  C   C3        1.0  0.35953  0.38295  0.9675500000000001  1.0000
  C   C4        1.0  0.42113000000000006  0.38307  0.07243  1.0000
  C   C5        1.0  0.34514  0.41972  0.07678  1.0000
  C   C6        1.0  0.3310400000000001  0.35679999999999995  0.8932499999999999  1.0000
  C   C7        1.0  0.23812000000000005  0.2367  0.88245  1.0000
  C   C8        1.0  0.12941  0.20892  0.9162499999999999  1.0000
  C   C9        1.0  0.6339600000000001  0.1226  0.12382  1.0000
  C   C10       1.0  0.56367  0.84827  0.13436  1.0000
  C   C11       1.0  0.6156200000000002  0.97587  0.96733  1.0000
  C   C12       1.0  0.61625  0.03745  0.07226  1.0000
  C   C13       1.0  0.57933  0.92461  0.07662  1.0000
  C   C14       1.0  0.6417500000000003  0.97333  0.8930100000000001  1.0000
  C   C15       1.0  0.7619400000000002  0.0012899999999999997  0.88271  1.0000
  C   C16       1.0  0.7897700000000001  0.92023  0.9165599999999999  1.0000
  C   C17       1.0  0.87856  0.51375  0.12397  1.0000
  C   C18       1.0  0.15424  0.7140799999999999  0.13436  1.0000
  C   C19       1.0  0.025399999999999995  0.6417  0.9676  1.0000
  C   C20       1.0  0.9640400000000002  0.58065  0.07259  1.0000
  C   C21       1.0  0.07702000000000007  0.6549700000000002  0.07676  1.0000
  C   C22       1.0  0.027790000000000054  0.66998  0.8932  1.0000
  C   C23       1.0  0.0007399999999999965  0.76285  0.8824200000000001  1.0000
  C   C24       1.0  0.08153999999999996  0.8715899999999999  0.91655  1.0000
  C   C25       1.0  0.3641100000000001  0.48901  0.37862  1.0000
  C   C26       1.0  0.43374  0.28505  0.36482  1.0000
  C   C27       1.0  0.3841700000000001  0.35837  0.53333  1.0000
  C   C28       1.0  0.3825  0.421  0.42917  1.0000
  C   C29       1.0  0.4189900000000001  0.34491  0.42351  1.0000
  C   C30       1.0  0.35891  0.32924  0.60764  1.0000
  C   C31       1.0  0.23871000000000006  0.23676  0.61825  1.0000
  C   C32       1.0  0.20984000000000003  0.12802  0.58371  1.0000
  C   C33       1.0  0.12585  0.63628  0.37902  1.0000
  C   C34       1.0  0.85301  0.56758  0.36467  1.0000
  C   C35       1.0  0.97471  0.61536  0.53344  1.0000
  C   C36       1.0  0.039450000000000006  0.61774  0.42943  1.0000
  C   C37       1.0  0.9269800000000001  0.58129  0.4235  1.0000
  C   C38       1.0  0.9707  0.64084  0.60765  1.0000
  C   C39       1.0  0.9990500000000001  0.76141  0.61796  1.0000
  C   C40       1.0  0.91913  0.7902199999999999  0.5837  1.0000
  C   C41       1.0  0.51121  0.8740999999999999  0.37789  1.0000
  C   C42       1.0  0.7153100000000001  0.14952  0.36408  1.0000
  C   C43       1.0  0.6417  0.02554  0.53225  1.0000
  C   C44       1.0  0.57935  0.96129  0.428  1.0000
  C   C45       1.0  0.6555100000000003  0.07398  0.42238000000000003  1.0000
  C   C46       1.0  0.67028  0.02935  0.60669  1.0000
  C   C47       1.0  0.7629000000000002  0.0021600000000000005  0.61788  1.0000
  C   C48       1.0  0.8716200000000002  0.08239  0.58353  1.0000
  C   C49       1.0  0.5117  0.6351  0.8760800000000001  1.0000
  C   C50       1.0  0.7151900000000002  0.56407  0.86568  1.0000
  C   C51       1.0  0.6404700000000002  0.61705  0.03245  1.0000
  C   C52       1.0  0.5788700000000002  0.61693  0.92757  1.0000
  C   C53       1.0  0.65487  0.58028  0.92323  1.0000
  C   C54       1.0  0.6689600000000001  0.6432  0.10674999999999998  1.0000
  C   C55       1.0  0.7618800000000002  0.7632999999999999  0.11755000000000002  1.0000
  C   C56       1.0  0.8705900000000002  0.79108  0.08376  1.0000
  C   C57       1.0  0.3660400000000001  0.87741  0.8761799999999998  1.0000
  C   C58       1.0  0.4363300000000001  0.15173  0.86564  1.0000
  C   C59       1.0  0.38438000000000005  0.02413  0.03268  1.0000
  C   C60       1.0  0.38375000000000004  0.9625499999999999  0.92775  1.0000
  C   C61       1.0  0.42067  0.0754  0.92338  1.0000
  C   C62       1.0  0.35824999999999996  0.02668  0.10699  1.0000
  C   C63       1.0  0.23807000000000006  0.99871  0.1173  1.0000
  C   C64       1.0  0.21023000000000006  0.07977  0.08345  1.0000
  C   C65       1.0  0.12144999999999999  0.48626  0.8760399999999999  1.0000
  C   C66       1.0  0.8457600000000002  0.28593  0.86565  1.0000
  C   C67       1.0  0.9746000000000002  0.35829999999999995  0.0324  1.0000
  C   C68       1.0  0.03595999999999997  0.41935999999999996  0.9274200000000001  1.0000
  C   C69       1.0  0.9229800000000002  0.34503  0.9232399999999998  1.0000
  C   C70       1.0  0.9722100000000002  0.33002  0.1068  1.0000
  C   C71       1.0  0.99926  0.23716  0.11758999999999999  1.0000
  C   C72       1.0  0.9184600000000003  0.12842  0.08346  1.0000
  C   C73       1.0  0.63589  0.51099  0.62138  1.0000
  C   C74       1.0  0.5662600000000001  0.71495  0.63518  1.0000
  C   C75       1.0  0.6158300000000001  0.64163  0.46667000000000003  1.0000
  C   C76       1.0  0.6175000000000003  0.579  0.57084  1.0000
  C   C77       1.0  0.58101  0.65509  0.57649  1.0000
  C   C78       1.0  0.6410900000000003  0.67077  0.39236  1.0000
  C   C79       1.0  0.76129  0.76325  0.38176  1.0000
  C   C80       1.0  0.7901600000000002  0.87198  0.41630000000000006  1.0000
  C   C81       1.0  0.8741500000000001  0.36372999999999994  0.62098  1.0000
  C   C82       1.0  0.14700000000000005  0.43242  0.63534  1.0000
  C   C83       1.0  0.025289999999999986  0.3846399999999999  0.46656  1.0000
  C   C84       1.0  0.96055  0.38226  0.57057  1.0000
  C   C85       1.0  0.07302  0.41872  0.5765  1.0000
  C   C86       1.0  0.029309999999999954  0.35916999999999993  0.39235  1.0000
  C   C87       1.0  0.0009499999999999867  0.23859999999999998  0.38204  1.0000
  C   C88       1.0  0.08087  0.20978  0.41631000000000007  1.0000
  C   C89       1.0  0.4887900000000001  0.1259  0.62211  1.0000
  C   C90       1.0  0.28470000000000023  0.85049  0.63593  1.0000
  C   C91       1.0  0.3583  0.9744599999999999  0.46775  1.0000
  C   C92       1.0  0.42065  0.03871  0.572  1.0000
  C   C93       1.0  0.34448999999999996  0.9260199999999998  0.57762  1.0000
  C   C94       1.0  0.32973  0.97066  0.39332  1.0000
  C   C95       1.0  0.23711000000000002  0.99785  0.38212  1.0000
  C   C96       1.0  0.12838  0.91762  0.41648  1.0000
  N   N1        1.0  0.3105100000000001  0.42198  0.01082  1.0000
  N   N2        1.0  0.42764000000000013  0.3595  0.00422  1.0000
  N   N3        1.0  0.57654  0.88759  0.01065  1.0000
  N   N4        1.0  0.6396600000000002  0.06774  0.00403  1.0000
  N   N5        1.0  0.11375000000000002  0.68948  0.01069  1.0000
  N   N6        1.0  0.93359  0.57477  0.00446  1.0000
  N   N7        1.0  0.42248000000000013  0.30968  0.48907000000000006  1.0000
  N   N8        1.0  0.3599200000000002  0.4268700000000001  0.49762  1.0000
  N   N9        1.0  0.8879800000000002  0.57741  0.48896  1.0000
  N   N10       1.0  0.06750000000000002  0.63974  0.49794999999999995  1.0000
  N   N11       1.0  0.6907600000000002  0.11258  0.488  1.0000
  N   N12       1.0  0.57312  0.9329099999999999  0.49660999999999994  1.0000
  N   N13       1.0  0.6895000000000001  0.57803  0.98919  1.0000
  N   N14       1.0  0.57237  0.64051  0.9957800000000001  1.0000
  N   N15       1.0  0.42346000000000017  0.11242  0.98935  1.0000
  N   N16       1.0  0.36034  0.93226  0.9959799999999999  1.0000
  N   N17       1.0  0.8862500000000002  0.31052  0.98931  1.0000
  N   N18       1.0  0.06642  0.42523  0.99554  1.0000
  N   N19       1.0  0.57753  0.69032  0.51094  1.0000
  N   N20       1.0  0.6400900000000003  0.57313  0.50238  1.0000
  N   N21       1.0  0.11202000000000001  0.42259  0.51105  1.0000
  N   N22       1.0  0.9325  0.36025999999999997  0.50205  1.0000
  N   N23       1.0  0.30924000000000007  0.8874199999999999  0.512  1.0000
  N   N24       1.0  0.4268800000000001  0.0671  0.50339  1.0000
  O   O1        1.0  0.52712  0.30618  0.10421000000000001  1.0000
  O   O2        1.0  0.50831  0.41154  0.18373  1.0000
  O   O3        1.0  0.22941000000000006  0.48048  0.1184  1.0000
  O   O4        1.0  0.28069000000000005  0.39521  0.19463  1.0000
  O   O5        1.0  0.6927700000000002  0.22039  0.10429  1.0000
  O   O6        1.0  0.5865300000000002  0.09541  0.18335  1.0000
  O   O7        1.0  0.51905  0.74803  0.11854  1.0000
  O   O8        1.0  0.60488  0.88525  0.19446  1.0000
  O   O9        1.0  0.78115  0.47585999999999995  0.10421000000000001  1.0000
  O   O10       1.0  0.90462  0.49287  0.18369  1.0000
  O   O11       1.0  0.2543100000000001  0.76823  0.11839000000000001  1.0000
  O   O12       1.0  0.11873999999999996  0.71886  0.19479  1.0000
  O   O13       1.0  0.30569000000000013  0.52764  0.39903  1.0000
  O   O14       1.0  0.41069000000000006  0.50997  0.31883  1.0000
  O   O15       1.0  0.4797800000000001  0.23034  0.3788  1.0000
  O   O16       1.0  0.39036  0.28081  0.30551  1.0000
  O   O17       1.0  0.22303999999999996  0.69479  0.39933  1.0000
  O   O18       1.0  0.10002999999999998  0.58947  0.31928  1.0000
  O   O19       1.0  0.75244  0.52339  0.37861  1.0000
  O   O20       1.0  0.89274  0.61054  0.30534  1.0000
  O   O21       1.0  0.47198000000000007  0.77706  0.39909  1.0000
  O   O22       1.0  0.49053000000000013  0.8986  0.31761  1.0000
  O   O23       1.0  0.77052  0.25022  0.37861  1.0000
  O   O24       1.0  0.7191100000000002  0.11131  0.30433  1.0000
  O   O25       1.0  0.47289000000000014  0.6938200000000001  0.8958  1.0000
  O   O26       1.0  0.4916900000000001  0.58846  0.81628  1.0000
  O   O27       1.0  0.7706000000000002  0.51952  0.88161  1.0000
  O   O28       1.0  0.71931  0.60479  0.80538  1.0000
  O   O29       1.0  0.30722999999999995  0.7796199999999999  0.89572  1.0000
  O   O30       1.0  0.41347  0.90459  0.81665  1.0000
  O   O31       1.0  0.4809600000000001  0.25198  0.8814600000000001  1.0000
  O   O32       1.0  0.3951200000000001  0.11475  0.80554  1.0000
  O   O33       1.0  0.21885  0.52414  0.8957900000000001  1.0000
  O   O34       1.0  0.09538000000000002  0.50713  0.81631  1.0000
  O   O35       1.0  0.7456900000000002  0.23177  0.8816200000000001  1.0000
  O   O36       1.0  0.8812600000000004  0.28114  0.80522  1.0000
  O   O37       1.0  0.69431  0.47236999999999996  0.60098  1.0000
  O   O38       1.0  0.58931  0.49003  0.68117  1.0000
  O   O39       1.0  0.52022  0.76966  0.6212  1.0000
  O   O40       1.0  0.60964  0.71919  0.69449  1.0000
  O   O41       1.0  0.77697  0.30522  0.60067  1.0000
  O   O42       1.0  0.89997  0.41054  0.68072  1.0000
  O   O43       1.0  0.24756  0.4766099999999999  0.62139  1.0000
  O   O44       1.0  0.10726  0.3894599999999999  0.69466  1.0000
  O   O45       1.0  0.52802  0.22294  0.60091  1.0000
  O   O46       1.0  0.50948  0.1014  0.68239  1.0000
  O   O47       1.0  0.22948000000000005  0.74979  0.6214  1.0000
  O   O48       1.0  0.2808899999999999  0.8886899999999999  0.69567  1.0000
  O   O49       1.0  0.33288  0.66531  0.0172  1.0000
  O   O50       1.0  0.66667  0.33349  0.47875  1.0000
  O   O51       1.0  0.6671300000000002  0.33468999999999993  0.98281  1.0000
  O   O52       1.0  0.3333300000000001  0.66651  0.52126  1.0000
