data_image0
_chemical_formula_structural       Zn6H92C112N16O24
_chemical_formula_sum              "Zn6 H92 C112 N16 O24"
_cell_length_a       9.4164
_cell_length_b       18.19014
_cell_length_c       18.59433
_cell_angle_alpha    61.79409
_cell_angle_beta     83.91304
_cell_angle_gamma    86.27103000000001

_symmetry_space_group_name_H-M    'P 1'
_symmetry_Int_Tables_number       1

loop_
  _symmetry_equiv_pos_as_xyz
  'x,y,z'

loop_
  _atom_site_type_symbol
  _atom_site_label
  _atom_site_symmetry_multiplicity
  _atom_site_fract_x
  _atom_site_fract_y
  _atom_site_fract_z
  _atom_site_occupancy
  Zn  Zn1       1.0  0.33988  0.07942000000000002  0.64389  1.0000
  Zn  Zn2       1.0  0.5177  0.50031  0.74535  1.0000
  Zn  Zn3       1.0  0.6601200000000002  0.9205700000000001  0.35611  1.0000
  Zn  Zn4       1.0  0.64049  0.06988999999999998  0.13123  1.0000
  Zn  Zn5       1.0  0.35950999999999994  0.9301100000000001  0.86877  1.0000
  Zn  Zn6       1.0  0.4823  0.49968  0.25465  1.0000
  H   H1        1.0  0.12735  0.047  0.8991  1.0000
  H   H2        1.0  0.43153999999999987  0.59702  0.48697  1.0000
  H   H3        1.0  0.80841  0.88696  0.5875  1.0000
  H   H4        1.0  0.06644999999999994  0.8527400000000002  0.59137  1.0000
  H   H5        1.0  0.2742099999999999  0.43898  0.68541  1.0000
  H   H6        1.0  0.76758  0.32045999999999997  0.55193  1.0000
  H   H7        1.0  0.44944  0.26625  0.16402  1.0000
  H   H8        1.0  0.09032999999999995  0.19904  0.95337  1.0000
  H   H9        1.0  0.2928700000000001  0.9951900000000001  0.38955  1.0000
  H   H10       1.0  0.4809800000000001  0.72263  0.33845  1.0000
  H   H11       1.0  0.27013  0.18523000000000003  0.03997  1.0000
  H   H12       1.0  0.021590000000000026  0.60788  0.85545  1.0000
  H   H13       1.0  0.45293  0.33596999999999994  0.50054  1.0000
  H   H14       1.0  0.39696  0.23549  0.06329  1.0000
  H   H15       1.0  0.44617  0.44503  0.43417  1.0000
  H   H16       1.0  0.6701799999999999  0.05548999999999996  0.88698  1.0000
  H   H17       1.0  0.97841  0.39211  0.14455  1.0000
  H   H18       1.0  0.50401  0.91669  0.58492  1.0000
  H   H19       1.0  0.07137000000000002  0.21336  0.21206  1.0000
  H   H20       1.0  0.08380999999999997  0.3473600000000001  0.69077  1.0000
  H   H21       1.0  0.78325  0.68316  0.9003  1.0000
  H   H22       1.0  0.32982  0.9445000000000001  0.11303  1.0000
  H   H23       1.0  0.9161700000000002  0.7053100000000003  0.94787  1.0000
  H   H24       1.0  0.21675  0.31684000000000007  0.0997  1.0000
  H   H25       1.0  0.19159000000000004  0.11303  0.4125  1.0000
  H   H26       1.0  0.51902  0.27735999999999994  0.66155  1.0000
  H   H27       1.0  0.13514999999999996  0.7250300000000001  0.87425  1.0000
  H   H28       1.0  0.6030400000000001  0.7645099999999999  0.93671  1.0000
  H   H29       1.0  0.031389999999999994  0.2725500000000001  0.40348  1.0000
  H   H30       1.0  0.029180000000000015  0.75978  0.34563  1.0000
  H   H31       1.0  0.7933799999999999  0.20437  0.22534  1.0000
  H   H32       1.0  0.6845500000000001  0.3249  0.84288  1.0000
  H   H33       1.0  0.92863  0.78663  0.78794  1.0000
  H   H34       1.0  0.07223  0.16940000000000002  0.7358  1.0000
  H   H35       1.0  0.9708100000000001  0.24020999999999995  0.65437  1.0000
  H   H36       1.0  0.27066  0.8299800000000002  0.47819  1.0000
  H   H37       1.0  0.5684599999999999  0.40297000000000005  0.51303  1.0000
  H   H38       1.0  0.49598999999999993  0.08330000000000003  0.41508  1.0000
  H   H39       1.0  0.84326  0.77633  0.36524  1.0000
  H   H40       1.0  0.09203999999999993  0.7245100000000003  0.48674  1.0000
  H   H41       1.0  0.9335499999999999  0.14724999999999996  0.40863  1.0000
  H   H42       1.0  0.76542  0.06526999999999998  0.37991  1.0000
  H   H43       1.0  0.22320000000000004  0.15648  0.20106  1.0000
  H   H44       1.0  0.87943  0.6944000000000001  0.7389  1.0000
  H   H45       1.0  0.7643099999999998  0.17779000000000003  0.68098  1.0000
  H   H46       1.0  0.6810799999999998  0.09490999999999998  0.67955  1.0000
  H   H47       1.0  0.73744  0.4485700000000001  0.16613  1.0000
  H   H48       1.0  0.55056  0.73374  0.83598  1.0000
  H   H49       1.0  0.44565000000000005  0.55027  0.08073  1.0000
  H   H50       1.0  0.4341499999999999  0.40237  0.01002  1.0000
  H   H51       1.0  0.45104999999999995  0.10133999999999996  0.91746  1.0000
  H   H52       1.0  0.2625600000000001  0.5514299999999999  0.83387  1.0000
  H   H53       1.0  0.23458000000000004  0.93472  0.62009  1.0000
  H   H54       1.0  0.70643  0.22157000000000002  0.13713  1.0000
  H   H55       1.0  0.72933  0.17001999999999998  0.52181  1.0000
  H   H56       1.0  0.8726499999999999  0.95299  0.10091  1.0000
  H   H57       1.0  0.29357000000000005  0.7784299999999998  0.86287  1.0000
  H   H58       1.0  0.5658499999999999  0.5976199999999999  0.9899800000000001  1.0000
  H   H59       1.0  0.99358  0.22973  0.82201  1.0000
  H   H60       1.0  0.54707  0.6640199999999999  0.49945999999999996  1.0000
  H   H61       1.0  0.90967  0.80095  0.04663  1.0000
  H   H62       1.0  0.5722999999999999  0.34160000000000007  0.9883399999999999  1.0000
  H   H63       1.0  0.90795  0.27548000000000006  0.51327  1.0000
  H   H64       1.0  0.11592999999999998  0.89431  0.08569  1.0000
  H   H65       1.0  0.9686100000000001  0.72745  0.59652  1.0000
  H   H66       1.0  0.55435  0.4497300000000001  0.91927  1.0000
  H   H67       1.0  0.55383  0.55496  0.56583  1.0000
  H   H68       1.0  0.006419999999999982  0.77026  0.17799  1.0000
  H   H69       1.0  0.40195999999999993  0.7862100000000001  0.43431  1.0000
  H   H70       1.0  0.15674  0.22366999999999995  0.63476  1.0000
  H   H71       1.0  0.92777  0.83059  0.26421  1.0000
  H   H72       1.0  0.8840700000000001  0.10567999999999995  0.91431  1.0000
  H   H73       1.0  0.7257900000000002  0.56102  0.31459  1.0000
  H   H74       1.0  0.08383  0.29468000000000005  0.05213  1.0000
  H   H75       1.0  0.23242  0.6795300000000001  0.44807  1.0000
  H   H76       1.0  0.59803  0.21379  0.56569  1.0000
  H   H77       1.0  0.12056999999999997  0.3056  0.2611  1.0000
  H   H78       1.0  0.70713  0.00480999999999999  0.61045  1.0000
  H   H79       1.0  0.34705  0.33179000000000003  0.35754  1.0000
  H   H80       1.0  0.7768  0.84352  0.79894  1.0000
  H   H81       1.0  0.4277  0.6584  0.01166  1.0000
  H   H82       1.0  0.31892000000000004  0.90509  0.32045  1.0000
  H   H83       1.0  0.91619  0.65264  0.30923  1.0000
  H   H84       1.0  0.86485  0.2749599999999999  0.12575  1.0000
  H   H85       1.0  0.3154399999999999  0.6750900000000001  0.15712  1.0000
  H   H86       1.0  0.31372  0.05721000000000001  0.15392  1.0000
  H   H87       1.0  0.20661999999999997  0.7956200000000001  0.77466  1.0000
  H   H88       1.0  0.23568999999999996  0.82221  0.31902  1.0000
  H   H89       1.0  0.6862799999999999  0.9427900000000001  0.84608  1.0000
  H   H90       1.0  0.7298699999999999  0.8147700000000001  0.96003  1.0000
  H   H91       1.0  0.54894  0.89865  0.08254  1.0000
  H   H92       1.0  0.6529399999999999  0.6682000000000001  0.64246  1.0000
  C   C1        1.0  0.38689  0.2869  0.33676  1.0000
  C   C2        1.0  0.13001000000000001  0.25094  0.89572  1.0000
  C   C3        1.0  0.6600100000000001  0.39294  0.67458  1.0000
  C   C4        1.0  0.87863  0.9235600000000002  0.60038  1.0000
  C   C5        1.0  0.59931  0.69049  0.74682  1.0000
  C   C6        1.0  0.53047  0.85356  0.63024  1.0000
  C   C7        1.0  0.36261999999999994  0.39607  0.18819  1.0000
  C   C8        1.0  0.41433  0.12254999999999998  0.76708  1.0000
  C   C9        1.0  0.46953  0.14643000000000003  0.36976  1.0000
  C   C10       1.0  0.6100100000000002  0.82087  0.51511  1.0000
  C   C11       1.0  0.4006799999999999  0.30951000000000006  0.25318  1.0000
  C   C12       1.0  0.8792299999999998  0.05101000000000001  0.38139  1.0000
  C   C13       1.0  0.06629999999999998  0.6225400000000002  0.79383  1.0000
  C   C14       1.0  0.9337  0.3774500000000001  0.20617  1.0000
  C   C15       1.0  0.71338  0.20207  0.55953  1.0000
  C   C16       1.0  0.95917  0.0393  0.13432  1.0000
  C   C17       1.0  0.028669999999999984  0.12357  0.6545  1.0000
  C   C18       1.0  0.86947  0.80684  0.82973  1.0000
  C   C19       1.0  0.08344  0.06906  0.1478  1.0000
  C   C20       1.0  0.37564999999999993  0.7133300000000001  0.17354  1.0000
  C   C21       1.0  0.23495  0.3039300000000001  0.89163  1.0000
  C   C22       1.0  0.17669000000000007  0.26822000000000007  0.08803  1.0000
  C   C23       1.0  0.49294000000000004  0.16025  0.86904  1.0000
  C   C24       1.0  0.5567500000000001  0.75117  0.7712  1.0000
  C   C25       1.0  0.62435  0.28666  0.82646  1.0000
  C   C26       1.0  0.015400000000000007  0.32820999999999995  0.27253  1.0000
  C   C27       1.0  0.13053  0.19315999999999997  0.17028  1.0000
  C   C28       1.0  0.397  0.6879400000000002  0.25559  1.0000
  C   C29       1.0  0.52125  0.83236  0.71351  1.0000
  C   C30       1.0  0.39643000000000006  0.8208400000000001  0.02438  1.0000
  C   C31       1.0  0.89404  0.1467  0.15518  1.0000
  C   C32       1.0  0.8965  0.05762000000000002  0.89491  1.0000
  C   C33       1.0  0.52843  0.10352000000000001  0.26065  1.0000
  C   C34       1.0  0.6373700000000002  0.60392  0.81181  1.0000
  C   C35       1.0  0.12076999999999996  0.94899  0.61861  1.0000
  C   C36       1.0  0.58567  0.8774499999999998  0.23292  1.0000
  C   C37       1.0  0.057479999999999976  0.19344000000000003  0.67054  1.0000
  C   C38       1.0  0.12137000000000006  0.07644000000000001  0.39962  1.0000
  C   C39       1.0  0.70668  0.7556800000000001  0.96176  1.0000
  C   C40       1.0  0.7917600000000001  0.28515  0.51758  1.0000
  C   C41       1.0  0.8097800000000002  0.21539  0.16158  1.0000
  C   C42       1.0  0.7736699999999999  0.028759999999999983  0.87961  1.0000
  C   C43       1.0  0.12866  0.33539  0.74693  1.0000
  C   C44       1.0  0.44325000000000003  0.24881999999999999  0.2288  1.0000
  C   C45       1.0  0.20062000000000002  0.59049  0.78243  1.0000
  C   C46       1.0  0.52445  0.81645  0.21283  1.0000
  C   C47       1.0  0.75932  0.14427999999999996  0.64545  1.0000
  C   C48       1.0  0.9741799999999998  0.09589000000000003  0.3975  1.0000
  C   C49       1.0  0.9425200000000001  0.80656  0.32946  1.0000
  C   C50       1.0  0.22632999999999995  0.97123  0.12039  1.0000
  C   C51       1.0  0.040830000000000005  0.9607  0.86568  1.0000
  C   C52       1.0  0.08371000000000003  0.9658099999999997  0.37032  1.0000
  C   C53       1.0  0.07715000000000001  0.26844  0.82173  1.0000
  C   C54       1.0  0.87134  0.6646000000000002  0.25307  1.0000
  C   C55       1.0  0.603  0.31205000000000016  0.74441  1.0000
  C   C56       1.0  0.28681000000000006  0.37154  0.8171  1.0000
  C   C57       1.0  0.42883999999999994  0.78987  0.11135  1.0000
  C   C58       1.0  0.5804999999999999  0.7947400000000003  0.60477  1.0000
  C   C59       1.0  0.23456000000000002  0.38754  0.7433  1.0000
  C   C60       1.0  0.33999  0.60705  0.32542  1.0000
  C   C61       1.0  0.74891  0.39113000000000003  0.29779  1.0000
  C   C62       1.0  0.966  0.30896000000000007  0.35283  1.0000
  C   C63       1.0  0.50526  0.60678  0.0392  1.0000
  C   C64       1.0  0.20824  0.7148400000000001  0.48242  1.0000
  C   C65       1.0  0.51821  0.3925  0.46792  1.0000
  C   C66       1.0  0.02582  0.9041  0.6025  1.0000
  C   C67       1.0  0.10350000000000002  0.94237  0.10509  1.0000
  C   C68       1.0  0.21866  0.03458  0.14282  1.0000
  C   C69       1.0  0.10594999999999999  0.85329  0.84482  1.0000
  C   C70       1.0  0.16860999999999998  0.6590200000000002  0.63606  1.0000
  C   C71       1.0  0.9678600000000003  0.975  0.11266  1.0000
  C   C72       1.0  0.91656  0.93094  0.8522  1.0000
  C   C73       1.0  0.47555  0.18354000000000006  0.78717  1.0000
  C   C74       1.0  0.47874999999999995  0.16763  0.28649  1.0000
  C   C75       1.0  0.9362600000000001  0.9854900000000001  0.36748  1.0000
  C   C76       1.0  0.9713199999999999  0.8764200000000001  0.3455  1.0000
  C   C77       1.0  0.17944999999999997  0.010889999999999986  0.38616  1.0000
  C   C78       1.0  0.6004  0.62802  0.08478  1.0000
  C   C79       1.0  0.48178999999999983  0.6074900000000002  0.53208  1.0000
  C   C80       1.0  0.37114  0.6174800000000003  0.58992  1.0000
  C   C81       1.0  0.9846  0.6717799999999999  0.72747  1.0000
  C   C82       1.0  0.06374  0.014509999999999992  0.63252  1.0000
  C   C83       1.0  0.034000000000000016  0.6910300000000001  0.64717  1.0000
  C   C84       1.0  0.86999  0.74906  0.10428  1.0000
  C   C85       1.0  0.92285  0.7315600000000001  0.17827  1.0000
  C   C86       1.0  0.46907  0.74064  0.2747  1.0000
  C   C87       1.0  0.62886  0.38252  0.41008  1.0000
  C   C88       1.0  0.71319  0.6284600000000001  0.1829  1.0000
  C   C89       1.0  0.61311  0.71309  0.66324  1.0000
  C   C90       1.0  0.38999  0.17912  0.48489  1.0000
  C   C91       1.0  0.8205499999999999  0.9891  0.61384  1.0000
  C   C92       1.0  0.7650499999999999  0.6960600000000002  0.10837  1.0000
  C   C93       1.0  0.3996  0.37197  0.91522  1.0000
  C   C94       1.0  0.76544  0.61246  0.2567  1.0000
  C   C95       1.0  0.47157  0.8964800000000003  0.73935  1.0000
  C   C96       1.0  0.03213999999999998  0.024990000000000043  0.88734  1.0000
  C   C97       1.0  0.19022  0.7846  0.83842  1.0000
  C   C98       1.0  0.28662  0.7979300000000003  0.44047  1.0000
  C   C99       1.0  0.50706  0.83974  0.13096  1.0000
  C   C100      1.0  0.53093  0.25936  0.7253  1.0000
  C   C101      1.0  0.57116  0.21012  0.88865  1.0000
  C   C102      1.0  0.29332  0.24432  0.03824  1.0000
  C   C103      1.0  0.79938  0.4095  0.21757  1.0000
  C   C104      1.0  0.49474000000000007  0.39321000000000006  0.9608  1.0000
  C   C105      1.0  0.6035599999999999  0.17915000000000003  0.97562  1.0000
  C   C106      1.0  0.83139  0.34097000000000005  0.36394  1.0000
  C   C107      1.0  0.24068000000000006  0.8557200000000001  0.35455  1.0000
  C   C108      1.0  0.8233099999999999  0.7317700000000001  0.91197  1.0000
  C   C109      1.0  0.4195  0.20525000000000007  0.39523  1.0000
  C   C110      1.0  0.25109000000000004  0.60887  0.70221  1.0000
  C   C111      1.0  0.78134  0.96542  0.85718  1.0000
  C   C112      1.0  0.91629  0.03418000000000004  0.62968  1.0000
  N   N1        1.0  0.12996999999999995  0.071  0.64843  1.0000
  N   N2        1.0  0.24735000000000001  0.66345  0.5664  1.0000
  N   N3        1.0  0.10226999999999993  0.89692  0.35591  1.0000
  N   N4        1.0  0.75265  0.33655000000000007  0.43361  1.0000
  N   N5        1.0  0.8430100000000001  0.08811  0.1409  1.0000
  N   N6        1.0  0.87003  0.929  0.35157  1.0000
  N   N7        1.0  0.9614699999999998  0.8634200000000003  0.83901  1.0000
  N   N8        1.0  0.8977299999999998  0.10308000000000009  0.64409  1.0000
  N   N9        1.0  0.30890000000000006  0.30572000000000005  0.95179  1.0000
  N   N10       1.0  0.6911  0.69428  0.04821  1.0000
  N   N11       1.0  0.038529999999999995  0.13657  0.16099  1.0000
  N   N12       1.0  0.62398  0.41614  0.32856  1.0000
  N   N13       1.0  0.38904  0.41230999999999995  0.83392  1.0000
  N   N14       1.0  0.61096  0.58768  0.16608  1.0000
  N   N15       1.0  0.15698999999999994  0.9118800000000001  0.8591  1.0000
  N   N16       1.0  0.37601000000000007  0.58386  0.67144  1.0000
  O   O1        1.0  0.56457  0.8953700000000001  0.46545  1.0000
  O   O2        1.0  0.35736000000000007  0.45635000000000003  0.2071  1.0000
  O   O3        1.0  0.63602  0.9446800000000001  0.1742  1.0000
  O   O4        1.0  0.57122  0.10125000000000002  0.02507  1.0000
  O   O5        1.0  0.65961  0.22530999999999998  0.99718  1.0000
  O   O6        1.0  0.33405  0.40492  0.12047  1.0000
  O   O7        1.0  0.59923  0.04182000000000001  0.30998  1.0000
  O   O8        1.0  0.42876999999999993  0.89874  0.97493  1.0000
  O   O9        1.0  0.49955  0.88453  0.81044  1.0000
  O   O10       1.0  0.34039  0.77468  0.00282  1.0000
  O   O11       1.0  0.64984  0.45957000000000003  0.68389  1.0000
  O   O12       1.0  0.5785800000000001  0.85855  0.30906  1.0000
  O   O13       1.0  0.28567999999999993  0.6074800000000001  0.38942  1.0000
  O   O14       1.0  0.66595  0.5950799999999999  0.87953  1.0000
  O   O15       1.0  0.32093  0.22632000000000002  0.50844  1.0000
  O   O16       1.0  0.40077000000000007  0.95818  0.69002  1.0000
  O   O17       1.0  0.35015  0.54043  0.31611  1.0000
  O   O18       1.0  0.6790699999999996  0.7736800000000001  0.49156  1.0000
  O   O19       1.0  0.64263  0.5436400000000002  0.7929  1.0000
  O   O20       1.0  0.50045  0.11546000000000002  0.18956  1.0000
  O   O21       1.0  0.43542999999999993  0.10463  0.53455  1.0000
  O   O22       1.0  0.3639799999999999  0.05532000000000002  0.8258  1.0000
  O   O23       1.0  0.42142  0.14144999999999996  0.69094  1.0000
  O   O24       1.0  0.71431  0.39251000000000014  0.61058  1.0000
