data_image0
_chemical_formula_structural       Cd8H160C160N16O32
_chemical_formula_sum              "Cd8 H160 C160 N16 O32"
_cell_length_a       18.47861
_cell_length_b       21.29076
_cell_length_c       21.89559
_cell_angle_alpha    90.11897
_cell_angle_beta     90.90208
_cell_angle_gamma    89.96097

_symmetry_space_group_name_H-M    'P 1'
_symmetry_Int_Tables_number       1

loop_
  _symmetry_equiv_pos_as_xyz
  'x,y,z'

loop_
  _atom_site_type_symbol
  _atom_site_label
  _atom_site_symmetry_multiplicity
  _atom_site_fract_x
  _atom_site_fract_y
  _atom_site_fract_z
  _atom_site_occupancy
  Cd  Cd1       1.0  0.60971  0.3414  0.51284  1.0000
  Cd  Cd2       1.0  0.20037  0.9197399999999999  0.48369999999999996  1.0000
  Cd  Cd3       1.0  0.38893  0.84147  0.98665  1.0000
  Cd  Cd4       1.0  0.79948  0.41977999999999993  0.01629  1.0000
  Cd  Cd5       1.0  0.39029  0.6586  0.48716  1.0000
  Cd  Cd6       1.0  0.79962  0.08026  0.5163  1.0000
  Cd  Cd7       1.0  0.61107  0.15853  0.013349999999999999  1.0000
  Cd  Cd8       1.0  0.20052  0.58022  0.9837099999999999  1.0000
  H   H1        1.0  0.37855  0.89183  0.50716  1.0000
  H   H2        1.0  0.4163  0.96399  0.53081  1.0000
  H   H3        1.0  0.31695  0.9799099999999998  0.60482  1.0000
  H   H4        1.0  0.36622000000000005  0.9106299999999999  0.61894  1.0000
  H   H5        1.0  0.3158  0.82012  0.55175  1.0000
  H   H6        1.0  0.28481  0.8111499999999999  0.6264  1.0000
  H   H7        1.0  0.21408  0.744  0.56192  1.0000
  H   H8        1.0  0.15602  0.80628  0.58531  1.0000
  H   H9        1.0  0.28969  0.7862799999999999  0.4690500000000001  1.0000
  H   H10       1.0  0.22587  0.7313  0.44373  1.0000
  H   H11       1.0  0.27018  0.7879499999999999  0.3574  1.0000
  H   H12       1.0  0.17777  0.80747  0.36609  1.0000
  H   H13       1.0  0.35158  0.85772  0.42149000000000003  1.0000
  H   H14       1.0  0.3508  0.8875699999999999  0.34646  1.0000
  H   H15       1.0  0.40405  0.96625  0.41377  1.0000
  H   H16       1.0  0.32027000000000005  0.99515  0.38606000000000007  1.0000
  H   H17       1.0  0.43964000000000003  0.20075  0.40739000000000003  1.0000
  H   H18       1.0  0.34604  0.11696  0.40106  1.0000
  H   H19       1.0  0.39961  0.06149  0.58525  1.0000
  H   H20       1.0  0.49814  0.14054  0.58853  1.0000
  H   H21       1.0  0.27514  0.03961  0.53494  1.0000
  H   H22       1.0  0.26309  0.05261999999999999  0.4564599999999999  1.0000
  H   H23       1.0  0.25665  0.79446  0.80516  1.0000
  H   H24       1.0  0.1992  0.81411  0.70353  1.0000
  H   H25       1.0  0.28107  0.0032199999999999998  0.70763  1.0000
  H   H26       1.0  0.33698  0.9828199999999999  0.81056  1.0000
  H   H27       1.0  0.15733  0.8949399999999998  0.62637  1.0000
  H   H28       1.0  0.19725  0.9694  0.62488  1.0000
  H   H29       1.0  0.9625000000000001  0.95184  0.41452  1.0000
  H   H30       1.0  0.054049999999999994  0.8674999999999999  0.3982  1.0000
  H   H31       1.0  0.030409999999999996  0.80821  0.58456  1.0000
  H   H32       1.0  0.9401400000000001  0.8942199999999998  0.60051  1.0000
  H   H33       1.0  0.09942  0.74198  0.50644  1.0000
  H   H34       1.0  0.10568  0.77102  0.43137000000000003  1.0000
  H   H35       1.0  0.22944999999999996  0.79911  0.1557  1.0000
  H   H36       1.0  0.179  0.8189499999999998  0.25865  1.0000
  H   H37       1.0  0.3086  0.98625  0.27419  1.0000
  H   H38       1.0  0.35916  0.96501  0.17088  1.0000
  H   H39       1.0  0.21446  0.96664  0.34768  1.0000
  H   H40       1.0  0.15364  0.9043799999999999  0.33858  1.0000
  H   H41       1.0  0.62129  0.39195  0.99264  1.0000
  H   H42       1.0  0.58349  0.46406  0.9689900000000001  1.0000
  H   H43       1.0  0.68281  0.47952999999999996  0.89498  1.0000
  H   H44       1.0  0.63366  0.41025999999999996  0.8809300000000001  1.0000
  H   H45       1.0  0.68398  0.31988  0.9477199999999999  1.0000
  H   H46       1.0  0.71523  0.31095  0.87302  1.0000
  H   H47       1.0  0.7859  0.2437  0.93759  1.0000
  H   H48       1.0  0.84382  0.30597  0.91428  1.0000
  H   H49       1.0  0.71031  0.28611  0.030800000000000004  1.0000
  H   H50       1.0  0.77435  0.23133  0.05595  1.0000
  H   H51       1.0  0.73001  0.28818  0.1423  1.0000
  H   H52       1.0  0.82241  0.30775  0.13353  1.0000
  H   H53       1.0  0.6484  0.35788  0.07832  1.0000
  H   H54       1.0  0.6491  0.38795999999999997  0.15335  1.0000
  H   H55       1.0  0.59559  0.46625999999999995  0.08606  1.0000
  H   H56       1.0  0.6792  0.49548  0.11392000000000001  1.0000
  H   H57       1.0  0.55903  0.70097  0.09279999999999998  1.0000
  H   H58       1.0  0.65324  0.61755  0.09898  1.0000
  H   H59       1.0  0.60027  0.56149  0.9146300000000002  1.0000
  H   H60       1.0  0.50126  0.64026  0.91148  1.0000
  H   H61       1.0  0.7247  0.53961  0.9652  1.0000
  H   H62       1.0  0.73643  0.55281  0.04382  1.0000
  H   H63       1.0  0.74337  0.29613  0.69287  1.0000
  H   H64       1.0  0.80008  0.31398  0.79526  1.0000
  H   H65       1.0  0.71866  0.50345  0.79403  1.0000
  H   H66       1.0  0.66255  0.48444  0.69085  1.0000
  H   H67       1.0  0.84247  0.39431999999999995  0.87345  1.0000
  H   H68       1.0  0.80286  0.46889  0.87551  1.0000
  H   H69       1.0  0.03769  0.45160999999999996  0.08573  1.0000
  H   H70       1.0  0.9459399999999999  0.36758  0.10159  1.0000
  H   H71       1.0  0.9690699999999999  0.30876  0.91473  1.0000
  H   H72       1.0  0.05872000000000001  0.39507  0.89907  1.0000
  H   H73       1.0  0.9008100000000001  0.24204  0.99288  1.0000
  H   H74       1.0  0.8944200000000001  0.27116  0.06806  1.0000
  H   H75       1.0  0.76937  0.2987  0.34311  1.0000
  H   H76       1.0  0.82127  0.31968  0.24087  1.0000
  H   H77       1.0  0.69106  0.48677  0.22618  1.0000
  H   H78       1.0  0.63953  0.46473  0.32892  1.0000
  H   H79       1.0  0.7850999999999999  0.46702999999999995  0.15229  1.0000
  H   H80       1.0  0.84622  0.40495  0.16137  1.0000
  H   H81       1.0  0.62145  0.10817  0.49284000000000006  1.0000
  H   H82       1.0  0.5837  0.03600999999999999  0.46919  1.0000
  H   H83       1.0  0.68305  0.02009  0.3951799999999999  1.0000
  H   H84       1.0  0.63377  0.08936999999999999  0.38106  1.0000
  H   H85       1.0  0.6842  0.17988  0.4482499999999999  1.0000
  H   H86       1.0  0.71518  0.18885  0.37361  1.0000
  H   H87       1.0  0.78592  0.25599  0.4380899999999999  1.0000
  H   H88       1.0  0.84398  0.19371  0.41469  1.0000
  H   H89       1.0  0.71031  0.21372  0.53096  1.0000
  H   H90       1.0  0.77413  0.2687  0.55627  1.0000
  H   H91       1.0  0.72982  0.21205  0.64261  1.0000
  H   H92       1.0  0.82222  0.19252999999999998  0.63391  1.0000
  H   H93       1.0  0.64842  0.14227999999999996  0.57852  1.0000
  H   H94       1.0  0.6492  0.11243  0.65354  1.0000
  H   H95       1.0  0.59595  0.03375  0.58623  1.0000
  H   H96       1.0  0.67973  0.004849999999999998  0.61395  1.0000
  H   H97       1.0  0.56036  0.7992499999999999  0.59261  1.0000
  H   H98       1.0  0.65396  0.8830399999999999  0.59894  1.0000
  H   H99       1.0  0.60039  0.93851  0.41476  1.0000
  H   H100      1.0  0.50186  0.85946  0.41146999999999995  1.0000
  H   H101      1.0  0.72486  0.96039  0.46506  1.0000
  H   H102      1.0  0.73691  0.94738  0.54355  1.0000
  H   H103      1.0  0.74335  0.20553999999999997  0.19484000000000004  1.0000
  H   H104      1.0  0.8008  0.18589  0.29647  1.0000
  H   H105      1.0  0.71893  0.9967799999999999  0.29238  1.0000
  H   H106      1.0  0.66302  0.01718  0.18944  1.0000
  H   H107      1.0  0.84267  0.10505999999999999  0.3736300000000001  1.0000
  H   H108      1.0  0.80275  0.0306  0.37512  1.0000
  H   H109      1.0  0.0375  0.04816  0.58548  1.0000
  H   H110      1.0  0.94595  0.1325  0.6018  1.0000
  H   H111      1.0  0.96959  0.19179  0.41544  1.0000
  H   H112      1.0  0.05985999999999999  0.10577999999999999  0.39949  1.0000
  H   H113      1.0  0.90058  0.25802  0.49357  1.0000
  H   H114      1.0  0.89432  0.22898  0.56863  1.0000
  H   H115      1.0  0.77055  0.20089  0.84431  1.0000
  H   H116      1.0  0.821  0.18105  0.74136  1.0000
  H   H117      1.0  0.6914  0.01375  0.72581  1.0000
  H   H118      1.0  0.64084  0.03499  0.82912  1.0000
  H   H119      1.0  0.7855399999999999  0.03336  0.65233  1.0000
  H   H120      1.0  0.84636  0.09562  0.66142  1.0000
  H   H121      1.0  0.37871  0.60805  0.007360000000000001  1.0000
  H   H122      1.0  0.41651  0.53594  0.03102  1.0000
  H   H123      1.0  0.31719  0.52047  0.10503  1.0000
  H   H124      1.0  0.36634  0.58974  0.11907000000000001  1.0000
  H   H125      1.0  0.31602  0.68011  0.05228  1.0000
  H   H126      1.0  0.28477  0.68905  0.12698  1.0000
  H   H127      1.0  0.2141  0.7562999999999999  0.06240999999999999  1.0000
  H   H128      1.0  0.15618  0.69403  0.08572  1.0000
  H   H129      1.0  0.28969  0.71389  0.9692  1.0000
  H   H130      1.0  0.22564000000000003  0.76867  0.94405  1.0000
  H   H131      1.0  0.26999  0.71181  0.8577  1.0000
  H   H132      1.0  0.17759000000000003  0.69225  0.8664800000000001  1.0000
  H   H133      1.0  0.3516  0.6421199999999999  0.9216800000000002  1.0000
  H   H134      1.0  0.3509  0.61204  0.84665  1.0000
  H   H135      1.0  0.40441  0.53374  0.91394  1.0000
  H   H136      1.0  0.32079  0.50452  0.88608  1.0000
  H   H137      1.0  0.4409600000000001  0.29903  0.9072000000000001  1.0000
  H   H138      1.0  0.34675  0.38245  0.90103  1.0000
  H   H139      1.0  0.39973  0.43851  0.08537  1.0000
  H   H140      1.0  0.49874  0.35973  0.08852  1.0000
  H   H141      1.0  0.2753  0.46039  0.0348  1.0000
  H   H142      1.0  0.26357  0.4471899999999999  0.9561800000000001  1.0000
  H   H143      1.0  0.25662  0.70387  0.30713  1.0000
  H   H144      1.0  0.19992  0.68602  0.20475  1.0000
  H   H145      1.0  0.28134  0.49655  0.20598  1.0000
  H   H146      1.0  0.33745  0.51556  0.30915  1.0000
  H   H147      1.0  0.15753  0.60568  0.12655  1.0000
  H   H148      1.0  0.19714  0.53111  0.12449  1.0000
  H   H149      1.0  0.96231  0.54839  0.91427  1.0000
  H   H150      1.0  0.05405999999999999  0.63242  0.89842  1.0000
  H   H151      1.0  0.03093  0.69124  0.08528  1.0000
  H   H152      1.0  0.94128  0.60493  0.10093  1.0000
  H   H153      1.0  0.09919  0.75795  0.0071200000000000005  1.0000
  H   H154      1.0  0.10557  0.72884  0.9319500000000001  1.0000
  H   H155      1.0  0.23063000000000003  0.7013  0.65689  1.0000
  H   H156      1.0  0.17873  0.68032  0.75913  1.0000
  H   H157      1.0  0.30893  0.51323  0.77382  1.0000
  H   H158      1.0  0.36046  0.53527  0.67108  1.0000
  H   H159      1.0  0.2149  0.53297  0.8477100000000001  1.0000
  H   H160      1.0  0.15378000000000003  0.59505  0.8386300000000001  1.0000
  C   C1        1.0  0.36467  0.93867  0.52455  1.0000
  C   C2        1.0  0.32817  0.93303  0.58644  1.0000
  C   C3        1.0  0.26957  0.82988  0.58114  1.0000
  C   C4        1.0  0.20302  0.79461  0.55749  1.0000
  C   C5        1.0  0.23506  0.78197  0.44956000000000007  1.0000
  C   C6        1.0  0.23192  0.81307  0.38670000000000004  1.0000
  C   C7        1.0  0.32679  0.89352  0.39184  1.0000
  C   C8        1.0  0.34501  0.95933  0.41570000000000007  1.0000
  C   C9        1.0  0.53068  0.22708  0.50356  1.0000
  C   C10       1.0  0.47513  0.17574  0.49815  1.0000
  C   C11       1.0  0.43216000000000004  0.16864  0.44533  1.0000
  C   C12       1.0  0.37946  0.12172  0.44223000000000007  1.0000
  C   C13       1.0  0.36629000000000006  0.08265  0.49241  1.0000
  C   C14       1.0  0.40996  0.08997  0.54506  1.0000
  C   C15       1.0  0.4648  0.13495  0.54748  1.0000
  C   C16       1.0  0.30305  0.03762  0.49106999999999995  1.0000
  C   C17       1.0  0.33564  0.8743899999999999  0.8749000000000001  1.0000
  C   C18       1.0  0.30146  0.88715  0.81351  1.0000
  C   C19       1.0  0.26201  0.8398899999999998  0.7832  1.0000
  C   C20       1.0  0.23057000000000002  0.85101  0.726  1.0000
  C   C21       1.0  0.23836  0.90937  0.69707  1.0000
  C   C22       1.0  0.27637  0.95699  0.72839  1.0000
  C   C23       1.0  0.30757  0.9462199999999998  0.7859200000000001  1.0000
  C   C24       1.0  0.20893  0.91962  0.63316  1.0000
  C   C25       1.0  0.89251  0.97973  0.51726  1.0000
  C   C26       1.0  0.9463100000000001  0.92808  0.50851  1.0000
  C   C27       1.0  0.9782  0.9202399999999998  0.45132000000000005  1.0000
  C   C28       1.0  0.02949  0.8733399999999999  0.44277  1.0000
  C   C29       1.0  0.04984  0.83305  0.49068  1.0000
  C   C30       1.0  0.01668  0.8403  0.54749  1.0000
  C   C31       1.0  0.96573  0.88774  0.55654  1.0000
  C   C32       1.0  0.10789000000000001  0.78491  0.47959  1.0000
  C   C33       1.0  0.32768  0.86862  0.09499  1.0000
  C   C34       1.0  0.29756  0.88074  0.15717  1.0000
  C   C35       1.0  0.24679000000000004  0.8396899999999999  0.18232  1.0000
  C   C36       1.0  0.21887999999999996  0.8509899999999999  0.24008  1.0000
  C   C37       1.0  0.24088  0.9037199999999999  0.27421  1.0000
  C   C38       1.0  0.29161  0.94469  0.24866  1.0000
  C   C39       1.0  0.31991  0.93344  0.19095  1.0000
  C   C40       1.0  0.21132  0.9163899999999999  0.33698  1.0000
  C   C41       1.0  0.63512  0.43873  0.9753  1.0000
  C   C42       1.0  0.67166  0.43277  0.91345  1.0000
  C   C43       1.0  0.73028  0.32959  0.91845  1.0000
  C   C44       1.0  0.79683  0.29433  0.9420800000000001  1.0000
  C   C45       1.0  0.765  0.28197  0.05013999999999999  1.0000
  C   C46       1.0  0.76819  0.31329  0.11304000000000002  1.0000
  C   C47       1.0  0.67313  0.39378  0.10799  1.0000
  C   C48       1.0  0.65468  0.45953999999999995  0.08419  1.0000
  C   C49       1.0  0.46723  0.72627  0.99635  1.0000
  C   C50       1.0  0.52379  0.67565  0.00186  1.0000
  C   C51       1.0  0.56682  0.66891  0.05471  1.0000
  C   C52       1.0  0.61985  0.62216  0.05778  1.0000
  C   C53       1.0  0.63333  0.58291  0.00759  1.0000
  C   C54       1.0  0.58976  0.59003  0.9548700000000001  1.0000
  C   C55       1.0  0.53466  0.6348299999999999  0.95248  1.0000
  C   C56       1.0  0.69663  0.5378  0.00901  1.0000
  C   C57       1.0  0.66421  0.37702  0.6247  1.0000
  C   C58       1.0  0.69866  0.38886  0.68616  1.0000
  C   C59       1.0  0.738  0.34117  0.71572  1.0000
  C   C60       1.0  0.7691  0.35138  0.77326  1.0000
  C   C61       1.0  0.76139  0.40945999999999994  0.80295  1.0000
  C   C62       1.0  0.72339  0.45752999999999994  0.7724100000000002  1.0000
  C   C63       1.0  0.69218  0.44753  0.71475  1.0000
  C   C64       1.0  0.79094  0.41921  0.86689  1.0000
  C   C65       1.0  0.1073  0.4798299999999999  0.98264  1.0000
  C   C66       1.0  0.0533  0.42839  0.99141  1.0000
  C   C67       1.0  0.02177  0.4203  0.04866  1.0000
  C   C68       1.0  0.97039  0.37348  0.057  1.0000
  C   C69       1.0  0.9499000000000001  0.33329  0.0089  1.0000
  C   C70       1.0  0.98274  0.34077  0.9520000000000001  1.0000
  C   C71       1.0  0.03346  0.38833  0.94311  1.0000
  C   C72       1.0  0.8921000000000001  0.28498  0.01987  1.0000
  C   C73       1.0  0.67043  0.3672  0.40377  1.0000
  C   C74       1.0  0.7009  0.38019  0.34195  1.0000
  C   C75       1.0  0.75221  0.33945  0.3168  1.0000
  C   C76       1.0  0.7808700000000001  0.35133  0.25947  1.0000
  C   C77       1.0  0.75888  0.40419  0.22569  1.0000
  C   C78       1.0  0.70785  0.44499  0.25135  1.0000
  C   C79       1.0  0.67896  0.43327  0.30873  1.0000
  C   C80       1.0  0.78849  0.4168299999999999  0.16298  1.0000
  C   C81       1.0  0.63533  0.061329999999999996  0.47545  1.0000
  C   C82       1.0  0.67183  0.06697  0.41356000000000004  1.0000
  C   C83       1.0  0.73043  0.17012  0.41886000000000007  1.0000
  C   C84       1.0  0.79698  0.20539  0.44251000000000007  1.0000
  C   C85       1.0  0.76494  0.21803  0.55044  1.0000
  C   C86       1.0  0.76808  0.18693  0.6133  1.0000
  C   C87       1.0  0.67321  0.10647999999999999  0.60817  1.0000
  C   C88       1.0  0.65499  0.04067  0.5843  1.0000
  C   C89       1.0  0.46932  0.77292  0.49644999999999995  1.0000
  C   C90       1.0  0.52487  0.8242599999999999  0.50185  1.0000
  C   C91       1.0  0.56784  0.83136  0.55467  1.0000
  C   C92       1.0  0.62054  0.87828  0.55778  1.0000
  C   C93       1.0  0.63371  0.9173499999999999  0.50759  1.0000
  C   C94       1.0  0.59004  0.91003  0.45494000000000007  1.0000
  C   C95       1.0  0.5352  0.8650499999999999  0.45252000000000003  1.0000
  C   C96       1.0  0.69695  0.96238  0.50893  1.0000
  C   C97       1.0  0.66436  0.12561  0.1251  1.0000
  C   C98       1.0  0.69854  0.11284999999999999  0.18649  1.0000
  C   C99       1.0  0.73799  0.16011  0.21680000000000002  1.0000
  C   C100      1.0  0.76943  0.14898  0.274  1.0000
  C   C101      1.0  0.76164  0.09063  0.30293  1.0000
  C   C102      1.0  0.72363  0.04301  0.27161  1.0000
  C   C103      1.0  0.69243  0.05378  0.21408  1.0000
  C   C104      1.0  0.79107  0.08038  0.36684  1.0000
  C   C105      1.0  0.10749  0.02026  0.48274  1.0000
  C   C106      1.0  0.05369  0.07191999999999998  0.49149000000000004  1.0000
  C   C107      1.0  0.0218  0.07976  0.54868  1.0000
  C   C108      1.0  0.9705100000000001  0.12666  0.55723  1.0000
  C   C109      1.0  0.9501600000000001  0.16694999999999996  0.50932  1.0000
  C   C110      1.0  0.98332  0.1597  0.45251  1.0000
  C   C111      1.0  0.03427  0.11225999999999998  0.44346  1.0000
  C   C112      1.0  0.8921099999999998  0.21508999999999998  0.52041  1.0000
  C   C113      1.0  0.67232  0.13138  0.90501  1.0000
  C   C114      1.0  0.70244  0.11925  0.84284  1.0000
  C   C115      1.0  0.75321  0.16031  0.81768  1.0000
  C   C116      1.0  0.78112  0.14901  0.75992  1.0000
  C   C117      1.0  0.75912  0.09628  0.72579  1.0000
  C   C118      1.0  0.70839  0.05531  0.7513400000000001  1.0000
  C   C119      1.0  0.68009  0.06656  0.8090500000000002  1.0000
  C   C120      1.0  0.78868  0.08361  0.66303  1.0000
  C   C121      1.0  0.36488  0.56127  0.0247  1.0000
  C   C122      1.0  0.32834  0.5672299999999999  0.08655  1.0000
  C   C123      1.0  0.26972  0.67041  0.08155  1.0000
  C   C124      1.0  0.20316  0.70567  0.05793000000000001  1.0000
  C   C125      1.0  0.235  0.71803  0.94986  1.0000
  C   C126      1.0  0.23181  0.68671  0.8869600000000001  1.0000
  C   C127      1.0  0.32687  0.60622  0.89201  1.0000
  C   C128      1.0  0.34532  0.54046  0.9158099999999999  1.0000
  C   C129      1.0  0.53277  0.27373  0.0036599999999999996  1.0000
  C   C130      1.0  0.47621  0.32435  0.99814  1.0000
  C   C131      1.0  0.43318  0.33109  0.94529  1.0000
  C   C132      1.0  0.38015  0.37784  0.94222  1.0000
  C   C133      1.0  0.36667  0.41708999999999996  0.99241  1.0000
  C   C134      1.0  0.41024  0.40997  0.04514  1.0000
  C   C135      1.0  0.46534  0.36517  0.04752000000000001  1.0000
  C   C136      1.0  0.30337  0.4621999999999999  0.991  1.0000
  C   C137      1.0  0.33579  0.62298  0.37531  1.0000
  C   C138      1.0  0.30134  0.61114  0.31384  1.0000
  C   C139      1.0  0.262  0.6588299999999999  0.28428  1.0000
  C   C140      1.0  0.23089  0.64862  0.22674999999999998  1.0000
  C   C141      1.0  0.23861  0.59054  0.19705  1.0000
  C   C142      1.0  0.27661  0.54247  0.2276  1.0000
  C   C143      1.0  0.30781  0.55247  0.28526  1.0000
  C   C144      1.0  0.20906  0.58079  0.13311  1.0000
  C   C145      1.0  0.8927  0.52017  0.01736  1.0000
  C   C146      1.0  0.9467000000000001  0.57161  0.00859  1.0000
  C   C147      1.0  0.9782300000000002  0.5796999999999999  0.9513500000000001  1.0000
  C   C148      1.0  0.02961  0.62652  0.9430100000000001  1.0000
  C   C149      1.0  0.0501  0.66671  0.9911  1.0000
  C   C150      1.0  0.01726  0.65923  0.048  1.0000
  C   C151      1.0  0.96654  0.61167  0.0569  1.0000
  C   C152      1.0  0.1079  0.71502  0.98013  1.0000
  C   C153      1.0  0.32957  0.6328  0.59623  1.0000
  C   C154      1.0  0.2991  0.6198099999999999  0.65805  1.0000
  C   C155      1.0  0.24779  0.66054  0.68321  1.0000
  C   C156      1.0  0.21913  0.64867  0.74053  1.0000
  C   C157      1.0  0.24112  0.5958099999999998  0.77431  1.0000
  C   C158      1.0  0.29215  0.55501  0.74866  1.0000
  C   C159      1.0  0.32104  0.56673  0.69127  1.0000
  C   C160      1.0  0.21151  0.58317  0.83702  1.0000
  N   N1        1.0  0.25841  0.89881  0.58336  1.0000
  N   N2        1.0  0.31812  0.97  0.47815  1.0000
  N   N3        1.0  0.18259  0.80952  0.49292  1.0000
  N   N4        1.0  0.24766  0.88152  0.38833000000000006  1.0000
  N   N5        1.0  0.74141  0.39849  0.9165500000000001  1.0000
  N   N6        1.0  0.68157  0.47019  0.02177  1.0000
  N   N7        1.0  0.81728  0.30937  0.00668  1.0000
  N   N8        1.0  0.75229  0.38176  0.11153  1.0000
  N   N9        1.0  0.74159  0.10119  0.41664  1.0000
  N   N10       1.0  0.68188  0.03  0.52185  1.0000
  N   N11       1.0  0.81741  0.19048  0.50708  1.0000
  N   N12       1.0  0.75234  0.11848  0.61167  1.0000
  N   N13       1.0  0.25859  0.60151  0.08345  1.0000
  N   N14       1.0  0.31842  0.5298099999999999  0.97823  1.0000
  N   N15       1.0  0.18272000000000002  0.69063  0.99333  1.0000
  N   N16       1.0  0.24769999999999998  0.61824  0.88847  1.0000
  O   O1        1.0  0.50956  0.28295  0.49074  1.0000
  O   O2        1.0  0.59395  0.21259  0.52136  1.0000
  O   O3        1.0  0.37097  0.9170599999999999  0.90286  1.0000
  O   O4        1.0  0.32708  0.8190499999999998  0.89707  1.0000
  O   O5        1.0  0.8656599999999999  0.9900999999999999  0.56939  1.0000
  O   O6        1.0  0.8760399999999999  0.012619999999999998  0.46971  1.0000
  O   O7        1.0  0.30201  0.8224199999999999  0.06383  1.0000
  O   O8        1.0  0.37792  0.904  0.07565  1.0000
  O   O9        1.0  0.48737  0.78246  0.00928  1.0000
  O   O10       1.0  0.4042  0.71097  0.97862  1.0000
  O   O11       1.0  0.62494  0.41859  0.59959  1.0000
  O   O12       1.0  0.67651  0.32321  0.59988  1.0000
  O   O13       1.0  0.1313  0.49171  0.92994  1.0000
  O   O14       1.0  0.12701  0.5109  0.030620000000000005  1.0000
  O   O15       1.0  0.69474  0.31979  0.43351000000000006  1.0000
  O   O16       1.0  0.62145  0.40326  0.4244200000000001  1.0000
  O   O17       1.0  0.49044  0.71705  0.50926  1.0000
  O   O18       1.0  0.40605  0.78741  0.47863999999999995  1.0000
  O   O19       1.0  0.62903  0.08293999999999999  0.09714999999999999  1.0000
  O   O20       1.0  0.67292  0.18095  0.10293  1.0000
  O   O21       1.0  0.13433  0.0099  0.43062  1.0000
  O   O22       1.0  0.12396  0.98738  0.53029  1.0000
  O   O23       1.0  0.69799  0.17758  0.93618  1.0000
  O   O24       1.0  0.62208  0.096  0.92436  1.0000
  O   O25       1.0  0.51263  0.21753999999999998  0.99073  1.0000
  O   O26       1.0  0.5958  0.28903  0.02138  1.0000
  O   O27       1.0  0.37505  0.58141  0.40041  1.0000
  O   O28       1.0  0.32349  0.6767899999999999  0.40012  1.0000
  O   O29       1.0  0.8687  0.50829  0.07006  1.0000
  O   O30       1.0  0.87299  0.4890999999999999  0.96938  1.0000
  O   O31       1.0  0.30526000000000003  0.68021  0.56649  1.0000
  O   O32       1.0  0.37855  0.59674  0.57558  1.0000
