data_image0
_chemical_formula_structural       Zn20H80C128N48O48
_chemical_formula_sum              "Zn20 H80 C128 N48 O48"
_cell_length_a       10.12663
_cell_length_b       17.81057
_cell_length_c       24.81734
_cell_angle_alpha    90.0
_cell_angle_beta     90.71767
_cell_angle_gamma    90.0

_symmetry_space_group_name_H-M    'P 1'
_symmetry_Int_Tables_number       1

loop_
  _symmetry_equiv_pos_as_xyz
  'x,y,z'

loop_
  _atom_site_type_symbol
  _atom_site_label
  _atom_site_symmetry_multiplicity
  _atom_site_fract_x
  _atom_site_fract_y
  _atom_site_fract_z
  _atom_site_occupancy
  Zn  Zn1       1.0  0.38913  0.6224599999999999  0.9648099999999998  1.0000
  Zn  Zn2       1.0  0.8909  0.55846  0.83209  1.0000
  Zn  Zn3       1.0  0.8716600000000001  0.75383  0.8714999999999999  1.0000
  Zn  Zn4       1.0  0.3571  0.87674  0.7722699999999998  1.0000
  Zn  Zn5       1.0  0.85638  0.95267  0.90417  1.0000
  Zn  Zn6       1.0  0.88913  0.87754  0.46481  1.0000
  Zn  Zn7       1.0  0.3909  0.9415399999999999  0.33208999999999994  1.0000
  Zn  Zn8       1.0  0.37166  0.74618  0.3715  1.0000
  Zn  Zn9       1.0  0.8571100000000001  0.62326  0.27227999999999997  1.0000
  Zn  Zn10      1.0  0.35639  0.54733  0.40418  1.0000
  Zn  Zn11      1.0  0.11085  0.12246  0.53519  1.0000
  Zn  Zn12      1.0  0.60908  0.05845  0.66791  1.0000
  Zn  Zn13      1.0  0.62833  0.25381999999999993  0.6284999999999998  1.0000
  Zn  Zn14      1.0  0.14288  0.37674  0.7277199999999999  1.0000
  Zn  Zn15      1.0  0.6436000000000001  0.45266999999999996  0.59582  1.0000
  Zn  Zn16      1.0  0.6108600000000001  0.3775399999999999  0.03519  1.0000
  Zn  Zn17      1.0  0.10909000000000002  0.4415399999999999  0.16790999999999995  1.0000
  Zn  Zn18      1.0  0.12833  0.24616999999999997  0.12849999999999998  1.0000
  Zn  Zn19      1.0  0.64289  0.12326  0.22771999999999998  1.0000
  Zn  Zn20      1.0  0.1436  0.04733  0.09582  1.0000
  H   H1        1.0  0.17381  0.51528  0.8936099999999999  1.0000
  H   H2        1.0  0.16111  0.73877  0.9497099999999998  1.0000
  H   H3        1.0  0.14806  0.76887  0.80436  1.0000
  H   H4        1.0  0.15115  0.99721  0.8480499999999999  1.0000
  H   H5        1.0  0.59575  0.7327999999999998  0.9372399999999999  1.0000
  H   H6        1.0  0.60002  0.50601  0.88909  1.0000
  H   H7        1.0  0.57865  0.7591399999999998  0.80097  1.0000
  H   H8        1.0  0.58029  0.99183  0.83162  1.0000
  H   H9        1.0  0.4618399999999999  0.8992599999999998  0.15681  1.0000
  H   H10       1.0  0.44333000000000006  0.6849999999999998  0.23509  1.0000
  H   H11       1.0  0.45015  0.62118  0.14575  1.0000
  H   H12       1.0  0.45931000000000005  0.8358499999999999  0.06678999999999999  1.0000
  H   H13       1.0  0.78795  0.69634  0.00726  1.0000
  H   H14       1.0  0.81202  0.9120599999999999  0.08322  1.0000
  H   H15       1.0  0.80952  0.8490899999999998  0.1745  1.0000
  H   H16       1.0  0.77929  0.6344  0.09716  1.0000
  H   H17       1.0  0.86411  0.3272699999999999  0.78733  1.0000
  H   H18       1.0  0.90781  0.328  0.9587799999999997  1.0000
  H   H19       1.0  0.85645  0.18511  0.78776  1.0000
  H   H20       1.0  0.8875500000000001  0.18626  0.95981  1.0000
  H   H21       1.0  0.67381  0.98472  0.39361  1.0000
  H   H22       1.0  0.66111  0.7612299999999997  0.44971  1.0000
  H   H23       1.0  0.64807  0.73113  0.30436  1.0000
  H   H24       1.0  0.65115  0.50279  0.34804999999999997  1.0000
  H   H25       1.0  0.09574999999999999  0.7672  0.4372499999999999  1.0000
  H   H26       1.0  0.10002  0.99399  0.38909999999999995  1.0000
  H   H27       1.0  0.07865  0.74086  0.30097  1.0000
  H   H28       1.0  0.0803  0.5081699999999998  0.33161999999999997  1.0000
  H   H29       1.0  0.96184  0.6007399999999999  0.65681  1.0000
  H   H30       1.0  0.94333  0.815  0.73509  1.0000
  H   H31       1.0  0.9501499999999999  0.87883  0.6457499999999999  1.0000
  H   H32       1.0  0.9593  0.66415  0.56679  1.0000
  H   H33       1.0  0.28795  0.80366  0.50726  1.0000
  H   H34       1.0  0.31202  0.58795  0.58322  1.0000
  H   H35       1.0  0.30951  0.65091  0.6744999999999998  1.0000
  H   H36       1.0  0.27929  0.86561  0.59715  1.0000
  H   H37       1.0  0.36411  0.17272999999999997  0.28733  1.0000
  H   H38       1.0  0.40782  0.17201  0.4587799999999999  1.0000
  H   H39       1.0  0.35646  0.31489  0.28776  1.0000
  H   H40       1.0  0.38755  0.31374  0.4598099999999999  1.0000
  H   H41       1.0  0.32617  0.015269999999999999  0.6063899999999999  1.0000
  H   H42       1.0  0.33887  0.23875999999999997  0.55028  1.0000
  H   H43       1.0  0.35192  0.26887  0.69563  1.0000
  H   H44       1.0  0.34883  0.49720999999999993  0.6519499999999998  1.0000
  H   H45       1.0  0.9042300000000001  0.23278999999999997  0.56275  1.0000
  H   H46       1.0  0.89996  0.00601  0.6109  1.0000
  H   H47       1.0  0.92134  0.25914  0.6990199999999998  1.0000
  H   H48       1.0  0.9196900000000001  0.49183  0.66838  1.0000
  H   H49       1.0  0.038149999999999996  0.3992599999999999  0.34318999999999994  1.0000
  H   H50       1.0  0.05666000000000001  0.185  0.26491  1.0000
  H   H51       1.0  0.04984  0.12117  0.3542499999999999  1.0000
  H   H52       1.0  0.04068  0.3358499999999999  0.43321  1.0000
  H   H53       1.0  0.71204  0.19633  0.49274  1.0000
  H   H54       1.0  0.6879700000000002  0.4120499999999999  0.41678  1.0000
  H   H55       1.0  0.69047  0.34909  0.32549999999999996  1.0000
  H   H56       1.0  0.7207  0.13439  0.4028399999999999  1.0000
  H   H57       1.0  0.63588  0.82727  0.71267  1.0000
  H   H58       1.0  0.59217  0.8279899999999999  0.54121  1.0000
  H   H59       1.0  0.64353  0.68511  0.71224  1.0000
  H   H60       1.0  0.61244  0.68626  0.54018  1.0000
  H   H61       1.0  0.82618  0.48472  0.10638999999999998  1.0000
  H   H62       1.0  0.83888  0.26123  0.05028  1.0000
  H   H63       1.0  0.85193  0.23112  0.19563999999999995  1.0000
  H   H64       1.0  0.84884  0.00279  0.15195  1.0000
  H   H65       1.0  0.40424000000000004  0.2672  0.06275  1.0000
  H   H66       1.0  0.39997  0.49399  0.11089999999999998  1.0000
  H   H67       1.0  0.42134  0.24086  0.19903  1.0000
  H   H68       1.0  0.41969  0.00817  0.16838  1.0000
  H   H69       1.0  0.53814  0.10074  0.84318  1.0000
  H   H70       1.0  0.55666  0.315  0.76491  1.0000
  H   H71       1.0  0.5498399999999999  0.3788199999999999  0.8542499999999997  1.0000
  H   H72       1.0  0.54068  0.16414999999999996  0.9331999999999999  1.0000
  H   H73       1.0  0.21204000000000003  0.30366  0.99274  1.0000
  H   H74       1.0  0.18796  0.08793999999999999  0.91678  1.0000
  H   H75       1.0  0.19047  0.15091  0.8254999999999998  1.0000
  H   H76       1.0  0.22069000000000003  0.3656  0.90284  1.0000
  H   H77       1.0  0.13588  0.6727299999999998  0.21266999999999997  1.0000
  H   H78       1.0  0.09218  0.672  0.04122  1.0000
  H   H79       1.0  0.14353  0.8148899999999998  0.21223999999999996  1.0000
  H   H80       1.0  0.11244000000000001  0.8137399999999998  0.04018  1.0000
  C   C1        1.0  0.14635  0.57336  0.89989  1.0000
  C   C2        1.0  0.13777999999999999  0.68716  0.9285299999999999  1.0000
  C   C3        1.0  0.12306999999999998  0.82202  0.82279  1.0000
  C   C4        1.0  0.12587  0.9383299999999999  0.8449799999999997  1.0000
  C   C5        1.0  0.62225  0.6807099999999999  0.9176399999999999  1.0000
  C   C6        1.0  0.6231  0.56523  0.8928099999999999  1.0000
  C   C7        1.0  0.60483  0.81422  0.81625  1.0000
  C   C8        1.0  0.60436  0.9326499999999999  0.8322599999999998  1.0000
  C   C9        1.0  0.42437  0.83327  0.25394  1.0000
  C   C10       1.0  0.4517300000000001  0.7961699999999998  0.20124999999999996  1.0000
  C   C11       1.0  0.46103000000000005  0.8384699999999999  0.15389  1.0000
  C   C12       1.0  0.45213  0.71749  0.19826  1.0000
  C   C13       1.0  0.45432  0.6819999999999998  0.14848999999999998  1.0000
  C   C14       1.0  0.4598  0.8032899999999997  0.10385  1.0000
  C   C15       1.0  0.4532  0.72469  0.10099  1.0000
  C   C16       1.0  0.43415000000000004  0.68723  0.04827999999999999  1.0000
  C   C17       1.0  0.82488  0.84137  0.98552  1.0000
  C   C18       1.0  0.7996800000000001  0.8081  0.03999  1.0000
  C   C19       1.0  0.78736  0.72975  0.043829999999999994  1.0000
  C   C20       1.0  0.802  0.8514799999999999  0.0871  1.0000
  C   C21       1.0  0.8005299999999999  0.8166299999999999  0.1375  1.0000
  C   C22       1.0  0.78366  0.6951299999999999  0.09379  1.0000
  C   C23       1.0  0.7941399999999998  0.73803  0.14101  1.0000
  C   C24       1.0  0.8103600000000001  0.69827  0.19316  1.0000
  C   C25       1.0  0.8991700000000001  0.41868  0.8725599999999998  1.0000
  C   C26       1.0  0.88743  0.3350699999999999  0.87293  1.0000
  C   C27       1.0  0.8717800000000001  0.29545  0.82453  1.0000
  C   C28       1.0  0.89368  0.29581  0.92187  1.0000
  C   C29       1.0  0.86625  0.21758  0.82473  1.0000
  C   C30       1.0  0.8715100000000001  0.17829  0.8736  1.0000
  C   C31       1.0  0.8839000000000001  0.21787  0.9223199999999999  1.0000
  C   C32       1.0  0.86589  0.09446  0.8719699999999999  1.0000
  C   C33       1.0  0.64635  0.92664  0.39989  1.0000
  C   C34       1.0  0.63778  0.81285  0.42852999999999997  1.0000
  C   C35       1.0  0.62307  0.67798  0.3228  1.0000
  C   C36       1.0  0.62588  0.56167  0.3449799999999999  1.0000
  C   C37       1.0  0.12225  0.81929  0.41764  1.0000
  C   C38       1.0  0.1231  0.93477  0.39281  1.0000
  C   C39       1.0  0.10484  0.68578  0.31626  1.0000
  C   C40       1.0  0.10436  0.56735  0.3322699999999999  1.0000
  C   C41       1.0  0.92437  0.6667299999999999  0.7539399999999998  1.0000
  C   C42       1.0  0.9517299999999999  0.70383  0.70125  1.0000
  C   C43       1.0  0.9610200000000001  0.66153  0.6538799999999999  1.0000
  C   C44       1.0  0.9521300000000001  0.7825099999999998  0.69826  1.0000
  C   C45       1.0  0.95431  0.818  0.64848  1.0000
  C   C46       1.0  0.9597900000000001  0.69671  0.60384  1.0000
  C   C47       1.0  0.95319  0.77531  0.60099  1.0000
  C   C48       1.0  0.9341500000000001  0.8127699999999998  0.54828  1.0000
  C   C49       1.0  0.32489  0.6586299999999998  0.48552  1.0000
  C   C50       1.0  0.29968  0.6919  0.5399899999999999  1.0000
  C   C51       1.0  0.28736  0.77025  0.54383  1.0000
  C   C52       1.0  0.30199  0.64852  0.5871  1.0000
  C   C53       1.0  0.30053  0.68337  0.63749  1.0000
  C   C54       1.0  0.28365  0.80487  0.5937899999999999  1.0000
  C   C55       1.0  0.29414  0.7619699999999998  0.64101  1.0000
  C   C56       1.0  0.31036  0.8017299999999998  0.6931599999999998  1.0000
  C   C57       1.0  0.39916999999999997  0.08132  0.37255999999999995  1.0000
  C   C58       1.0  0.38744  0.16492999999999997  0.37293  1.0000
  C   C59       1.0  0.37179  0.20455  0.32453  1.0000
  C   C60       1.0  0.39369  0.20419  0.42188  1.0000
  C   C61       1.0  0.36626  0.28242  0.32473  1.0000
  C   C62       1.0  0.37152  0.32171  0.3735999999999999  1.0000
  C   C63       1.0  0.38391000000000003  0.28214  0.42231999999999986  1.0000
  C   C64       1.0  0.3659  0.4055299999999999  0.37197  1.0000
  C   C65       1.0  0.35364  0.07336  0.6000999999999999  1.0000
  C   C66       1.0  0.36221000000000003  0.18715  0.57147  1.0000
  C   C67       1.0  0.37691  0.32202  0.6772  1.0000
  C   C68       1.0  0.37411  0.43833  0.6550199999999999  1.0000
  C   C69       1.0  0.87774  0.18071  0.58236  1.0000
  C   C70       1.0  0.87688  0.06522  0.6071899999999999  1.0000
  C   C71       1.0  0.89515  0.31422  0.68374  1.0000
  C   C72       1.0  0.89563  0.43265  0.6677299999999999  1.0000
  C   C73       1.0  0.07562  0.33327  0.24604999999999994  1.0000
  C   C74       1.0  0.04826  0.29617  0.29875  1.0000
  C   C75       1.0  0.03896  0.33846999999999994  0.34611  1.0000
  C   C76       1.0  0.04786  0.21748  0.30174  1.0000
  C   C77       1.0  0.04567  0.18199999999999994  0.3515099999999999  1.0000
  C   C78       1.0  0.0402  0.30329  0.3961499999999999  1.0000
  C   C79       1.0  0.0468  0.22469  0.39899999999999997  1.0000
  C   C80       1.0  0.06584  0.18723  0.45171999999999995  1.0000
  C   C81       1.0  0.6751  0.34136999999999995  0.51447  1.0000
  C   C82       1.0  0.70031  0.3081  0.46001  1.0000
  C   C83       1.0  0.71263  0.22974999999999995  0.45616  1.0000
  C   C84       1.0  0.69799  0.35147999999999996  0.4129  1.0000
  C   C85       1.0  0.69946  0.3166299999999999  0.3624999999999999  1.0000
  C   C86       1.0  0.71633  0.19513  0.40620999999999996  1.0000
  C   C87       1.0  0.70585  0.23803  0.35898  1.0000
  C   C88       1.0  0.68963  0.19826999999999995  0.30684  1.0000
  C   C89       1.0  0.60081  0.91868  0.62743  1.0000
  C   C90       1.0  0.61255  0.83507  0.6270599999999998  1.0000
  C   C91       1.0  0.6282  0.79545  0.67547  1.0000
  C   C92       1.0  0.6063  0.79581  0.5781199999999999  1.0000
  C   C93       1.0  0.63373  0.7175799999999998  0.6752699999999999  1.0000
  C   C94       1.0  0.62847  0.6782899999999997  0.62639  1.0000
  C   C95       1.0  0.61608  0.71786  0.57768  1.0000
  C   C96       1.0  0.63409  0.5944699999999999  0.6280299999999999  1.0000
  C   C97       1.0  0.8536400000000001  0.42664  0.10010999999999998  1.0000
  C   C98       1.0  0.8622099999999999  0.31284  0.07147  1.0000
  C   C99       1.0  0.87692  0.17798  0.1772  1.0000
  C   C100      1.0  0.8741099999999999  0.06167  0.15501999999999996  1.0000
  C   C101      1.0  0.37774  0.31929  0.08236  1.0000
  C   C102      1.0  0.37689  0.4347699999999999  0.10719  1.0000
  C   C103      1.0  0.39516  0.18578  0.18373999999999993  1.0000
  C   C104      1.0  0.39563000000000004  0.06735  0.16773  1.0000
  C   C105      1.0  0.5756199999999999  0.16672  0.7460499999999998  1.0000
  C   C106      1.0  0.54826  0.20383  0.79875  1.0000
  C   C107      1.0  0.53896  0.16152999999999995  0.8461099999999998  1.0000
  C   C108      1.0  0.54786  0.28251  0.80173  1.0000
  C   C109      1.0  0.54567  0.31799999999999995  0.8515099999999998  1.0000
  C   C110      1.0  0.54019  0.19670999999999994  0.8961499999999998  1.0000
  C   C111      1.0  0.54679  0.2753  0.8989999999999998  1.0000
  C   C112      1.0  0.56583  0.31277  0.95172  1.0000
  C   C113      1.0  0.17511  0.15863  0.014479999999999996  1.0000
  C   C114      1.0  0.20030000000000003  0.1919  0.9600099999999998  1.0000
  C   C115      1.0  0.21263  0.27024  0.95616  1.0000
  C   C116      1.0  0.19799  0.14851  0.9129  1.0000
  C   C117      1.0  0.19946000000000003  0.18336999999999995  0.8625  1.0000
  C   C118      1.0  0.21633  0.30486  0.9061999999999999  1.0000
  C   C119      1.0  0.20585000000000003  0.26197  0.85898  1.0000
  C   C120      1.0  0.18963  0.3017199999999999  0.8068399999999998  1.0000
  C   C121      1.0  0.10082000000000002  0.58132  0.12744  1.0000
  C   C122      1.0  0.11256000000000001  0.6649299999999998  0.12706  1.0000
  C   C123      1.0  0.12821  0.7045499999999999  0.17546999999999993  1.0000
  C   C124      1.0  0.1063  0.7041899999999998  0.07812  1.0000
  C   C125      1.0  0.13373  0.78242  0.17527  1.0000
  C   C126      1.0  0.12848  0.8217  0.12639  1.0000
  C   C127      1.0  0.11609000000000001  0.7821299999999998  0.07767999999999999  1.0000
  C   C128      1.0  0.13409  0.90553  0.12803  1.0000
  N   N1        1.0  0.03900000000000001  0.6046799999999998  0.87833  1.0000
  N   N2        1.0  0.03304  0.6773499999999998  0.89664  1.0000
  N   N3        1.0  0.21274  0.6233699999999998  0.9316299999999998  1.0000
  N   N4        1.0  0.018440000000000005  0.8335  0.85317  1.0000
  N   N5        1.0  0.01995  0.9078499999999999  0.86766  1.0000
  N   N6        1.0  0.19448  0.8862299999999997  0.8165799999999998  1.0000
  N   N7        1.0  0.72747  0.59819  0.87066  1.0000
  N   N8        1.0  0.7267  0.67181  0.88679  1.0000
  N   N9        1.0  0.55326  0.61543  0.9224699999999998  1.0000
  N   N10       1.0  0.71245  0.82854  0.84548  1.0000
  N   N11       1.0  0.71177  0.90431  0.85602  1.0000
  N   N12       1.0  0.53297  0.8779599999999997  0.80703  1.0000
  N   N13       1.0  0.539  0.89532  0.37833999999999995  1.0000
  N   N14       1.0  0.53304  0.82265  0.39664  1.0000
  N   N15       1.0  0.7127400000000002  0.87663  0.43162999999999996  1.0000
  N   N16       1.0  0.51845  0.6665  0.3531699999999999  1.0000
  N   N17       1.0  0.51995  0.59215  0.36767  1.0000
  N   N18       1.0  0.69448  0.61377  0.31658  1.0000
  N   N19       1.0  0.22747  0.9018099999999998  0.37066  1.0000
  N   N20       1.0  0.2267  0.8281899999999998  0.38679  1.0000
  N   N21       1.0  0.05326  0.88457  0.42246999999999996  1.0000
  N   N22       1.0  0.21245  0.6714599999999997  0.34547999999999995  1.0000
  N   N23       1.0  0.21177000000000004  0.59569  0.35601999999999995  1.0000
  N   N24       1.0  0.03298  0.62203  0.30703  1.0000
  N   N25       1.0  0.46099000000000007  0.10468  0.62166  1.0000
  N   N26       1.0  0.46695  0.17734999999999995  0.60335  1.0000
  N   N27       1.0  0.28724  0.12337  0.5683699999999999  1.0000
  N   N28       1.0  0.4815400000000001  0.3335  0.64683  1.0000
  N   N29       1.0  0.48003000000000007  0.40785  0.6323299999999998  1.0000
  N   N30       1.0  0.30551  0.38623  0.6834199999999998  1.0000
  N   N31       1.0  0.77252  0.09818999999999999  0.62933  1.0000
  N   N32       1.0  0.77329  0.17180999999999996  0.61321  1.0000
  N   N33       1.0  0.94673  0.11543  0.57753  1.0000
  N   N34       1.0  0.78753  0.32854  0.65452  1.0000
  N   N35       1.0  0.78822  0.4043099999999999  0.64398  1.0000
  N   N36       1.0  0.96701  0.37796  0.69297  1.0000
  N   N37       1.0  0.96099  0.39531  0.12165999999999999  1.0000
  N   N38       1.0  0.9669500000000001  0.32264999999999994  0.10335999999999998  1.0000
  N   N39       1.0  0.78725  0.37662999999999996  0.06837  1.0000
  N   N40       1.0  0.98155  0.1665  0.14683  1.0000
  N   N41       1.0  0.9800400000000001  0.09215  0.13233  1.0000
  N   N42       1.0  0.80551  0.11377  0.18341999999999997  1.0000
  N   N43       1.0  0.27252  0.40180999999999994  0.12934  1.0000
  N   N44       1.0  0.27329  0.32819  0.11321  1.0000
  N   N45       1.0  0.44673  0.38457  0.07752999999999999  1.0000
  N   N46       1.0  0.28753999999999996  0.17146  0.15451999999999996  1.0000
  N   N47       1.0  0.28822  0.09569  0.14398  1.0000
  N   N48       1.0  0.46701  0.12203  0.19297  1.0000
  O   O1        1.0  0.43366  0.9051899999999999  0.25708  1.0000
  O   O2        1.0  0.38718  0.7916  0.29228999999999994  1.0000
  O   O3        1.0  0.41399  0.72625  0.00542  1.0000
  O   O4        1.0  0.43288  0.61456  0.045139999999999986  1.0000
  O   O5        1.0  0.85447  0.7945799999999997  0.94908  1.0000
  O   O6        1.0  0.81968  0.9126299999999999  0.9790099999999998  1.0000
  O   O7        1.0  0.8134  0.62538  0.19308999999999998  1.0000
  O   O8        1.0  0.82686  0.7337699999999998  0.23767999999999997  1.0000
  O   O9        1.0  0.8797300000000001  0.45031999999999994  0.8251699999999997  1.0000
  O   O10       1.0  0.9255  0.45421  0.91471  1.0000
  O   O11       1.0  0.85355  0.060419999999999995  0.91843  1.0000
  O   O12       1.0  0.87366  0.06011999999999999  0.82809  1.0000
  O   O13       1.0  0.93366  0.59481  0.75708  1.0000
  O   O14       1.0  0.88717  0.7083999999999998  0.7922799999999999  1.0000
  O   O15       1.0  0.9139800000000001  0.77376  0.5054199999999999  1.0000
  O   O16       1.0  0.93287  0.8854399999999998  0.54514  1.0000
  O   O17       1.0  0.35447  0.70541  0.44908  1.0000
  O   O18       1.0  0.3196800000000001  0.5873699999999997  0.47901  1.0000
  O   O19       1.0  0.3134  0.87462  0.69309  1.0000
  O   O20       1.0  0.32685  0.76623  0.7376799999999999  1.0000
  O   O21       1.0  0.37974  0.049679999999999995  0.3251699999999999  1.0000
  O   O22       1.0  0.42551  0.04579  0.41471  1.0000
  O   O23       1.0  0.35356  0.43958  0.41843  1.0000
  O   O24       1.0  0.37367  0.43987  0.32808999999999994  1.0000
  O   O25       1.0  0.06633  0.40519  0.24291999999999997  1.0000
  O   O26       1.0  0.11280999999999998  0.2916  0.20771  1.0000
  O   O27       1.0  0.08601000000000003  0.22624  0.49458  1.0000
  O   O28       1.0  0.06711  0.11456  0.45485  1.0000
  O   O29       1.0  0.64552  0.29458  0.55092  1.0000
  O   O30       1.0  0.6803  0.41263  0.5209799999999999  1.0000
  O   O31       1.0  0.68659  0.12537999999999996  0.3069  1.0000
  O   O32       1.0  0.67313  0.23376999999999998  0.26232  1.0000
  O   O33       1.0  0.62025  0.95032  0.6748199999999999  1.0000
  O   O34       1.0  0.57448  0.95421  0.58529  1.0000
  O   O35       1.0  0.64643  0.56042  0.58157  1.0000
  O   O36       1.0  0.62632  0.5601199999999998  0.67191  1.0000
  O   O37       1.0  0.56633  0.0948  0.74291  1.0000
  O   O38       1.0  0.61281  0.2084  0.7077099999999997  1.0000
  O   O39       1.0  0.586  0.27375  0.9945799999999999  1.0000
  O   O40       1.0  0.56711  0.38544  0.9548499999999999  1.0000
  O   O41       1.0  0.14552  0.20541  0.05091999999999999  1.0000
  O   O42       1.0  0.18031  0.08737  0.02098  1.0000
  O   O43       1.0  0.18658  0.37462  0.8069  1.0000
  O   O44       1.0  0.17312999999999998  0.26623  0.7623199999999998  1.0000
  O   O45       1.0  0.12025  0.54968  0.17482  1.0000
  O   O46       1.0  0.07448  0.54579  0.08529  1.0000
  O   O47       1.0  0.14644  0.93958  0.08157  1.0000
  O   O48       1.0  0.12632  0.9398799999999999  0.17190999999999998  1.0000
