data_image0
_chemical_formula_structural       La6H90C162O36
_chemical_formula_sum              "La6 H90 C162 O36"
_cell_length_a       16.60054
_cell_length_b       16.60063
_cell_length_c       24.64857
_cell_angle_alpha    90.0
_cell_angle_beta     90.0
_cell_angle_gamma    119.99874999999999

_symmetry_space_group_name_H-M    'P 1'
_symmetry_Int_Tables_number       1

loop_
  _symmetry_equiv_pos_as_xyz
  'x,y,z'

loop_
  _atom_site_type_symbol
  _atom_site_label
  _atom_site_symmetry_multiplicity
  _atom_site_fract_x
  _atom_site_fract_y
  _atom_site_fract_z
  _atom_site_occupancy
  La  La1       1.0  0.92592  0.0  0.99999  1.0000
  La  La2       1.0  0.0  0.92592  0.66667  1.0000
  La  La3       1.0  0.07406000000000003  0.07406  0.33333000000000007  1.0000
  La  La4       1.0  0.07408  0.0  0.4999900000000001  1.0000
  La  La5       1.0  0.0  0.07408  0.16667000000000004  1.0000
  La  La6       1.0  0.92594  0.92594  0.8333300000000002  1.0000
  H   H1        1.0  0.009039999999999987  0.33645  0.9925300000000002  1.0000
  H   H2        1.0  0.11123  0.50642  0.0036600000000000005  1.0000
  H   H3        1.0  0.28658  0.45783  0.11184  1.0000
  H   H4        1.0  0.1845  0.28871  0.10034000000000003  1.0000
  H   H5        1.0  0.1373900000000001  0.61043  0.06506000000000002  1.0000
  H   H6        1.0  0.12418000000000001  0.72343  0.012530000000000003  1.0000
  H   H7        1.0  0.03818000000000004  0.8107400000000001  0.0127  1.0000
  H   H8        1.0  0.66351  0.6726  0.65919  1.0000
  H   H9        1.0  0.4935  0.60483  0.6703100000000001  1.0000
  H   H10       1.0  0.54219  0.82877  0.77847  1.0000
  H   H11       1.0  0.7113300000000001  0.8958500000000003  0.7670100000000002  1.0000
  H   H12       1.0  0.38959  0.52698  0.73172  1.0000
  H   H13       1.0  0.27657  0.40079  0.6791800000000001  1.0000
  H   H14       1.0  0.1893  0.22753  0.6793500000000002  1.0000
  H   H15       1.0  0.32736  0.99097  0.32586000000000004  1.0000
  H   H16       1.0  0.3951300000000001  0.8887000000000003  0.33700000000000013  1.0000
  H   H17       1.0  0.17123  0.71342  0.44516  1.0000
  H   H18       1.0  0.1041600000000001  0.8155300000000002  0.4336700000000001  1.0000
  H   H19       1.0  0.47304  0.86261  0.3984000000000001  1.0000
  H   H20       1.0  0.59924  0.87584  0.3458700000000001  1.0000
  H   H21       1.0  0.7724800000000002  0.9618100000000002  0.3460100000000001  1.0000
  H   H22       1.0  0.9909600000000001  0.6635500000000002  0.49253000000000013  1.0000
  H   H23       1.0  0.8887700000000001  0.49358  0.50366  1.0000
  H   H24       1.0  0.71343  0.54217  0.6118400000000002  1.0000
  H   H25       1.0  0.8155000000000002  0.71129  0.60034  1.0000
  H   H26       1.0  0.86261  0.38957  0.56506  1.0000
  H   H27       1.0  0.87582  0.27657  0.51253  1.0000
  H   H28       1.0  0.96182  0.18926  0.5127  1.0000
  H   H29       1.0  0.33649  0.32739  0.15919  1.0000
  H   H30       1.0  0.5065000000000001  0.3951700000000001  0.17031  1.0000
  H   H31       1.0  0.45782  0.17123000000000005  0.27847  1.0000
  H   H32       1.0  0.28867  0.10415  0.26701  1.0000
  H   H33       1.0  0.61042  0.47302  0.23173000000000002  1.0000
  H   H34       1.0  0.72343  0.59921  0.17918  1.0000
  H   H35       1.0  0.81071  0.77247  0.17936000000000002  1.0000
  H   H36       1.0  0.67265  0.00903  0.8258600000000001  1.0000
  H   H37       1.0  0.60487  0.1113  0.837  1.0000
  H   H38       1.0  0.82878  0.28658  0.9451600000000001  1.0000
  H   H39       1.0  0.8958400000000002  0.18447  0.93367  1.0000
  H   H40       1.0  0.52697  0.13739  0.8984000000000002  1.0000
  H   H41       1.0  0.40076  0.12416  0.8458700000000002  1.0000
  H   H42       1.0  0.22752  0.038190000000000016  0.84601  1.0000
  H   H43       1.0  0.33645  0.00904  0.67414  1.0000
  H   H44       1.0  0.50642  0.11123  0.663  1.0000
  H   H45       1.0  0.45783  0.28658  0.55483  1.0000
  H   H46       1.0  0.28871  0.18450000000000003  0.56632  1.0000
  H   H47       1.0  0.6104300000000001  0.13739  0.6016100000000001  1.0000
  H   H48       1.0  0.72343  0.12418  0.65413  1.0000
  H   H49       1.0  0.81074  0.03818  0.65397  1.0000
  H   H50       1.0  0.67261  0.66351  0.00748  1.0000
  H   H51       1.0  0.60483  0.4935  0.9963600000000001  1.0000
  H   H52       1.0  0.8287800000000003  0.54218  0.88819  1.0000
  H   H53       1.0  0.89585  0.71132  0.8996500000000002  1.0000
  H   H54       1.0  0.5269800000000002  0.38958  0.9349400000000001  1.0000
  H   H55       1.0  0.40079  0.27657  0.9874900000000001  1.0000
  H   H56       1.0  0.22753  0.18929  0.9873100000000002  1.0000
  H   H57       1.0  0.99098  0.32736  0.3408000000000001  1.0000
  H   H58       1.0  0.8887  0.39514  0.32966  1.0000
  H   H59       1.0  0.7134300000000001  0.17123000000000005  0.2215  1.0000
  H   H60       1.0  0.8155400000000003  0.10416000000000003  0.23299000000000006  1.0000
  H   H61       1.0  0.8626200000000004  0.47304000000000007  0.26826  1.0000
  H   H62       1.0  0.87585  0.5992400000000001  0.32079  1.0000
  H   H63       1.0  0.9618200000000001  0.7724800000000003  0.32065  1.0000
  H   H64       1.0  0.66356  0.99096  0.17414  1.0000
  H   H65       1.0  0.49359000000000003  0.88877  0.163  1.0000
  H   H66       1.0  0.54217  0.71342  0.05483  1.0000
  H   H67       1.0  0.7112900000000001  0.8155000000000001  0.06633  1.0000
  H   H68       1.0  0.38957  0.86261  0.10161  1.0000
  H   H69       1.0  0.2765700000000001  0.8758200000000003  0.15413  1.0000
  H   H70       1.0  0.18925999999999998  0.96182  0.15397  1.0000
  H   H71       1.0  0.3274000000000001  0.33649000000000007  0.50748  1.0000
  H   H72       1.0  0.39517  0.5065  0.49636  1.0000
  H   H73       1.0  0.17123000000000002  0.45781000000000005  0.3882  1.0000
  H   H74       1.0  0.10415000000000003  0.28867  0.3996600000000001  1.0000
  H   H75       1.0  0.47302000000000005  0.6104100000000001  0.43494  1.0000
  H   H76       1.0  0.5992100000000002  0.72343  0.48749  1.0000
  H   H77       1.0  0.77247  0.81071  0.4873100000000001  1.0000
  H   H78       1.0  0.009020000000000106  0.6726400000000002  0.8408000000000002  1.0000
  H   H79       1.0  0.1113  0.60486  0.8296600000000002  1.0000
  H   H80       1.0  0.28658  0.82877  0.7215  1.0000
  H   H81       1.0  0.18445999999999999  0.89584  0.73299  1.0000
  H   H82       1.0  0.1373900000000001  0.52696  0.7682600000000002  1.0000
  H   H83       1.0  0.12415000000000001  0.40076  0.82078  1.0000
  H   H84       1.0  0.03818  0.22752  0.82065  1.0000
  H   H85       1.0  0.39343000000000006  0.60657  0.08333  1.0000
  H   H86       1.0  0.3934200000000001  0.78688  0.75  1.0000
  H   H87       1.0  0.21311999999999995  0.60658  0.41666  1.0000
  H   H88       1.0  0.60657  0.39343  0.5833300000000001  1.0000
  H   H89       1.0  0.60658  0.21312  0.25  1.0000
  H   H90       1.0  0.7868800000000001  0.39342  0.91666  1.0000
  C   C1        1.0  0.02345  0.19921  0.04169  1.0000
  C   C2        1.0  0.08875999999999998  0.30105  0.04629  1.0000
  C   C3        1.0  0.06986999999999997  0.36376  0.018650000000000003  1.0000
  C   C4        1.0  0.12726  0.45913  0.0254  1.0000
  C   C5        1.0  0.20576  0.4956  0.05982  1.0000
  C   C6        1.0  0.22652000000000005  0.43213  0.08512  1.0000
  C   C7        1.0  0.16885  0.33637  0.07878  1.0000
  C   C8        1.0  0.25984  0.5969  0.07104  1.0000
  C   C9        1.0  0.21215  0.64695  0.07165  1.0000
  C   C10       1.0  0.13804  0.77491  0.04386000000000002  1.0000
  C   C11       1.0  0.09007999999999997  0.8237  0.04356  1.0000
  C   C12       1.0  0.80078  0.8242  0.70838  1.0000
  C   C13       1.0  0.6989400000000003  0.7876900000000001  0.71297  1.0000
  C   C14       1.0  0.63622  0.70613  0.6853200000000003  1.0000
  C   C15       1.0  0.54082  0.66811  0.69206  1.0000
  C   C16       1.0  0.50441  0.71017  0.7265000000000003  1.0000
  C   C17       1.0  0.5679  0.7944  0.75178  1.0000
  C   C18       1.0  0.6636600000000002  0.83252  0.7454500000000001  1.0000
  C   C19       1.0  0.4031100000000001  0.6629500000000002  0.7377200000000003  1.0000
  C   C20       1.0  0.35307  0.56523  0.73833  1.0000
  C   C21       1.0  0.22511  0.36317  0.71052  1.0000
  C   C22       1.0  0.17632  0.26644  0.71023  1.0000
  C   C23       1.0  0.1757300000000001  0.97656  0.37502000000000013  1.0000
  C   C24       1.0  0.21227000000000004  0.9112600000000001  0.37962000000000007  1.0000
  C   C25       1.0  0.2938500000000001  0.93014  0.3519800000000001  1.0000
  C   C26       1.0  0.33185000000000003  0.8727400000000001  0.35873000000000005  1.0000
  C   C27       1.0  0.28981  0.79425  0.39316  1.0000
  C   C28       1.0  0.20557  0.7735000000000001  0.41846  1.0000
  C   C29       1.0  0.1674800000000001  0.8311700000000002  0.41212000000000004  1.0000
  C   C30       1.0  0.33704000000000006  0.74016  0.4043700000000001  1.0000
  C   C31       1.0  0.43476  0.78784  0.40498  1.0000
  C   C32       1.0  0.63685  0.86195  0.37719  1.0000
  C   C33       1.0  0.73358  0.90991  0.37689  1.0000
  C   C34       1.0  0.97655  0.80079  0.54169  1.0000
  C   C35       1.0  0.91125  0.69894  0.54629  1.0000
  C   C36       1.0  0.93014  0.63624  0.51865  1.0000
  C   C37       1.0  0.87274  0.54086  0.5254  1.0000
  C   C38       1.0  0.7942499999999999  0.50439  0.55982  1.0000
  C   C39       1.0  0.77348  0.5678700000000001  0.58512  1.0000
  C   C40       1.0  0.8311599999999999  0.66362  0.57878  1.0000
  C   C41       1.0  0.7401600000000003  0.40309  0.57104  1.0000
  C   C42       1.0  0.78785  0.35305  0.57165  1.0000
  C   C43       1.0  0.8619700000000001  0.22509  0.5438600000000001  1.0000
  C   C44       1.0  0.9099200000000001  0.1763  0.54356  1.0000
  C   C45       1.0  0.19922  0.1758  0.20838  1.0000
  C   C46       1.0  0.30106  0.2123  0.21297000000000002  1.0000
  C   C47       1.0  0.36379  0.29387  0.18532  1.0000
  C   C48       1.0  0.4591800000000001  0.33189000000000013  0.19206000000000004  1.0000
  C   C49       1.0  0.49559  0.28983  0.22650000000000003  1.0000
  C   C50       1.0  0.4321  0.20559  0.25178  1.0000
  C   C51       1.0  0.33634000000000003  0.16748  0.24545  1.0000
  C   C52       1.0  0.5969  0.33704  0.23773  1.0000
  C   C53       1.0  0.6469400000000002  0.43477  0.23834  1.0000
  C   C54       1.0  0.77489  0.63682  0.21052000000000004  1.0000
  C   C55       1.0  0.8236800000000002  0.73356  0.21023  1.0000
  C   C56       1.0  0.82427  0.023440000000000003  0.87502  1.0000
  C   C57       1.0  0.78773  0.08874  0.87962  1.0000
  C   C58       1.0  0.70615  0.06986  0.8519800000000001  1.0000
  C   C59       1.0  0.66815  0.12725  0.85873  1.0000
  C   C60       1.0  0.7102  0.20574  0.8931600000000001  1.0000
  C   C61       1.0  0.79443  0.2265  0.9184600000000003  1.0000
  C   C62       1.0  0.83253  0.16883  0.91211  1.0000
  C   C63       1.0  0.66296  0.25983  0.9043700000000002  1.0000
  C   C64       1.0  0.56524  0.21216  0.90498  1.0000
  C   C65       1.0  0.3631500000000001  0.13805  0.8771900000000001  1.0000
  C   C66       1.0  0.26642  0.09009  0.8768900000000001  1.0000
  C   C67       1.0  0.19921  0.02345  0.62497  1.0000
  C   C68       1.0  0.30105  0.08876000000000003  0.62037  1.0000
  C   C69       1.0  0.36376  0.06987  0.64802  1.0000
  C   C70       1.0  0.45914  0.12726  0.64126  1.0000
  C   C71       1.0  0.4956  0.20576  0.60685  1.0000
  C   C72       1.0  0.43213000000000007  0.22652000000000005  0.58155  1.0000
  C   C73       1.0  0.33638000000000007  0.16885000000000003  0.5878900000000001  1.0000
  C   C74       1.0  0.59691  0.25984  0.59563  1.0000
  C   C75       1.0  0.64695  0.21215  0.5950100000000001  1.0000
  C   C76       1.0  0.77491  0.13804  0.62281  1.0000
  C   C77       1.0  0.8237  0.09008  0.6231000000000001  1.0000
  C   C78       1.0  0.8242  0.80078  0.95829  1.0000
  C   C79       1.0  0.7877  0.69894  0.9537000000000002  1.0000
  C   C80       1.0  0.70613  0.63621  0.9813400000000002  1.0000
  C   C81       1.0  0.6681100000000002  0.54082  0.97461  1.0000
  C   C82       1.0  0.71017  0.5044  0.9401600000000001  1.0000
  C   C83       1.0  0.79441  0.5679000000000002  0.9148900000000002  1.0000
  C   C84       1.0  0.8325200000000001  0.66366  0.92121  1.0000
  C   C85       1.0  0.66296  0.4031  0.9289400000000001  1.0000
  C   C86       1.0  0.5652300000000002  0.35306  0.92833  1.0000
  C   C87       1.0  0.36318  0.22511  0.95614  1.0000
  C   C88       1.0  0.26645  0.17632  0.9564300000000001  1.0000
  C   C89       1.0  0.9765700000000002  0.17573  0.29165  1.0000
  C   C90       1.0  0.91126  0.21227  0.28704  1.0000
  C   C91       1.0  0.93014  0.29385000000000006  0.31468  1.0000
  C   C92       1.0  0.8727500000000002  0.33185  0.30793  1.0000
  C   C93       1.0  0.7942600000000004  0.28981  0.2735  1.0000
  C   C94       1.0  0.77351  0.20557000000000003  0.2482  1.0000
  C   C95       1.0  0.8311700000000002  0.16748  0.25455  1.0000
  C   C96       1.0  0.74017  0.33704  0.2622900000000001  1.0000
  C   C97       1.0  0.78784  0.43476000000000004  0.26168  1.0000
  C   C98       1.0  0.86196  0.63685  0.28947  1.0000
  C   C99       1.0  0.9099200000000002  0.73358  0.28978  1.0000
  C   C100      1.0  0.8007999999999998  0.97655  0.12497000000000001  1.0000
  C   C101      1.0  0.69895  0.91124  0.12037  1.0000
  C   C102      1.0  0.63625  0.93013  0.14802  1.0000
  C   C103      1.0  0.5408700000000001  0.8727400000000001  0.14127  1.0000
  C   C104      1.0  0.5044000000000001  0.79424  0.10685000000000001  1.0000
  C   C105      1.0  0.5678700000000002  0.77348  0.08155  1.0000
  C   C106      1.0  0.66363  0.83115  0.08789000000000001  1.0000
  C   C107      1.0  0.40308999999999995  0.74015  0.09563000000000002  1.0000
  C   C108      1.0  0.35305  0.78784  0.09502  1.0000
  C   C109      1.0  0.22509000000000007  0.86196  0.12281  1.0000
  C   C110      1.0  0.17630000000000012  0.9099200000000001  0.12311  1.0000
  C   C111      1.0  0.1758  0.19922  0.45829  1.0000
  C   C112      1.0  0.21230000000000002  0.3010600000000001  0.45370000000000005  1.0000
  C   C113      1.0  0.2938700000000001  0.36378  0.48135000000000006  1.0000
  C   C114      1.0  0.33189  0.45918  0.47461  1.0000
  C   C115      1.0  0.28983  0.49559  0.44017000000000006  1.0000
  C   C116      1.0  0.20559  0.4321  0.4148900000000001  1.0000
  C   C117      1.0  0.16748000000000005  0.33634  0.42121  1.0000
  C   C118      1.0  0.3370400000000001  0.59689  0.42894  1.0000
  C   C119      1.0  0.43477  0.64693  0.42833  1.0000
  C   C120      1.0  0.63683  0.77489  0.45614  1.0000
  C   C121      1.0  0.73356  0.82368  0.45643  1.0000
  C   C122      1.0  0.023429999999999958  0.82426  0.79164  1.0000
  C   C123      1.0  0.08873999999999996  0.78773  0.78704  1.0000
  C   C124      1.0  0.06986000000000003  0.70614  0.81468  1.0000
  C   C125      1.0  0.12725  0.66815  0.80793  1.0000
  C   C126      1.0  0.20574000000000006  0.7101900000000001  0.7735  1.0000
  C   C127      1.0  0.22650000000000006  0.79442  0.7482000000000001  1.0000
  C   C128      1.0  0.16883000000000004  0.83252  0.7545400000000002  1.0000
  C   C129      1.0  0.25983  0.66296  0.7622900000000001  1.0000
  C   C130      1.0  0.21216  0.56523  0.76168  1.0000
  C   C131      1.0  0.13805000000000006  0.36315  0.78947  1.0000
  C   C132      1.0  0.09008999999999998  0.26642  0.78977  1.0000
  C   C133      1.0  0.35558  0.64441  0.08333  1.0000
  C   C134      1.0  0.25778  0.74222  0.08333  1.0000
  C   C135      1.0  0.20647  0.7935300000000001  0.08333  1.0000
  C   C136      1.0  0.10872999999999998  0.89127  0.08333  1.0000
  C   C137      1.0  0.057090000000000016  0.94291  0.08333  1.0000
  C   C138      1.0  0.3555800000000001  0.7111900000000002  0.75001  1.0000
  C   C139      1.0  0.2578  0.51559  0.75001  1.0000
  C   C140      1.0  0.20649000000000006  0.41297  0.75  1.0000
  C   C141      1.0  0.10874  0.21749  0.75  1.0000
  C   C142      1.0  0.05711  0.11422  0.7499900000000003  1.0000
  C   C143      1.0  0.28881  0.64442  0.41665000000000013  1.0000
  C   C144      1.0  0.48441  0.7422  0.41665000000000013  1.0000
  C   C145      1.0  0.58703  0.79351  0.41666  1.0000
  C   C146      1.0  0.78251  0.8912600000000002  0.41666  1.0000
  C   C147      1.0  0.8857800000000002  0.9428900000000002  0.41667  1.0000
  C   C148      1.0  0.64442  0.35558000000000006  0.5833300000000001  1.0000
  C   C149      1.0  0.7422200000000002  0.25778  0.5833300000000001  1.0000
  C   C150      1.0  0.79354  0.20647  0.5833300000000001  1.0000
  C   C151      1.0  0.89127  0.10873  0.5833300000000001  1.0000
  C   C152      1.0  0.94291  0.05709  0.5833300000000001  1.0000
  C   C153      1.0  0.64442  0.28881  0.25001  1.0000
  C   C154      1.0  0.74221  0.4844100000000001  0.25001  1.0000
  C   C155      1.0  0.7935100000000003  0.5870200000000002  0.25  1.0000
  C   C156      1.0  0.89126  0.78251  0.25  1.0000
  C   C157      1.0  0.94289  0.88578  0.24999000000000002  1.0000
  C   C158      1.0  0.7111900000000001  0.35558000000000006  0.9166500000000001  1.0000
  C   C159      1.0  0.51559  0.2578  0.9166500000000001  1.0000
  C   C160      1.0  0.4129800000000001  0.20649000000000006  0.91666  1.0000
  C   C161      1.0  0.21749  0.10874000000000002  0.91666  1.0000
  C   C162      1.0  0.11422  0.05711  0.9166700000000002  1.0000
  O   O1        1.0  0.03284999999999998  0.14309  0.07405000000000002  1.0000
  O   O2        1.0  0.95963  0.16729000000000002  0.0058400000000000014  1.0000
  O   O3        1.0  0.00032000000000000425  0.92801  0.04457  1.0000
  O   O4        1.0  0.85691  0.88968  0.74074  1.0000
  O   O5        1.0  0.8326900000000003  0.7923  0.67251  1.0000
  O   O6        1.0  0.07201  0.07234  0.71123  1.0000
  O   O7        1.0  0.11022000000000007  0.96716  0.40736000000000006  1.0000
  O   O8        1.0  0.20765  0.04038  0.33916  1.0000
  O   O9        1.0  0.92766  0.99968  0.3779200000000001  1.0000
  O   O10       1.0  0.96715  0.85691  0.57404  1.0000
  O   O11       1.0  0.040370000000000114  0.8327100000000002  0.50584  1.0000
  O   O12       1.0  0.99968  0.07198  0.54457  1.0000
  O   O13       1.0  0.14309000000000005  0.11032  0.24074  1.0000
  O   O14       1.0  0.16731000000000001  0.20770000000000005  0.17252  1.0000
  O   O15       1.0  0.92799  0.92766  0.21123  1.0000
  O   O16       1.0  0.88978  0.03283  0.90736  1.0000
  O   O17       1.0  0.79235  0.95961  0.83916  1.0000
  O   O18       1.0  0.07234  0.00032  0.87792  1.0000
  O   O19       1.0  0.14309000000000005  0.03285  0.59262  1.0000
  O   O20       1.0  0.16729000000000008  0.95963  0.66082  1.0000
  O   O21       1.0  0.92802  0.00032  0.62209  1.0000
  O   O22       1.0  0.88968  0.85691  0.9259200000000001  1.0000
  O   O23       1.0  0.7923  0.83269  0.99415  1.0000
  O   O24       1.0  0.07234000000000002  0.07201000000000003  0.9554300000000001  1.0000
  O   O25       1.0  0.96717  0.11022  0.25930000000000003  1.0000
  O   O26       1.0  0.04039000000000002  0.20765000000000003  0.3275  1.0000
  O   O27       1.0  0.99968  0.92766  0.28875  1.0000
  O   O28       1.0  0.85691  0.96715  0.09262  1.0000
  O   O29       1.0  0.83272  0.04037  0.16082000000000002  1.0000
  O   O30       1.0  0.07198000000000003  0.99968  0.12209000000000002  1.0000
  O   O31       1.0  0.11032  0.14309  0.42593  1.0000
  O   O32       1.0  0.2077  0.16731  0.49415  1.0000
  O   O33       1.0  0.92766  0.9279900000000002  0.45543  1.0000
  O   O34       1.0  0.032830000000000054  0.8897800000000001  0.7593  1.0000
  O   O35       1.0  0.9596199999999999  0.79235  0.8275  1.0000
  O   O36       1.0  0.0003300000000000044  0.07234  0.78874  1.0000
