data_image0
_chemical_formula_structural       Ag4P4H108C132N24
_chemical_formula_sum              "Ag4 P4 H108 C132 N24"
_cell_length_a       15.72959
_cell_length_b       15.72959
_cell_length_c       15.72959
_cell_angle_alpha    90.00089
_cell_angle_beta     90.00089
_cell_angle_gamma    90.00089

_symmetry_space_group_name_H-M    'P 1'
_symmetry_Int_Tables_number       1

loop_
  _symmetry_equiv_pos_as_xyz
  'x,y,z'

loop_
  _atom_site_type_symbol
  _atom_site_label
  _atom_site_symmetry_multiplicity
  _atom_site_fract_x
  _atom_site_fract_y
  _atom_site_fract_z
  _atom_site_occupancy
  Ag  Ag1       1.0  0.7011500000000003  0.29884  0.79886  1.0000
  Ag  Ag2       1.0  0.7988600000000002  0.70116  0.29884  1.0000
  Ag  Ag3       1.0  0.2988400000000001  0.79886  0.70116  1.0000
  Ag  Ag4       1.0  0.20114  0.20113999999999996  0.20114  1.0000
  P   P1        1.0  0.61308  0.3869199999999999  0.88692  1.0000
  P   P2        1.0  0.8869200000000003  0.6130799999999997  0.38692  1.0000
  P   P3        1.0  0.38692  0.88692  0.61308  1.0000
  P   P4        1.0  0.11308  0.11308  0.11308  1.0000
  H   H1        1.0  0.46949  0.19288  0.43573  1.0000
  H   H2        1.0  0.598  0.5722199999999997  0.92453  1.0000
  H   H3        1.0  0.75926  0.36164  0.99431  1.0000
  H   H4        1.0  0.6861400000000002  0.6687  0.01346  1.0000
  H   H5        1.0  0.80756  0.61133  0.09697  1.0000
  H   H6        1.0  0.8431200000000002  0.4577099999999999  0.08803  1.0000
  H   H7        1.0  0.7146700000000002  0.17779999999999996  0.60428  1.0000
  H   H8        1.0  0.51635  0.32955  0.70069  1.0000
  H   H9        1.0  0.4560900000000001  0.24145999999999995  0.56118  1.0000
  H   H10       1.0  0.03053  0.80714  0.93576  1.0000
  H   H11       1.0  0.902  0.42777  0.42454  1.0000
  H   H12       1.0  0.74073  0.63836  0.49431  1.0000
  H   H13       1.0  0.8138600000000002  0.3313  0.51347  1.0000
  H   H14       1.0  0.69243  0.38867  0.59697  1.0000
  H   H15       1.0  0.65688  0.5423  0.58803  1.0000
  H   H16       1.0  0.7853300000000002  0.8222099999999999  0.10428  1.0000
  H   H17       1.0  0.98365  0.67045  0.2007  1.0000
  H   H18       1.0  0.04392  0.75856  0.06121  1.0000
  H   H19       1.0  0.53052  0.69289  0.06425  1.0000
  H   H20       1.0  0.40200000000000014  0.07222999999999997  0.57546  1.0000
  H   H21       1.0  0.24073000000000006  0.86164  0.50569  1.0000
  H   H22       1.0  0.3138600000000001  0.1687  0.48653  1.0000
  H   H23       1.0  0.19243  0.11132999999999997  0.4030199999999999  1.0000
  H   H24       1.0  0.15687000000000006  0.9576999999999998  0.4119699999999999  1.0000
  H   H25       1.0  0.28534  0.67781  0.89571  1.0000
  H   H26       1.0  0.48365  0.8295599999999997  0.79929  1.0000
  H   H27       1.0  0.54392  0.74146  0.93881  1.0000
  H   H28       1.0  0.96946  0.3071099999999999  0.56426  1.0000
  H   H29       1.0  0.09800000000000003  0.9277699999999998  0.07546  1.0000
  H   H30       1.0  0.25926  0.13835999999999996  0.00569  1.0000
  H   H31       1.0  0.18614000000000006  0.8312899999999998  0.98654  1.0000
  H   H32       1.0  0.30757  0.8886699999999997  0.90303  1.0000
  H   H33       1.0  0.34312  0.0423  0.91198  1.0000
  H   H34       1.0  0.21468000000000007  0.32219  0.39572  1.0000
  H   H35       1.0  0.01635  0.17045  0.2993  1.0000
  H   H36       1.0  0.9561  0.25852999999999987  0.43881  1.0000
  H   H37       1.0  0.4357300000000001  0.46949  0.19288  1.0000
  H   H38       1.0  0.92453  0.598  0.5722199999999997  1.0000
  H   H39       1.0  0.99431  0.75926  0.36164  1.0000
  H   H40       1.0  0.01346  0.6861399999999998  0.6687  1.0000
  H   H41       1.0  0.09697  0.8075599999999997  0.61133  1.0000
  H   H42       1.0  0.08802000000000003  0.8431199999999998  0.45771  1.0000
  H   H43       1.0  0.6042800000000003  0.7146799999999998  0.1778  1.0000
  H   H44       1.0  0.7006900000000003  0.5163599999999998  0.32955  1.0000
  H   H45       1.0  0.5611800000000002  0.45609  0.24146  1.0000
  H   H46       1.0  0.93576  0.03054  0.80714  1.0000
  H   H47       1.0  0.42453000000000013  0.9019999999999999  0.42778  1.0000
  H   H48       1.0  0.49431000000000014  0.74073  0.63836  1.0000
  H   H49       1.0  0.51346  0.81386  0.3313  1.0000
  H   H50       1.0  0.59697  0.69244  0.38867  1.0000
  H   H51       1.0  0.5880200000000002  0.65688  0.5423  1.0000
  H   H52       1.0  0.10428000000000003  0.7853299999999998  0.82221  1.0000
  H   H53       1.0  0.20069000000000006  0.98365  0.67045  1.0000
  H   H54       1.0  0.06121  0.04392  0.75856  1.0000
  H   H55       1.0  0.06425  0.5305199999999998  0.69289  1.0000
  H   H56       1.0  0.57546  0.402  0.07223  1.0000
  H   H57       1.0  0.50569  0.24072999999999994  0.86164  1.0000
  H   H58       1.0  0.48653  0.31385999999999986  0.1687  1.0000
  H   H59       1.0  0.40302  0.19243  0.11133  1.0000
  H   H60       1.0  0.4119700000000001  0.15687  0.9577  1.0000
  H   H61       1.0  0.8957100000000002  0.28534  0.67781  1.0000
  H   H62       1.0  0.7992900000000002  0.48365999999999987  0.8295599999999997  1.0000
  H   H63       1.0  0.9388000000000002  0.54393  0.74146  1.0000
  H   H64       1.0  0.56426  0.9694599999999998  0.30711  1.0000
  H   H65       1.0  0.07546000000000003  0.09799999999999998  0.92777  1.0000
  H   H66       1.0  0.00569  0.25926  0.13836  1.0000
  H   H67       1.0  0.9865400000000002  0.18614999999999995  0.83129  1.0000
  H   H68       1.0  0.9030300000000002  0.30757  0.88867  1.0000
  H   H69       1.0  0.9119700000000002  0.34312  0.0423  1.0000
  H   H70       1.0  0.39572  0.21468  0.32219  1.0000
  H   H71       1.0  0.2993  0.016349999999999993  0.17045  1.0000
  H   H72       1.0  0.43880000000000013  0.9561099999999998  0.25853  1.0000
  H   H73       1.0  0.19287  0.43573  0.46949  1.0000
  H   H74       1.0  0.57222  0.92453  0.598  1.0000
  H   H75       1.0  0.36164000000000013  0.9943099999999998  0.75926  1.0000
  H   H76       1.0  0.6687000000000002  0.01346  0.68614  1.0000
  H   H77       1.0  0.61133  0.09696999999999997  0.80756  1.0000
  H   H78       1.0  0.4577100000000001  0.08802  0.84312  1.0000
  H   H79       1.0  0.1778  0.6042799999999998  0.71468  1.0000
  H   H80       1.0  0.3295400000000001  0.70069  0.51636  1.0000
  H   H81       1.0  0.24146000000000006  0.56118  0.45609  1.0000
  H   H82       1.0  0.80714  0.93576  0.03054  1.0000
  H   H83       1.0  0.4277700000000001  0.42453  0.902  1.0000
  H   H84       1.0  0.63836  0.4943099999999999  0.74074  1.0000
  H   H85       1.0  0.3313  0.51346  0.81386  1.0000
  H   H86       1.0  0.3886700000000001  0.59697  0.69244  1.0000
  H   H87       1.0  0.5423000000000001  0.58802  0.65688  1.0000
  H   H88       1.0  0.8222100000000002  0.10428  0.78533  1.0000
  H   H89       1.0  0.6704500000000002  0.2007  0.98365  1.0000
  H   H90       1.0  0.75856  0.06121  0.04392  1.0000
  H   H91       1.0  0.69289  0.06425  0.53052  1.0000
  H   H92       1.0  0.07223  0.57546  0.402  1.0000
  H   H93       1.0  0.86164  0.50569  0.24074  1.0000
  H   H94       1.0  0.1687  0.4865299999999999  0.31386  1.0000
  H   H95       1.0  0.11133  0.4030199999999999  0.19243  1.0000
  H   H96       1.0  0.9577000000000002  0.4119699999999999  0.15687999999999994  1.0000
  H   H97       1.0  0.67781  0.8957099999999998  0.28534  1.0000
  H   H98       1.0  0.8295600000000002  0.79929  0.48366  1.0000
  H   H99       1.0  0.74146  0.9388  0.54393  1.0000
  H   H100      1.0  0.3071100000000001  0.56426  0.96947  1.0000
  H   H101      1.0  0.92777  0.07545999999999997  0.09801  1.0000
  H   H102      1.0  0.13836000000000007  0.005689999999999998  0.25926  1.0000
  H   H103      1.0  0.8312900000000002  0.9865399999999998  0.18615  1.0000
  H   H104      1.0  0.88867  0.9030299999999998  0.30757  1.0000
  H   H105      1.0  0.042290000000000015  0.9119699999999997  0.34313  1.0000
  H   H106      1.0  0.32219  0.3957199999999999  0.21468  1.0000
  H   H107      1.0  0.17045000000000005  0.2993  0.01635  1.0000
  H   H108      1.0  0.25853  0.4388  0.95611  1.0000
  C   C1        1.0  0.5817700000000002  0.13502  0.49027  1.0000
  C   C2        1.0  0.5158700000000003  0.14232  0.43041  1.0000
  C   C3        1.0  0.67211  0.46056  0.95409  1.0000
  C   C4        1.0  0.6520100000000002  0.54735  0.95984  1.0000
  C   C5        1.0  0.74229  0.42865  0.99988  1.0000
  C   C6        1.0  0.7014000000000002  0.6012799999999998  0.0103  1.0000
  C   C7        1.0  0.76998  0.56928  0.05697  1.0000
  C   C8        1.0  0.78977  0.4826399999999999  0.05173999999999999  1.0000
  C   C9        1.0  0.6530900000000002  0.20687999999999995  0.61299  1.0000
  C   C10       1.0  0.54888  0.2844299999999999  0.6601  1.0000
  C   C11       1.0  0.51837  0.24232999999999993  0.58992  1.0000
  C   C12       1.0  0.9182400000000002  0.86499  0.9902999999999997  1.0000
  C   C13       1.0  0.9841500000000002  0.8576899999999997  0.93045  1.0000
  C   C14       1.0  0.8278800000000002  0.53944  0.45408  1.0000
  C   C15       1.0  0.8479800000000002  0.4526399999999999  0.45984  1.0000
  C   C16       1.0  0.7577  0.57135  0.49988  1.0000
  C   C17       1.0  0.7986000000000002  0.39872  0.51031  1.0000
  C   C18       1.0  0.73002  0.4307299999999999  0.55697  1.0000
  C   C19       1.0  0.71023  0.51737  0.55174  1.0000
  C   C20       1.0  0.84689  0.7931099999999998  0.11298  1.0000
  C   C21       1.0  0.9511100000000002  0.71556  0.16009  1.0000
  C   C22       1.0  0.9816300000000002  0.7576899999999999  0.08996  1.0000
  C   C23       1.0  0.41824000000000006  0.63503  0.0097  1.0000
  C   C24       1.0  0.4841300000000001  0.6423299999999997  0.06956  1.0000
  C   C25       1.0  0.32789  0.9605599999999997  0.54591  1.0000
  C   C26       1.0  0.34799000000000013  0.047359999999999985  0.54016  1.0000
  C   C27       1.0  0.2577000000000001  0.92866  0.50012  1.0000
  C   C28       1.0  0.2986000000000001  0.10128  0.48969  1.0000
  C   C29       1.0  0.23002  0.06927  0.44303  1.0000
  C   C30       1.0  0.21022  0.9826299999999998  0.44826  1.0000
  C   C31       1.0  0.3469100000000001  0.7069099999999998  0.88703  1.0000
  C   C32       1.0  0.45113  0.78447  0.8399  1.0000
  C   C33       1.0  0.4816600000000001  0.74232  0.9100499999999999  1.0000
  C   C34       1.0  0.08177000000000002  0.3649399999999999  0.50974  1.0000
  C   C35       1.0  0.01584  0.3576699999999999  0.5695799999999998  1.0000
  C   C36       1.0  0.17211  0.03943999999999999  0.04591  1.0000
  C   C37       1.0  0.15201  0.9526399999999998  0.04016  1.0000
  C   C38       1.0  0.2423  0.07134  0.00012  1.0000
  C   C39       1.0  0.2014  0.89872  0.9897  1.0000
  C   C40       1.0  0.26998  0.9307199999999998  0.94303  1.0000
  C   C41       1.0  0.28977  0.01736  0.94826  1.0000
  C   C42       1.0  0.15312000000000006  0.2930799999999999  0.38703  1.0000
  C   C43       1.0  0.048880000000000014  0.21556999999999996  0.33989  1.0000
  C   C44       1.0  0.01839  0.25765  0.41007  1.0000
  C   C45       1.0  0.4902700000000001  0.58177  0.13503  1.0000
  C   C46       1.0  0.43041  0.5158699999999998  0.14232  1.0000
  C   C47       1.0  0.9540900000000002  0.67211  0.4605599999999999  1.0000
  C   C48       1.0  0.95983  0.6520099999999998  0.54736  1.0000
  C   C49       1.0  0.9998800000000001  0.74229  0.42866  1.0000
  C   C50       1.0  0.0103  0.7013999999999998  0.60128  1.0000
  C   C51       1.0  0.05697  0.76998  0.56928  1.0000
  C   C52       1.0  0.05173  0.7897699999999997  0.48264  1.0000
  C   C53       1.0  0.61299  0.6530899999999997  0.20688  1.0000
  C   C54       1.0  0.6601  0.54888  0.28443  1.0000
  C   C55       1.0  0.5899200000000002  0.51837  0.24233  1.0000
  C   C56       1.0  0.9903  0.91824  0.86499  1.0000
  C   C57       1.0  0.9304500000000002  0.9841499999999997  0.85769  1.0000
  C   C58       1.0  0.4540800000000001  0.82788  0.53944  1.0000
  C   C59       1.0  0.45983  0.84799  0.45264  1.0000
  C   C60       1.0  0.49987  0.7577  0.57135  1.0000
  C   C61       1.0  0.51031  0.7986  0.3987199999999999  1.0000
  C   C62       1.0  0.55697  0.7300199999999998  0.43072999999999995  1.0000
  C   C63       1.0  0.5517300000000003  0.71023  0.51737  1.0000
  C   C64       1.0  0.11297  0.8468899999999998  0.79311  1.0000
  C   C65       1.0  0.16008  0.95111  0.71556  1.0000
  C   C66       1.0  0.08996  0.9816299999999998  0.75769  1.0000
  C   C67       1.0  0.0097  0.4182399999999999  0.63503  1.0000
  C   C68       1.0  0.06956  0.4841399999999999  0.64234  1.0000
  C   C69       1.0  0.5459000000000003  0.3278899999999999  0.96057  1.0000
  C   C70       1.0  0.54016  0.3479899999999999  0.04736  1.0000
  C   C71       1.0  0.50012  0.2577  0.92866  1.0000
  C   C72       1.0  0.4896900000000001  0.2986  0.10128  1.0000
  C   C73       1.0  0.4430300000000001  0.23001999999999995  0.06927  1.0000
  C   C74       1.0  0.4482600000000001  0.21021999999999993  0.98263  1.0000
  C   C75       1.0  0.88702  0.3469099999999999  0.70691  1.0000
  C   C76       1.0  0.8399000000000002  0.45113  0.78447  1.0000
  C   C77       1.0  0.9100500000000002  0.48165999999999987  0.74232  1.0000
  C   C78       1.0  0.50974  0.08178  0.36494  1.0000
  C   C79       1.0  0.56958  0.01584  0.35767  1.0000
  C   C80       1.0  0.04591  0.17211  0.03944  1.0000
  C   C81       1.0  0.040160000000000015  0.15201  0.95264  1.0000
  C   C82       1.0  0.00012000000000000003  0.24229999999999993  0.07134  1.0000
  C   C83       1.0  0.9896900000000002  0.20139999999999994  0.89872  1.0000
  C   C84       1.0  0.94303  0.26998  0.93073  1.0000
  C   C85       1.0  0.9482600000000002  0.28978  0.01737  1.0000
  C   C86       1.0  0.38703  0.15311999999999995  0.29308  1.0000
  C   C87       1.0  0.33989  0.048879999999999986  0.21557  1.0000
  C   C88       1.0  0.4100700000000001  0.01839  0.25765  1.0000
  C   C89       1.0  0.13502  0.49027  0.58177  1.0000
  C   C90       1.0  0.14231  0.43041  0.51587  1.0000
  C   C91       1.0  0.46056  0.9540899999999998  0.67211  1.0000
  C   C92       1.0  0.54735  0.95983  0.65201  1.0000
  C   C93       1.0  0.4286500000000001  0.99988  0.7423  1.0000
  C   C94       1.0  0.6012800000000003  0.0103  0.7014  1.0000
  C   C95       1.0  0.56927  0.056969999999999986  0.76998  1.0000
  C   C96       1.0  0.4826300000000001  0.051729999999999984  0.78977  1.0000
  C   C97       1.0  0.20688  0.61299  0.65309  1.0000
  C   C98       1.0  0.28442  0.6601  0.54888  1.0000
  C   C99       1.0  0.24233000000000005  0.58992  0.51837  1.0000
  C   C100      1.0  0.8649800000000002  0.9903  0.91824  1.0000
  C   C101      1.0  0.8576900000000002  0.9304499999999998  0.98416  1.0000
  C   C102      1.0  0.5394400000000003  0.4540799999999999  0.82789  1.0000
  C   C103      1.0  0.45264  0.4598299999999999  0.84799  1.0000
  C   C104      1.0  0.57134  0.49986999999999987  0.7577  1.0000
  C   C105      1.0  0.39872  0.51031  0.7986  1.0000
  C   C106      1.0  0.43073  0.55697  0.73002  1.0000
  C   C107      1.0  0.5173700000000002  0.55173  0.71023  1.0000
  C   C108      1.0  0.79311  0.11296999999999997  0.84689  1.0000
  C   C109      1.0  0.7155600000000002  0.16008999999999995  0.95112  1.0000
  C   C110      1.0  0.75769  0.08995999999999997  0.98163  1.0000
  C   C111      1.0  0.6350300000000002  0.009699999999999997  0.41824  1.0000
  C   C112      1.0  0.6423300000000002  0.06956  0.48414  1.0000
  C   C113      1.0  0.9605600000000002  0.54591  0.32789  1.0000
  C   C114      1.0  0.04736  0.5401599999999998  0.34799  1.0000
  C   C115      1.0  0.92866  0.5001199999999999  0.2577  1.0000
  C   C116      1.0  0.10128000000000002  0.4896899999999999  0.2986  1.0000
  C   C117      1.0  0.06927  0.44302999999999987  0.23002  1.0000
  C   C118      1.0  0.9826300000000002  0.4482599999999999  0.21022999999999994  1.0000
  C   C119      1.0  0.7069  0.88703  0.34692  1.0000
  C   C120      1.0  0.7844600000000003  0.8399  0.45113  1.0000
  C   C121      1.0  0.74232  0.9100499999999998  0.4816699999999999  1.0000
  C   C122      1.0  0.36494  0.5097399999999997  0.08178  1.0000
  C   C123      1.0  0.3576700000000001  0.56958  0.01584  1.0000
  C   C124      1.0  0.03943  0.04591  0.17211  1.0000
  C   C125      1.0  0.9526400000000003  0.04016  0.15201  1.0000
  C   C126      1.0  0.07134  0.00011999999999999998  0.2423  1.0000
  C   C127      1.0  0.8987200000000002  0.9896899999999997  0.20141  1.0000
  C   C128      1.0  0.9307200000000002  0.9430299999999998  0.2699899999999999  1.0000
  C   C129      1.0  0.01736  0.94826  0.28978  1.0000
  C   C130      1.0  0.29308  0.3870299999999999  0.15312  1.0000
  C   C131      1.0  0.21557  0.3398899999999999  0.04888  1.0000
  C   C132      1.0  0.25765  0.41007  0.01839  1.0000
  N   N1        1.0  0.58517  0.19244  0.55944  1.0000
  N   N2        1.0  0.63261  0.26212  0.67408  1.0000
  N   N3        1.0  0.9148500000000003  0.80761  0.0595  1.0000
  N   N4        1.0  0.8673500000000002  0.7378299999999998  0.17404  1.0000
  N   N5        1.0  0.4148700000000001  0.6924199999999998  0.9405  1.0000
  N   N6        1.0  0.36738  0.7621599999999997  0.82597  1.0000
  N   N7        1.0  0.08521  0.30749  0.4406  1.0000
  N   N8        1.0  0.13264  0.23787  0.32591  1.0000
  N   N9        1.0  0.5594400000000003  0.58517  0.19244  1.0000
  N   N10       1.0  0.6740800000000002  0.63261  0.26212  1.0000
  N   N11       1.0  0.05950000000000001  0.9148499999999998  0.80761  1.0000
  N   N12       1.0  0.17403  0.8673499999999997  0.73783  1.0000
  N   N13       1.0  0.9405  0.41488  0.69242  1.0000
  N   N14       1.0  0.82597  0.3673799999999999  0.76217  1.0000
  N   N15       1.0  0.4406  0.08521  0.30749  1.0000
  N   N16       1.0  0.32591  0.13264  0.23787  1.0000
  N   N17       1.0  0.19244  0.55944  0.58517  1.0000
  N   N18       1.0  0.2621100000000001  0.6740799999999998  0.63262  1.0000
  N   N19       1.0  0.8076100000000003  0.0595  0.91486  1.0000
  N   N20       1.0  0.7378300000000002  0.17402999999999993  0.86736  1.0000
  N   N21       1.0  0.69242  0.9405  0.41488  1.0000
  N   N22       1.0  0.7621600000000002  0.8259699999999998  0.36739  1.0000
  N   N23       1.0  0.30749  0.4405999999999999  0.08521  1.0000
  N   N24       1.0  0.23787000000000005  0.32590999999999987  0.13264  1.0000
