data_image0
_chemical_formula_structural       Zn32H32C160O128
_chemical_formula_sum              "Zn32 H32 C160 O128"
_cell_length_a       19.19745
_cell_length_b       19.49755
_cell_length_c       22.26094
_cell_angle_alpha    90.0
_cell_angle_beta     89.99955
_cell_angle_gamma    89.92162

_space_group_name_H-M_alt    "P 1"
_space_group_IT_number       1

loop_
  _space_group_symop_operation_xyz
  'x, y, z'

loop_
  _atom_site_type_symbol
  _atom_site_label
  _atom_site_symmetry_multiplicity
  _atom_site_fract_x
  _atom_site_fract_y
  _atom_site_fract_z
  _atom_site_occupancy
  Zn  Zn1       1.0  0.24459999999999998  0.66851  0.79184  1.0000
  Zn  Zn2       1.0  0.26276  0.76965  0.62551  1.0000
  Zn  Zn3       1.0  0.26631  0.779  0.88277  1.0000
  Zn  Zn4       1.0  0.87305  0.74114  0.53402  1.0000
  Zn  Zn5       1.0  0.75541  0.83149  0.29184  1.0000
  Zn  Zn6       1.0  0.73724  0.73035  0.1255  1.0000
  Zn  Zn7       1.0  0.7337  0.72099  0.38277000000000005  1.0000
  Zn  Zn8       1.0  0.12694999999999998  0.75886  0.03401  1.0000
  Zn  Zn9       1.0  0.74451  0.33144  0.70813  1.0000
  Zn  Zn10      1.0  0.76261  0.23035  0.87462  1.0000
  Zn  Zn11      1.0  0.76618  0.22092999999999996  0.61736  1.0000
  Zn  Zn12      1.0  0.37306  0.2586  0.9653000000000002  1.0000
  Zn  Zn13      1.0  0.25548999999999994  0.16856  0.20813  1.0000
  Zn  Zn14      1.0  0.23739  0.26965  0.37462000000000006  1.0000
  Zn  Zn15      1.0  0.23381999999999997  0.27907  0.11736  1.0000
  Zn  Zn16      1.0  0.62694  0.2414  0.46529  1.0000
  Zn  Zn17      1.0  0.7554  0.33149  0.20816  1.0000
  Zn  Zn18      1.0  0.73724  0.23035  0.3745  1.0000
  Zn  Zn19      1.0  0.73369  0.22100000000000003  0.11723  1.0000
  Zn  Zn20      1.0  0.12694999999999998  0.25886  0.46598000000000006  1.0000
  Zn  Zn21      1.0  0.24459999999999998  0.16851  0.7081600000000001  1.0000
  Zn  Zn22      1.0  0.26276  0.26965  0.8745  1.0000
  Zn  Zn23      1.0  0.26631  0.27901  0.6172300000000001  1.0000
  Zn  Zn24      1.0  0.87305  0.24114  0.9659900000000001  1.0000
  Zn  Zn25      1.0  0.25548999999999994  0.66856  0.29187  1.0000
  Zn  Zn26      1.0  0.23739  0.76965  0.12538  1.0000
  Zn  Zn27      1.0  0.23381999999999997  0.77907  0.38264000000000004  1.0000
  Zn  Zn28      1.0  0.62694  0.7414  0.0347  1.0000
  Zn  Zn29      1.0  0.7445199999999997  0.8314400000000001  0.79187  1.0000
  Zn  Zn30      1.0  0.76262  0.73035  0.62538  1.0000
  Zn  Zn31      1.0  0.76618  0.72093  0.88264  1.0000
  Zn  Zn32      1.0  0.37306  0.7586  0.53471  1.0000
  H   H1        1.0  0.04646  0.73699  0.6430100000000001  1.0000
  H   H2        1.0  0.98938  0.754  0.8590700000000001  1.0000
  H   H3        1.0  0.29276  0.49363  0.8924000000000001  1.0000
  H   H4        1.0  0.24801999999999996  0.54361  0.10802  1.0000
  H   H5        1.0  0.95355  0.76301  0.14301  1.0000
  H   H6        1.0  0.01063  0.746  0.35907  1.0000
  H   H7        1.0  0.70724  0.00637  0.3924000000000001  1.0000
  H   H8        1.0  0.75198  0.95639  0.6080200000000001  1.0000
  H   H9        1.0  0.54655  0.2622  0.85687  1.0000
  H   H10       1.0  0.48935999999999996  0.24604  0.64082  1.0000
  H   H11       1.0  0.7927899999999998  0.50635  0.6073900000000001  1.0000
  H   H12       1.0  0.748  0.45602  0.3917900000000001  1.0000
  H   H13       1.0  0.45344999999999996  0.23779999999999998  0.3568700000000001  1.0000
  H   H14       1.0  0.5106499999999999  0.25396  0.14082  1.0000
  H   H15       1.0  0.2072199999999999  0.9936400000000001  0.10739000000000003  1.0000
  H   H16       1.0  0.252  0.04398  0.89179  1.0000
  H   H17       1.0  0.95355  0.26301  0.35699  1.0000
  H   H18       1.0  0.01063  0.246  0.14093  1.0000
  H   H19       1.0  0.7072499999999998  0.50637  0.10760000000000002  1.0000
  H   H20       1.0  0.75198  0.45639  0.8919800000000001  1.0000
  H   H21       1.0  0.04646  0.23699000000000003  0.8569900000000001  1.0000
  H   H22       1.0  0.98938  0.254  0.6409300000000001  1.0000
  H   H23       1.0  0.29276  0.99363  0.6076  1.0000
  H   H24       1.0  0.24801999999999996  0.04361  0.39198  1.0000
  H   H25       1.0  0.45344999999999996  0.7378  0.14314  1.0000
  H   H26       1.0  0.51064  0.75396  0.35918  1.0000
  H   H27       1.0  0.20721999999999993  0.49365  0.39261  1.0000
  H   H28       1.0  0.252  0.54398  0.60821  1.0000
  H   H29       1.0  0.5465599999999999  0.7622  0.64313  1.0000
  H   H30       1.0  0.48935999999999996  0.74604  0.85918  1.0000
  H   H31       1.0  0.7927899999999998  0.00635  0.89261  1.0000
  H   H32       1.0  0.748  0.95602  0.10822  1.0000
  C   C1        1.0  0.08795999999999998  0.73979  0.7329400000000001  1.0000
  C   C2        1.0  0.03407  0.7403  0.69057  1.0000
  C   C3        1.0  0.9641  0.74488  0.70759  1.0000
  C   C4        1.0  0.94748  0.74942  0.7693200000000002  1.0000
  C   C5        1.0  0.0013699999999999997  0.74915  0.8115000000000001  1.0000
  C   C6        1.0  0.07164  0.74511  0.7945800000000001  1.0000
  C   C7        1.0  0.15956  0.73369  0.70632  1.0000
  C   C8        1.0  0.91041  0.74211  0.65887  1.0000
  C   C9        1.0  0.87481  0.75992  0.79297  1.0000
  C   C10       1.0  0.12514  0.75155  0.84383  1.0000
  C   C11       1.0  0.26543  0.57114  0.9570500000000001  1.0000
  C   C12       1.0  0.28317  0.50442  0.93961  1.0000
  C   C13       1.0  0.28728  0.45217  0.9822600000000001  1.0000
  C   C14       1.0  0.27342999999999995  0.46606  0.04305  1.0000
  C   C15       1.0  0.25860999999999995  0.53331  0.06085  1.0000
  C   C16       1.0  0.25302  0.58557  0.018120000000000004  1.0000
  C   C17       1.0  0.26155  0.62555  0.9100200000000002  1.0000
  C   C18       1.0  0.30423999999999995  0.38095  0.9618400000000003  1.0000
  C   C19       1.0  0.26566  0.40848  0.08749000000000001  1.0000
  C   C20       1.0  0.22552999999999998  0.65366  0.03815  1.0000
  C   C21       1.0  0.9120399999999999  0.76021  0.23294  1.0000
  C   C22       1.0  0.96593  0.7597  0.19057000000000002  1.0000
  C   C23       1.0  0.03591  0.75512  0.20759000000000002  1.0000
  C   C24       1.0  0.05252  0.75058  0.26932  1.0000
  C   C25       1.0  0.9986399999999999  0.75085  0.31149000000000004  1.0000
  C   C26       1.0  0.9283599999999999  0.75489  0.29458000000000006  1.0000
  C   C27       1.0  0.8404499999999999  0.76631  0.20632  1.0000
  C   C28       1.0  0.0896  0.75788  0.15886  1.0000
  C   C29       1.0  0.12519  0.74008  0.29297  1.0000
  C   C30       1.0  0.8748599999999999  0.74845  0.3438300000000001  1.0000
  C   C31       1.0  0.73457  0.9288500000000001  0.4570500000000001  1.0000
  C   C32       1.0  0.71684  0.9955799999999999  0.43961  1.0000
  C   C33       1.0  0.7127299999999999  0.04783  0.4822600000000001  1.0000
  C   C34       1.0  0.7265699999999998  0.03394  0.5430500000000001  1.0000
  C   C35       1.0  0.7413999999999997  0.96669  0.56085  1.0000
  C   C36       1.0  0.7469799999999999  0.91443  0.51812  1.0000
  C   C37       1.0  0.73846  0.87445  0.41002000000000005  1.0000
  C   C38       1.0  0.69576  0.11904999999999999  0.46184  1.0000
  C   C39       1.0  0.7343499999999998  0.09152  0.58749  1.0000
  C   C40       1.0  0.77448  0.84634  0.5381500000000001  1.0000
  C   C41       1.0  0.58802  0.26008  0.76694  1.0000
  C   C42       1.0  0.53416  0.25904  0.80932  1.0000
  C   C43       1.0  0.46425999999999995  0.25405  0.79228  1.0000
  C   C44       1.0  0.44766999999999996  0.24967  0.73056  1.0000
  C   C45       1.0  0.50145  0.25058  0.68839  1.0000
  C   C46       1.0  0.5716599999999998  0.25492  0.70533  1.0000
  C   C47       1.0  0.65957  0.26627  0.7935900000000001  1.0000
  C   C48       1.0  0.41066999999999987  0.25674  0.8410400000000002  1.0000
  C   C49       1.0  0.37513  0.23919  0.70688  1.0000
  C   C50       1.0  0.62509  0.24853  0.6561300000000001  1.0000
  C   C51       1.0  0.7654799999999998  0.42873000000000006  0.5429000000000002  1.0000
  C   C52       1.0  0.7831899999999998  0.49550999999999995  0.5601900000000001  1.0000
  C   C53       1.0  0.78727  0.54767  0.5174200000000001  1.0000
  C   C54       1.0  0.7733799999999998  0.53363  0.4566600000000001  1.0000
  C   C55       1.0  0.75863  0.4664  0.43895  1.0000
  C   C56       1.0  0.75309  0.4142799999999999  0.48182  1.0000
  C   C57       1.0  0.7615999999999998  0.37432  0.5900100000000001  1.0000
  C   C58       1.0  0.8042699999999999  0.61907  0.53733  1.0000
  C   C59       1.0  0.76549  0.59123  0.41225  1.0000
  C   C60       1.0  0.72559  0.3463  0.4618  1.0000
  C   C61       1.0  0.41198999999999997  0.23991  0.26695  1.0000
  C   C62       1.0  0.46584  0.24096000000000004  0.30932000000000004  1.0000
  C   C63       1.0  0.53574  0.24595000000000003  0.29228000000000004  1.0000
  C   C64       1.0  0.55234  0.25033  0.23056000000000001  1.0000
  C   C65       1.0  0.49854999999999994  0.24941999999999998  0.18839  1.0000
  C   C66       1.0  0.42834999999999995  0.24508000000000002  0.20533  1.0000
  C   C67       1.0  0.34043999999999996  0.23372  0.29359  1.0000
  C   C68       1.0  0.58933  0.24325999999999998  0.34104000000000007  1.0000
  C   C69       1.0  0.62488  0.26083  0.20688  1.0000
  C   C70       1.0  0.37491  0.25147  0.15613  1.0000
  C   C71       1.0  0.23452  0.07127  0.0429  1.0000
  C   C72       1.0  0.21680999999999997  0.00449  0.06019000000000001  1.0000
  C   C73       1.0  0.21272999999999997  0.95233  0.01742  1.0000
  C   C74       1.0  0.22661999999999996  0.96637  0.9566600000000001  1.0000
  C   C75       1.0  0.24138  0.0336  0.93895  1.0000
  C   C76       1.0  0.24691  0.08572  0.9818200000000001  1.0000
  C   C77       1.0  0.23841  0.12568  0.09  1.0000
  C   C78       1.0  0.19572999999999996  0.8809299999999999  0.03733  1.0000
  C   C79       1.0  0.23450999999999997  0.9087699999999999  0.9122400000000003  1.0000
  C   C80       1.0  0.27442  0.1537  0.9618  1.0000
  C   C81       1.0  0.9120399999999999  0.26021  0.2670600000000001  1.0000
  C   C82       1.0  0.96593  0.2597  0.30943  1.0000
  C   C83       1.0  0.03591  0.25512  0.29241  1.0000
  C   C84       1.0  0.05252  0.25058  0.23068000000000002  1.0000
  C   C85       1.0  0.9986399999999999  0.25085  0.1885  1.0000
  C   C86       1.0  0.9283599999999999  0.25489  0.20542  1.0000
  C   C87       1.0  0.8404499999999999  0.26631  0.29368000000000005  1.0000
  C   C88       1.0  0.0896  0.25789  0.34114  1.0000
  C   C89       1.0  0.12519  0.24007999999999996  0.20703  1.0000
  C   C90       1.0  0.8748599999999999  0.24845000000000003  0.15617  1.0000
  C   C91       1.0  0.73457  0.42886  0.04295000000000001  1.0000
  C   C92       1.0  0.71684  0.4955800000000001  0.06039  1.0000
  C   C93       1.0  0.7127299999999999  0.54783  0.01774  1.0000
  C   C94       1.0  0.72658  0.53394  0.95695  1.0000
  C   C95       1.0  0.7413999999999997  0.46669  0.9391500000000002  1.0000
  C   C96       1.0  0.74699  0.41442999999999997  0.98188  1.0000
  C   C97       1.0  0.73846  0.37445  0.08998000000000002  1.0000
  C   C98       1.0  0.6957699999999998  0.61905  0.03816  1.0000
  C   C99       1.0  0.7343499999999998  0.59152  0.91252  1.0000
  C   C100      1.0  0.77448  0.34634  0.96185  1.0000
  C   C101      1.0  0.08795999999999998  0.23979000000000003  0.7670600000000001  1.0000
  C   C102      1.0  0.03407  0.24029999999999999  0.80943  1.0000
  C   C103      1.0  0.9641  0.24487999999999996  0.7924200000000001  1.0000
  C   C104      1.0  0.94748  0.24941999999999998  0.7306800000000001  1.0000
  C   C105      1.0  0.00137  0.24914  0.68851  1.0000
  C   C106      1.0  0.07164  0.24511000000000002  0.70542  1.0000
  C   C107      1.0  0.15956  0.23369  0.79368  1.0000
  C   C108      1.0  0.91041  0.24212000000000003  0.84114  1.0000
  C   C109      1.0  0.87481  0.25992  0.70703  1.0000
  C   C110      1.0  0.12514  0.25155  0.65617  1.0000
  C   C111      1.0  0.26543  0.07115  0.54295  1.0000
  C   C112      1.0  0.28317  0.00442  0.56039  1.0000
  C   C113      1.0  0.28728  0.95217  0.51774  1.0000
  C   C114      1.0  0.27342999999999995  0.96606  0.45695  1.0000
  C   C115      1.0  0.25860999999999995  0.03331  0.43915  1.0000
  C   C116      1.0  0.25302  0.08557  0.48188  1.0000
  C   C117      1.0  0.26155  0.12555  0.58998  1.0000
  C   C118      1.0  0.30423999999999995  0.8809499999999999  0.53816  1.0000
  C   C119      1.0  0.26564999999999994  0.9084800000000001  0.41251000000000004  1.0000
  C   C120      1.0  0.22552999999999998  0.15366  0.46185  1.0000
  C   C121      1.0  0.41198  0.73992  0.23306  1.0000
  C   C122      1.0  0.46584  0.74096  0.19069000000000003  1.0000
  C   C123      1.0  0.53575  0.74595  0.20772000000000002  1.0000
  C   C124      1.0  0.55234  0.75033  0.26945  1.0000
  C   C125      1.0  0.49854999999999994  0.74942  0.31162  1.0000
  C   C126      1.0  0.42834999999999995  0.74508  0.29467  1.0000
  C   C127      1.0  0.34043999999999996  0.73373  0.20641000000000004  1.0000
  C   C128      1.0  0.58933  0.74326  0.15896  1.0000
  C   C129      1.0  0.62488  0.76081  0.29312  1.0000
  C   C130      1.0  0.37491  0.75147  0.34387000000000006  1.0000
  C   C131      1.0  0.23452  0.57127  0.4571  1.0000
  C   C132      1.0  0.21680999999999997  0.50449  0.43981000000000003  1.0000
  C   C133      1.0  0.21272999999999997  0.45233000000000007  0.48258  1.0000
  C   C134      1.0  0.22661999999999996  0.46637  0.54334  1.0000
  C   C135      1.0  0.24138  0.5336  0.56105  1.0000
  C   C136      1.0  0.24691  0.58572  0.51818  1.0000
  C   C137      1.0  0.23841  0.62568  0.41000000000000003  1.0000
  C   C138      1.0  0.19572999999999996  0.38093  0.46267  1.0000
  C   C139      1.0  0.23450999999999997  0.40877  0.5877500000000001  1.0000
  C   C140      1.0  0.27442  0.6537  0.5382  1.0000
  C   C141      1.0  0.58802  0.76009  0.73306  1.0000
  C   C142      1.0  0.53416  0.75904  0.6906800000000001  1.0000
  C   C143      1.0  0.46425999999999995  0.75405  0.70772  1.0000
  C   C144      1.0  0.44766999999999996  0.74967  0.7694400000000001  1.0000
  C   C145      1.0  0.50145  0.75058  0.81162  1.0000
  C   C146      1.0  0.57165  0.75492  0.7946700000000001  1.0000
  C   C147      1.0  0.65957  0.76628  0.70641  1.0000
  C   C148      1.0  0.41066999999999987  0.75674  0.65896  1.0000
  C   C149      1.0  0.37513  0.73917  0.7931200000000002  1.0000
  C   C150      1.0  0.62509  0.74853  0.84387  1.0000
  C   C151      1.0  0.7654799999999998  0.92873  0.9571100000000001  1.0000
  C   C152      1.0  0.7831899999999998  0.99551  0.9398100000000001  1.0000
  C   C153      1.0  0.78727  0.04767  0.98258  1.0000
  C   C154      1.0  0.7733799999999998  0.03363  0.04334  1.0000
  C   C155      1.0  0.75862  0.9663999999999999  0.061050000000000014  1.0000
  C   C156      1.0  0.75309  0.91428  0.01818  1.0000
  C   C157      1.0  0.7615999999999998  0.87432  0.91  1.0000
  C   C158      1.0  0.8042699999999999  0.11907  0.96267  1.0000
  C   C159      1.0  0.76549  0.09123  0.08776  1.0000
  C   C160      1.0  0.72559  0.8463000000000002  0.0382  1.0000
  O   O1        1.0  0.19774999999999995  0.68061  0.7150600000000001  1.0000
  O   O2        1.0  0.17608  0.7813  0.66992  1.0000
  O   O3        1.0  0.19086999999999996  0.75332  0.8243800000000001  1.0000
  O   O4        1.0  0.10808999999999999  0.75688  0.89706  1.0000
  O   O5        1.0  0.84889  0.72415  0.67324  1.0000
  O   O6        1.0  0.93092  0.75678  0.60546  1.0000
  O   O7        1.0  0.8539899999999998  0.71836  0.8330000000000001  1.0000
  O   O8        1.0  0.8423599999999999  0.81232  0.7727400000000001  1.0000
  O   O9        1.0  0.27798  0.68638  0.9244100000000001  1.0000
  O   O10       1.0  0.24278999999999998  0.60434  0.85761  1.0000
  O   O11       1.0  0.26313  0.35427  0.9239700000000001  1.0000
  O   O12       1.0  0.36093  0.35392  0.9819500000000001  1.0000
  O   O13       1.0  0.24316  0.35196  0.06126  1.0000
  O   O14       1.0  0.27688  0.41626  0.14169  1.0000
  O   O15       1.0  0.16968999999999998  0.67405  0.011820000000000002  1.0000
  O   O16       1.0  0.25669  0.6837  0.08102  1.0000
  O   O17       1.0  0.80226  0.81939  0.21506000000000003  1.0000
  O   O18       1.0  0.82393  0.7187  0.16992  1.0000
  O   O19       1.0  0.80913  0.74668  0.32438000000000006  1.0000
  O   O20       1.0  0.89192  0.74312  0.3970600000000001  1.0000
  O   O21       1.0  0.15111999999999995  0.77581  0.17324  1.0000
  O   O22       1.0  0.06908  0.74322  0.10546000000000003  1.0000
  O   O23       1.0  0.14601999999999998  0.78164  0.3330000000000001  1.0000
  O   O24       1.0  0.15764  0.68768  0.27274  1.0000
  O   O25       1.0  0.7220299999999998  0.81362  0.42441  1.0000
  O   O26       1.0  0.7572099999999998  0.89566  0.35761  1.0000
  O   O27       1.0  0.73688  0.14573  0.42397  1.0000
  O   O28       1.0  0.63907  0.14607  0.48195  1.0000
  O   O29       1.0  0.7568499999999999  0.14804  0.56126  1.0000
  O   O30       1.0  0.72314  0.08374  0.6416900000000001  1.0000
  O   O31       1.0  0.8303099999999999  0.82595  0.51183  1.0000
  O   O32       1.0  0.74332  0.81631  0.58102  1.0000
  O   O33       1.0  0.6976799999999999  0.31932  0.78489  1.0000
  O   O34       1.0  0.67607  0.21870000000000003  0.8301000000000001  1.0000
  O   O35       1.0  0.6908  0.24674000000000001  0.67564  1.0000
  O   O36       1.0  0.60807  0.24311000000000002  0.60291  1.0000
  O   O37       1.0  0.34968999999999995  0.27705  0.82706  1.0000
  O   O38       1.0  0.43078  0.23996000000000003  0.89412  1.0000
  O   O39       1.0  0.3540499999999999  0.28102  0.66711  1.0000
  O   O40       1.0  0.34273  0.18691  0.72727  1.0000
  O   O41       1.0  0.7780499999999999  0.31342  0.57569  1.0000
  O   O42       1.0  0.74279  0.39564  0.64239  1.0000
  O   O43       1.0  0.76383  0.6458  0.57584  1.0000
  O   O44       1.0  0.86028  0.64612  0.51594  1.0000
  O   O45       1.0  0.74282  0.64769  0.43851000000000007  1.0000
  O   O46       1.0  0.77685  0.58361  0.35805  1.0000
  O   O47       1.0  0.66988  0.3259  0.4882000000000001  1.0000
  O   O48       1.0  0.75668  0.31633  0.4187600000000001  1.0000
  O   O49       1.0  0.3023299999999999  0.18068  0.28489  1.0000
  O   O50       1.0  0.32394  0.2813  0.3301  1.0000
  O   O51       1.0  0.3092  0.25326  0.17564  1.0000
  O   O52       1.0  0.39192999999999995  0.25689  0.10292  1.0000
  O   O53       1.0  0.65031  0.22294  0.32706  1.0000
  O   O54       1.0  0.56922  0.26004  0.39412  1.0000
  O   O55       1.0  0.64595  0.21900000000000003  0.16711  1.0000
  O   O56       1.0  0.6572599999999998  0.31311  0.22727  1.0000
  O   O57       1.0  0.22194999999999998  0.18658  0.07569000000000001  1.0000
  O   O58       1.0  0.25721  0.10436  0.14239  1.0000
  O   O59       1.0  0.23618  0.8542  0.07584  1.0000
  O   O60       1.0  0.13972  0.8538799999999999  0.01594  1.0000
  O   O61       1.0  0.25718  0.8523099999999999  0.9385000000000001  1.0000
  O   O62       1.0  0.22315  0.9163900000000001  0.85805  1.0000
  O   O63       1.0  0.33012  0.1741  0.9882000000000002  1.0000
  O   O64       1.0  0.24333  0.18367  0.91876  1.0000
  O   O65       1.0  0.80226  0.31939  0.28494  1.0000
  O   O66       1.0  0.82393  0.21870000000000003  0.33009000000000005  1.0000
  O   O67       1.0  0.80913  0.24668  0.17562000000000003  1.0000
  O   O68       1.0  0.89192  0.24312000000000003  0.10294000000000002  1.0000
  O   O69       1.0  0.15111999999999995  0.27585  0.32676  1.0000
  O   O70       1.0  0.06908  0.24321999999999996  0.39454000000000006  1.0000
  O   O71       1.0  0.14601999999999998  0.28164  0.167  1.0000
  O   O72       1.0  0.15764  0.18768  0.22727  1.0000
  O   O73       1.0  0.7220299999999998  0.31362  0.07559  1.0000
  O   O74       1.0  0.7572099999999998  0.39566  0.14239  1.0000
  O   O75       1.0  0.7368699999999999  0.64573  0.07603000000000001  1.0000
  O   O76       1.0  0.63908  0.64608  0.01805  1.0000
  O   O77       1.0  0.7568499999999999  0.64804  0.93874  1.0000
  O   O78       1.0  0.72313  0.58374  0.85831  1.0000
  O   O79       1.0  0.8303099999999999  0.32595  0.9881800000000001  1.0000
  O   O80       1.0  0.74332  0.3163  0.91898  1.0000
  O   O81       1.0  0.19774  0.18061  0.78494  1.0000
  O   O82       1.0  0.17608  0.2813  0.83009  1.0000
  O   O83       1.0  0.19086999999999996  0.25332  0.6756200000000001  1.0000
  O   O84       1.0  0.10808999999999999  0.25688  0.60294  1.0000
  O   O85       1.0  0.84888  0.22419  0.82676  1.0000
  O   O86       1.0  0.93092  0.25678  0.8945400000000001  1.0000
  O   O87       1.0  0.8539899999999998  0.21836  0.667  1.0000
  O   O88       1.0  0.8423599999999999  0.31232  0.7272600000000001  1.0000
  O   O89       1.0  0.27798  0.18638  0.57559  1.0000
  O   O90       1.0  0.24278999999999998  0.10433999999999999  0.64239  1.0000
  O   O91       1.0  0.26313  0.8542699999999999  0.57603  1.0000
  O   O92       1.0  0.36093  0.85393  0.51806  1.0000
  O   O93       1.0  0.24316  0.85196  0.43874  1.0000
  O   O94       1.0  0.27686  0.91626  0.3583100000000001  1.0000
  O   O95       1.0  0.16968999999999998  0.17405  0.48818000000000006  1.0000
  O   O96       1.0  0.25669  0.18369  0.4189800000000001  1.0000
  O   O97       1.0  0.3023299999999999  0.68068  0.21511  1.0000
  O   O98       1.0  0.32394  0.7813  0.16991  1.0000
  O   O99       1.0  0.3092  0.75326  0.32436  1.0000
  O   O100      1.0  0.39192999999999995  0.75689  0.39709  1.0000
  O   O101      1.0  0.65031  0.72295  0.17294  1.0000
  O   O102      1.0  0.56922  0.76004  0.10588  1.0000
  O   O103      1.0  0.64595  0.71898  0.3328900000000001  1.0000
  O   O104      1.0  0.65727  0.81309  0.27274  1.0000
  O   O105      1.0  0.22194999999999998  0.68658  0.4243100000000001  1.0000
  O   O106      1.0  0.25721  0.60436  0.35761  1.0000
  O   O107      1.0  0.23618  0.35419  0.4241600000000001  1.0000
  O   O108      1.0  0.13972  0.35388  0.4840600000000001  1.0000
  O   O109      1.0  0.25718  0.35231  0.56149  1.0000
  O   O110      1.0  0.22315  0.41639000000000004  0.64195  1.0000
  O   O111      1.0  0.33012  0.6741  0.5118  1.0000
  O   O112      1.0  0.24333  0.68367  0.58124  1.0000
  O   O113      1.0  0.6976799999999999  0.81932  0.71511  1.0000
  O   O114      1.0  0.67607  0.7187  0.66991  1.0000
  O   O115      1.0  0.6908  0.74674  0.82436  1.0000
  O   O116      1.0  0.60807  0.74311  0.89709  1.0000
  O   O117      1.0  0.34968999999999995  0.77706  0.67294  1.0000
  O   O118      1.0  0.43078  0.73996  0.60588  1.0000
  O   O119      1.0  0.3540499999999999  0.781  0.8328900000000002  1.0000
  O   O120      1.0  0.34273999999999993  0.68689  0.77273  1.0000
  O   O121      1.0  0.7780499999999999  0.81342  0.92431  1.0000
  O   O122      1.0  0.7427999999999999  0.89564  0.85761  1.0000
  O   O123      1.0  0.76383  0.1458  0.92416  1.0000
  O   O124      1.0  0.86028  0.14612  0.98406  1.0000
  O   O125      1.0  0.74282  0.14769  0.0615  1.0000
  O   O126      1.0  0.7768599999999998  0.08361  0.14195  1.0000
  O   O127      1.0  0.66988  0.8259  0.0118  1.0000
  O   O128      1.0  0.75668  0.81633  0.08124  1.0000
