data_image0
_chemical_formula_structural       Mn6H122C128N16O24
_chemical_formula_sum              "Mn6 H122 C128 N16 O24"
_cell_length_a       9.69718
_cell_length_b       9.71322
_cell_length_c       33.73349000000001
_cell_angle_alpha    91.02966
_cell_angle_beta     89.02556
_cell_angle_gamma    87.80504

_space_group_name_H-M_alt    "P 1"
_space_group_IT_number       1

loop_
  _space_group_symop_operation_xyz
  'x, y, z'

loop_
  _atom_site_type_symbol
  _atom_site_label
  _atom_site_symmetry_multiplicity
  _atom_site_fract_x
  _atom_site_fract_y
  _atom_site_fract_z
  _atom_site_occupancy
  Mn  Mn1       1.0  0.97683  0.9482099999999999  0.39213  1.0000
  Mn  Mn2       1.0  0.045750000000000006  0.026989999999999993  0.60644  1.0000
  Mn  Mn3       1.0  0.04954000000000001  0.02341999999999999  0.89362  1.0000
  Mn  Mn4       1.0  0.96779  0.94773  0.10687  1.0000
  Mn  Mn5       1.0  0.030069999999999996  0.96953  0.50003  1.0000
  Mn  Mn6       1.0  0.027540000000000002  0.96165  0.00115  1.0000
  H   H1        1.0  0.03442  0.25166  0.37924  1.0000
  H   H2        1.0  0.09409  0.6884099999999997  0.38747  1.0000
  H   H3        1.0  0.02437  0.45839  0.49282  1.0000
  H   H4        1.0  0.69492  0.24184  0.31721  1.0000
  H   H5        1.0  0.63566  0.48227999999999993  0.30757  1.0000
  H   H6        1.0  0.46411  0.52816  0.29315  1.0000
  H   H7        1.0  0.49848999999999993  0.37043  0.31727  1.0000
  H   H8        1.0  0.74553  0.7884699999999999  0.33756  1.0000
  H   H9        1.0  0.52584  0.65042  0.37086  1.0000
  H   H10       1.0  0.77488  0.80311  0.46228  1.0000
  H   H11       1.0  0.58363  0.6607999999999998  0.4835999999999999  1.0000
  H   H12       1.0  0.43456999999999996  0.69456  0.4549  1.0000
  H   H13       1.0  0.73559  0.44105999999999995  0.46532  1.0000
  H   H14       1.0  0.73385  0.19666  0.44306  1.0000
  H   H15       1.0  0.32254  0.264  0.39927  1.0000
  H   H16       1.0  0.32450999999999997  0.50719  0.42116  1.0000
  H   H17       1.0  0.55291  0.99715  0.43099  1.0000
  H   H18       1.0  0.62374  0.04665  0.38513  1.0000
  H   H19       1.0  0.28127  0.9777999999999999  0.43603  1.0000
  H   H20       1.0  0.19693999999999998  0.9700199999999999  0.31362  1.0000
  H   H21       1.0  0.47029  0.04546  0.32434  1.0000
  H   H22       1.0  0.11373999999999998  0.2491  0.32156999999999997  1.0000
  H   H23       1.0  0.19181  0.34936  0.28492  1.0000
  H   H24       1.0  0.27107  0.32925  0.33157  1.0000
  H   H25       1.0  0.88694  0.5714  0.32248  1.0000
  H   H26       1.0  0.9555499999999999  0.47473999999999994  0.28081  1.0000
  H   H27       1.0  0.88828  0.3878499999999999  0.32234  1.0000
  H   H28       1.0  0.26643  0.60935  0.33445  1.0000
  H   H29       1.0  0.19082  0.59377  0.28709  1.0000
  H   H30       1.0  0.10670000000000002  0.6974399999999998  0.32433  1.0000
  H   H31       1.0  0.7362599999999999  0.97758  0.62029  1.0000
  H   H32       1.0  0.29898  0.9203699999999999  0.61357  1.0000
  H   H33       1.0  0.54034  0.9715399999999998  0.50731  1.0000
  H   H34       1.0  0.7611  0.30878999999999995  0.68898  1.0000
  H   H35       1.0  0.5536  0.37134  0.69342  1.0000
  H   H36       1.0  0.42582999999999993  0.46904999999999997  0.7239399999999999  1.0000
  H   H37       1.0  0.64283  0.65668  0.72943  1.0000
  H   H38       1.0  0.18865999999999994  0.27578  0.66031  1.0000
  H   H39       1.0  0.32634  0.49294  0.62691  1.0000
  H   H40       1.0  0.19586  0.22559  0.53576  1.0000
  H   H41       1.0  0.3379  0.41588  0.51439  1.0000
  H   H42       1.0  0.3005  0.56914  0.54275  1.0000
  H   H43       1.0  0.55305  0.26455  0.53389  1.0000
  H   H44       1.0  0.7932500000000001  0.26623  0.55782  1.0000
  H   H45       1.0  0.72135  0.68271  0.60151  1.0000
  H   H46       1.0  0.48284000000000005  0.6812999999999999  0.57759  1.0000
  H   H47       1.0  0.9924899999999999  0.44262  0.57177  1.0000
  H   H48       1.0  0.9318599999999999  0.38404  0.61771  1.0000
  H   H49       1.0  0.018220000000000004  0.71277  0.56451  1.0000
  H   H50       1.0  0.0008900000000000008  0.82424  0.68614  1.0000
  H   H51       1.0  0.9197  0.5522199999999999  0.6770199999999998  1.0000
  H   H52       1.0  0.72762  0.9602499999999999  0.67971  1.0000
  H   H53       1.0  0.63542  0.8828199999999999  0.71822  1.0000
  H   H54       1.0  0.68054  0.7859899999999999  0.67419  1.0000
  H   H55       1.0  0.36841999999999997  0.11927  0.67387  1.0000
  H   H56       1.0  0.46315999999999996  0.0827  0.71736  1.0000
  H   H57       1.0  0.54757  0.15374000000000002  0.67567  1.0000
  H   H58       1.0  0.41475999999999996  0.73274  0.66811  1.0000
  H   H59       1.0  0.39741999999999994  0.82513  0.7139  1.0000
  H   H60       1.0  0.291  0.87299  0.67418  1.0000
  H   H61       1.0  0.7432400000000001  0.9669  0.87855  1.0000
  H   H62       1.0  0.30625  0.9049799999999999  0.88714  1.0000
  H   H63       1.0  0.5382899999999999  0.9711  0.9924200000000001  1.0000
  H   H64       1.0  0.76014  0.30364  0.81722  1.0000
  H   H65       1.0  0.51798  0.36493  0.80735  1.0000
  H   H66       1.0  0.47408999999999996  0.53591  0.79228  1.0000
  H   H67       1.0  0.63134  0.501  0.81672  1.0000
  H   H68       1.0  0.20959  0.25163  0.83911  1.0000
  H   H69       1.0  0.3446599999999999  0.4741  0.87192  1.0000
  H   H70       1.0  0.19489999999999996  0.22614  0.96391  1.0000
  H   H71       1.0  0.33644  0.42011  0.9846699999999999  1.0000
  H   H72       1.0  0.30228  0.56762  0.95551  1.0000
  H   H73       1.0  0.55441  0.26438  0.9647500000000001  1.0000
  H   H74       1.0  0.7986899999999998  0.26495  0.94208  1.0000
  H   H75       1.0  0.73366  0.6782899999999998  0.90013  1.0000
  H   H76       1.0  0.49045999999999995  0.67722  0.92225  1.0000
  H   H77       1.0  0.9999499999999999  0.44673999999999997  0.93119  1.0000
  H   H78       1.0  0.95053  0.37707000000000007  0.88515  1.0000
  H   H79       1.0  0.019630000000000005  0.71746  0.93692  1.0000
  H   H80       1.0  0.023840000000000004  0.8063  0.81484  1.0000
  H   H81       1.0  0.95013  0.53244  0.8248  1.0000
  H   H82       1.0  0.74506  0.8849000000000002  0.82083  1.0000
  H   H83       1.0  0.64345  0.80573  0.78456  1.0000
  H   H84       1.0  0.66421  0.7286899999999998  0.8315  1.0000
  H   H85       1.0  0.4233799999999999  0.11294  0.82207  1.0000
  H   H86       1.0  0.51832  0.0434  0.78024  1.0000
  H   H87       1.0  0.60732  0.11063999999999997  0.82142  1.0000
  H   H88       1.0  0.38382  0.7342599999999999  0.83422  1.0000
  H   H89       1.0  0.39890000000000003  0.8093  0.78681  1.0000
  H   H90       1.0  0.29601  0.8940199999999999  0.82411  1.0000
  H   H91       1.0  0.01719  0.25436  0.12134  1.0000
  H   H92       1.0  0.0751  0.6909799999999999  0.11476  1.0000
  H   H93       1.0  0.02586  0.45024  0.00842  1.0000
  H   H94       1.0  0.6849899999999999  0.23942  0.18897  1.0000
  H   H95       1.0  0.6239599999999998  0.44712  0.19361  1.0000
  H   H96       1.0  0.52871  0.57603  0.22439  1.0000
  H   H97       1.0  0.33865  0.36172999999999994  0.23063  1.0000
  H   H98       1.0  0.71876  0.8069199999999999  0.16011999999999998  1.0000
  H   H99       1.0  0.50097  0.66938  0.12668  1.0000
  H   H100      1.0  0.76928  0.79778  0.03552  1.0000
  H   H101      1.0  0.5776499999999999  0.6564  0.01422  1.0000
  H   H102      1.0  0.4245399999999999  0.69405  0.04269  1.0000
  H   H103      1.0  0.7294199999999998  0.44175  0.03367  1.0000
  H   H104      1.0  0.72817  0.20234  0.05791  1.0000
  H   H105      1.0  0.31175  0.27473  0.102  1.0000
  H   H106      1.0  0.31294  0.51258  0.07792  1.0000
  H   H107      1.0  0.5524  0.00366  0.07207  1.0000
  H   H108      1.0  0.6108  0.06480999999999999  0.11803  1.0000
  H   H109      1.0  0.28192  0.97713  0.06472  1.0000
  H   H110      1.0  0.17063  0.99314  0.18635  1.0000
  H   H111      1.0  0.44268  0.07575  0.17729  1.0000
  H   H112      1.0  0.0344  0.26453  0.18091  1.0000
  H   H113      1.0  0.11199000000000003  0.35654999999999987  0.21946999999999997  1.0000
  H   H114      1.0  0.20923  0.31057999999999997  0.17555  1.0000
  H   H115      1.0  0.8778199999999999  0.6246  0.17426  1.0000
  H   H116      1.0  0.91451  0.53357  0.21837  1.0000
  H   H117      1.0  0.84162  0.4463699999999999  0.17738  1.0000
  H   H118      1.0  0.26448  0.57467  0.16836  1.0000
  H   H119      1.0  0.17365  0.5940299999999998  0.2144  1.0000
  H   H120      1.0  0.12519  0.6994699999999999  0.17456  1.0000
  H   H121      1.0  0.93145  0.9360299999999999  0.24937000000000004  1.0000
  H   H122      1.0  0.06458000000000001  0.06336  0.74968  1.0000
  C   C1        1.0  0.01441  0.20580999999999997  0.45699  1.0000
  C   C2        1.0  0.03190000000000002  0.34072  0.43768  1.0000
  C   C3        1.0  0.04467  0.34657  0.39628  1.0000
  C   C4        1.0  0.07102999999999998  0.4703099999999999  0.3772  1.0000
  C   C5        1.0  0.07419000000000002  0.59007  0.40086  1.0000
  C   C6        1.0  0.0533  0.58722  0.44215  1.0000
  C   C7        1.0  0.03639  0.46147  0.46075  1.0000
  C   C8        1.0  0.04855000000000001  0.7169399999999999  0.46634  1.0000
  C   C9        1.0  0.09049  0.47346999999999995  0.33204  1.0000
  C   C10       1.0  0.87712  0.03131  0.32443  1.0000
  C   C11       1.0  0.8182200000000001  0.08469  0.28686  1.0000
  C   C12       1.0  0.7239499999999999  0.19817  0.28822  1.0000
  C   C13       1.0  0.53997  0.4421399999999999  0.29563  1.0000
  C   C14       1.0  0.71903  0.7708  0.36828  1.0000
  C   C15       1.0  0.60991  0.70329  0.38422  1.0000
  C   C16       1.0  0.7416499999999999  0.7787899999999999  0.43252  1.0000
  C   C17       1.0  0.53745  0.64307  0.45455  1.0000
  C   C18       1.0  0.5302999999999999  0.49138  0.44461  1.0000
  C   C19       1.0  0.6448599999999999  0.40225999999999995  0.45093999999999995  1.0000
  C   C20       1.0  0.64404  0.2648499999999999  0.43849  1.0000
  C   C21       1.0  0.52838  0.21381999999999998  0.41943  1.0000
  C   C22       1.0  0.41353999999999996  0.30172999999999994  0.41363  1.0000
  C   C23       1.0  0.41457  0.43984  0.42617999999999995  1.0000
  C   C24       1.0  0.53535  0.06434  0.40563  1.0000
  C   C25       1.0  0.29235  0.98545  0.4041  1.0000
  C   C26       1.0  0.25536000000000003  0.98345  0.34036  1.0000
  C   C27       1.0  0.38946  0.02043  0.34521  1.0000
  C   C28       1.0  0.17139999999999997  0.34255  0.31693  1.0000
  C   C29       1.0  0.94623  0.47731  0.31333  1.0000
  C   C30       1.0  0.16798  0.6012499999999998  0.31909  1.0000
  C   C31       1.0  0.7895  0.98658  0.54283  1.0000
  C   C32       1.0  0.65243  0.9713999999999999  0.56221  1.0000
  C   C33       1.0  0.6425200000000001  0.9652399999999999  0.60364  1.0000
  C   C34       1.0  0.51662  0.9436  0.62311  1.0000
  C   C35       1.0  0.39886  0.93675  0.59966  1.0000
  C   C36       1.0  0.40593  0.95034  0.5583  1.0000
  C   C37       1.0  0.53399  0.9640199999999998  0.53939  1.0000
  C   C38       1.0  0.27921000000000007  0.9523599999999999  0.53405  1.0000
  C   C39       1.0  0.50683  0.9357399999999999  0.66843  1.0000
  C   C40       1.0  0.97128  0.12751  0.67642  1.0000
  C   C41       1.0  0.9169899999999999  0.18211  0.71555  1.0000
  C   C42       1.0  0.80383  0.27615  0.71705  1.0000
  C   C43       1.0  0.53528  0.4442499999999999  0.71815  1.0000
  C   C44       1.0  0.21037999999999998  0.29742999999999997  0.62957  1.0000
  C   C45       1.0  0.2779  0.40548999999999996  0.61358  1.0000
  C   C46       1.0  0.21413  0.2639699999999999  0.56548  1.0000
  C   C47       1.0  0.35105  0.46607999999999994  0.54342  1.0000
  C   C48       1.0  0.50122  0.47295999999999994  0.55409  1.0000
  C   C49       1.0  0.59019  0.3565999999999999  0.54844  1.0000
  C   C50       1.0  0.72512  0.35729  0.56189  1.0000
  C   C51       1.0  0.77354  0.47447999999999996  0.58139  1.0000
  C   C52       1.0  0.68574  0.59088  0.58661  1.0000
  C   C53       1.0  0.55032  0.5901  0.57295  1.0000
  C   C54       1.0  0.91997  0.46767999999999993  0.59639  1.0000
  C   C55       1.0  0.003840000000000003  0.70886  0.59644  1.0000
  C   C56       1.0  0.9919999999999999  0.76061  0.65974  1.0000
  C   C57       1.0  0.95288  0.62667  0.65572  1.0000
  C   C58       1.0  0.6460099999999999  0.8880800000000002  0.6858  1.0000
  C   C59       1.0  0.46871  0.08205999999999998  0.68479  1.0000
  C   C60       1.0  0.3955699999999999  0.83574  0.68153  1.0000
  C   C61       1.0  0.79135  0.98255  0.9562500000000002  1.0000
  C   C62       1.0  0.6554299999999998  0.9662499999999999  0.9371499999999999  1.0000
  C   C63       1.0  0.64866  0.95541  0.89572  1.0000
  C   C64       1.0  0.52439  0.9289699999999999  0.87675  1.0000
  C   C65       1.0  0.40484  0.92489  0.90052  1.0000
  C   C66       1.0  0.40835999999999995  0.94486  0.94181  1.0000
  C   C67       1.0  0.5348500000000002  0.9607899999999999  0.96032  1.0000
  C   C68       1.0  0.27938  0.9484  0.9663499999999999  1.0000
  C   C69       1.0  0.52056  0.9093499999999999  0.8315899999999999  1.0000
  C   C70       1.0  0.96893  0.12113999999999998  0.8250699999999999  1.0000
  C   C71       1.0  0.91642  0.17828  0.78711  1.0000
  C   C72       1.0  0.80327  0.27321  0.78827  1.0000
  C   C73       1.0  0.55937  0.45943  0.79515  1.0000
  C   C74       1.0  0.22661  0.27959999999999996  0.86976  1.0000
  C   C75       1.0  0.29268  0.38997  0.88546  1.0000
  C   C76       1.0  0.21862999999999996  0.2591  0.93409  1.0000
  C   C77       1.0  0.35362000000000005  0.46480999999999995  0.95543  1.0000
  C   C78       1.0  0.50537  0.47099  0.94512  1.0000
  C   C79       1.0  0.59382  0.35547  0.9507899999999999  1.0000
  C   C80       1.0  0.7312199999999999  0.35567  0.93815  1.0000
  C   C81       1.0  0.78297  0.4717499999999999  0.91959  1.0000
  C   C82       1.0  0.69558  0.58722  0.91427  1.0000
  C   C83       1.0  0.55743  0.58674  0.92697  1.0000
  C   C84       1.0  0.9326899999999999  0.46480999999999995  0.90584  1.0000
  C   C85       1.0  0.011230000000000002  0.70761  0.90498  1.0000
  C   C86       1.0  0.011180000000000002  0.74694  0.8414  1.0000
  C   C87       1.0  0.97516  0.6126  0.84587  1.0000
  C   C88       1.0  0.65112  0.82752  0.81649  1.0000
  C   C89       1.0  0.51705  0.05312  0.81275  1.0000
  C   C90       1.0  0.39203  0.8323799999999999  0.8187999999999999  1.0000
  C   C91       1.0  0.009730000000000003  0.20193999999999995  0.04328  1.0000
  C   C92       1.0  0.024209999999999995  0.33814999999999995  0.06321  1.0000
  C   C93       1.0  0.02991  0.34784  0.10469  1.0000
  C   C94       1.0  0.05165  0.4737199999999999  0.12415  1.0000
  C   C95       1.0  0.058730000000000004  0.59136  0.10078  1.0000
  C   C96       1.0  0.04586  0.58433  0.05945000000000001  1.0000
  C   C97       1.0  0.032220000000000006  0.45652  0.04052  1.0000
  C   C98       1.0  0.04618  0.71035  0.03509  1.0000
  C   C99       1.0  0.060230000000000006  0.48454999999999987  0.16943  1.0000
  C   C100      1.0  0.8658699999999999  0.028489999999999998  0.17622  1.0000
  C   C101      1.0  0.81244  0.08346999999999999  0.21534  1.0000
  C   C102      1.0  0.7188  0.19683  0.21695  1.0000
  C   C103      1.0  0.55215  0.46652  0.21856  1.0000
  C   C104      1.0  0.6969899999999999  0.7849099999999998  0.12938  1.0000
  C   C105      1.0  0.58872  0.71744  0.11338  1.0000
  C   C106      1.0  0.73064  0.7803999999999999  0.06527  1.0000
  C   C107      1.0  0.5278  0.64359  0.04331  1.0000
  C   C108      1.0  0.52107  0.49381  0.05411  1.0000
  C   C109      1.0  0.63751  0.40488  0.04839  1.0000
  C   C110      1.0  0.6369999999999999  0.27038  0.06197  1.0000
  C   C111      1.0  0.51992  0.22226  0.08162  1.0000
  C   C112      1.0  0.40349999999999997  0.31004999999999994  0.08696  1.0000
  C   C113      1.0  0.40414  0.44509  0.0732  1.0000
  C   C114      1.0  0.52706  0.07618  0.09666  1.0000
  C   C115      1.0  0.28586000000000006  0.99145  0.09666  1.0000
  C   C116      1.0  0.23431999999999997  0.00252  0.15997  1.0000
  C   C117      1.0  0.36818  0.04241  0.15597  1.0000
  C   C118      1.0  0.107  0.34572  0.18705  1.0000
  C   C119      1.0  0.9143600000000001  0.52514  0.18584  1.0000
  C   C120      1.0  0.16193999999999997  0.59502  0.18205  1.0000
  C   C121      1.0  0.8602899999999999  0.025269999999999997  0.25044  1.0000
  C   C122      1.0  0.67141  0.25482  0.25338  1.0000
  C   C123      1.0  0.56644  0.37274  0.25523  1.0000
  C   C124      1.0  0.44952  0.36525  0.22772  1.0000
  C   C125      1.0  0.97561  0.13502  0.75073  1.0000
  C   C126      1.0  0.74628  0.32494  0.7534  1.0000
  C   C127      1.0  0.62899  0.43069999999999997  0.75491  1.0000
  C   C128      1.0  0.63789  0.5459199999999998  0.72698  1.0000
  N   N1        1.0  0.8009  0.8178199999999999  0.39864  1.0000
  N   N2        1.0  0.62545  0.70973  0.42497  1.0000
  N   N3        1.0  0.19519  0.96216  0.37731  1.0000
  N   N4        1.0  0.41147999999999996  0.02062  0.38574  1.0000
  N   N5        1.0  0.17076  0.20922999999999997  0.59937  1.0000
  N   N6        1.0  0.27872  0.38321  0.57288  1.0000
  N   N7        1.0  0.023240000000000004  0.8114899999999999  0.62256  1.0000
  N   N8        1.0  0.96172  0.59514  0.61548  1.0000
  N   N9        1.0  0.18037  0.1983699999999999  0.90032  1.0000
  N   N10       1.0  0.28617  0.37582  0.9262599999999999  1.0000
  N   N11       1.0  0.0332  0.80576  0.87848  1.0000
  N   N12       1.0  0.97632  0.58909  0.8863  1.0000
  N   N13       1.0  0.78538  0.8241299999999999  0.09917  1.0000
  N   N14       1.0  0.6111  0.71613  0.07268  1.0000
  N   N15       1.0  0.18336000000000002  0.9712899999999999  0.12278  1.0000
  N   N16       1.0  0.39954  0.03417  0.11571  1.0000
  O   O1        1.0  0.9721799999999999  0.1038  0.43656  1.0000
  O   O2        1.0  0.04143  0.19372  0.49371999999999994  1.0000
  O   O3        1.0  0.03502999999999999  0.71475  0.50364  1.0000
  O   O4        1.0  0.05575999999999999  0.8335599999999999  0.44829  1.0000
  O   O5        1.0  0.8474699999999998  0.09659  0.35709  1.0000
  O   O6        1.0  0.9565600000000001  0.92312  0.32349  1.0000
  O   O7        1.0  0.88964  0.029229999999999996  0.56342  1.0000
  O   O8        1.0  0.8056500000000001  0.958  0.5059  1.0000
  O   O9        1.0  0.2858  0.96491  0.49688  1.0000
  O   O10       1.0  0.15988  0.9441999999999998  0.55181  1.0000
  O   O11       1.0  0.90186  0.15319  0.64511  1.0000
  O   O12       1.0  0.08381  0.05496999999999999  0.6747  1.0000
  O   O13       1.0  0.88974  0.0347  0.93654  1.0000
  O   O14       1.0  0.80688  0.9446499999999999  0.99206  1.0000
  O   O15       1.0  0.28392  0.96371  0.00357  1.0000
  O   O16       1.0  0.16157999999999995  0.9376699999999999  0.94876  1.0000
  O   O17       1.0  0.90219  0.15203  0.85734  1.0000
  O   O18       1.0  0.07786000000000001  0.04275000000000001  0.82501  1.0000
  O   O19       1.0  0.96464  0.10082999999999999  0.0631  1.0000
  O   O20       1.0  0.04128  0.18688  0.00654  1.0000
  O   O21       1.0  0.03514000000000001  0.70177  0.99792  1.0000
  O   O22       1.0  0.055310000000000005  0.8297099999999998  0.0528  1.0000
  O   O23       1.0  0.8400399999999999  0.09731  0.14492  1.0000
  O   O24       1.0  0.93808  0.91568  0.17467  1.0000
