data_image0
_chemical_formula_structural       Eu6H80C128O40
_chemical_formula_sum              "Eu6 H80 C128 O40"
_cell_length_a       14.25262
_cell_length_b       16.07751
_cell_length_c       24.23535
_cell_angle_alpha    91.09217999999998
_cell_angle_beta     90.04953999999998
_cell_angle_gamma    90.05974

_space_group_name_H-M_alt    "P 1"
_space_group_IT_number       1

loop_
  _space_group_symop_operation_xyz
  'x, y, z'

loop_
  _atom_site_type_symbol
  _atom_site_label
  _atom_site_symmetry_multiplicity
  _atom_site_fract_x
  _atom_site_fract_y
  _atom_site_fract_z
  _atom_site_occupancy
  Eu  Eu1       1.0  0.12176  0.5486700000000001  0.49513  1.0000
  Eu  Eu2       1.0  0.6216799999999999  0.95248  0.00399  1.0000
  Eu  Eu3       1.0  0.87765  0.4517500000000001  0.50429  1.0000
  Eu  Eu4       1.0  0.37758  0.04816  0.99488  1.0000
  Eu  Eu5       1.0  0.50038  0.5022  0.5009  1.0000
  Eu  Eu6       1.0  3.999999999999987e-05  0.0021599999999999987  0.9993599999999999  1.0000
  H   H1        1.0  0.8301099999999999  0.58396  0.62009  1.0000
  H   H2        1.0  0.75473  0.64113  0.70611  1.0000
  H   H3        1.0  0.06104  0.7545700000000002  0.63967  1.0000
  H   H4        1.0  0.70182  0.8061300000000002  0.88497  1.0000
  H   H5        1.0  0.7096599999999998  0.71892  0.79764  1.0000
  H   H6        1.0  0.9651299999999998  0.92207  0.84604  1.0000
  H   H7        1.0  0.9847  0.9125600000000003  0.6733099999999999  1.0000
  H   H8        1.0  0.08321  0.9277  0.71759  1.0000
  H   H9        1.0  0.97064  0.9624000000000003  0.73882  1.0000
  H   H10       1.0  0.16277  0.5878  0.34913  1.0000
  H   H11       1.0  0.15643  0.67355  0.26356  1.0000
  H   H12       1.0  0.46452  0.5969200000000002  0.34859  1.0000
  H   H13       1.0  0.25433  0.86161  0.10784999999999999  1.0000
  H   H14       1.0  0.18791999999999995  0.77037  0.18134  1.0000
  H   H15       1.0  0.53543  0.8057200000000002  0.15956  1.0000
  H   H16       1.0  0.603  0.67653  0.20671999999999996  1.0000
  H   H17       1.0  0.51502  0.5986400000000002  0.19846  1.0000
  H   H18       1.0  0.58095  0.60649  0.26113  1.0000
  H   H19       1.0  0.07453  0.75109  0.78388  1.0000
  H   H20       1.0  0.48416  0.7954  0.30698  1.0000
  H   H21       1.0  0.33026  0.9161500000000002  0.8795399999999999  1.0000
  H   H22       1.0  0.25384  0.85908  0.79407  1.0000
  H   H23       1.0  0.55981  0.74462  0.8601499999999999  1.0000
  H   H24       1.0  0.20123  0.69512  0.61388  1.0000
  H   H25       1.0  0.20886999999999994  0.78198  0.7011899999999999  1.0000
  H   H26       1.0  0.46302  0.5776700000000002  0.6537  1.0000
  H   H27       1.0  0.48191999999999996  0.58551  0.82564  1.0000
  H   H28       1.0  0.58185  0.57231  0.78233  1.0000
  H   H29       1.0  0.47034  0.53687  0.7595699999999999  1.0000
  H   H30       1.0  0.66382  0.9128400000000002  0.15045999999999998  1.0000
  H   H31       1.0  0.65775  0.8266  0.23568  1.0000
  H   H32       1.0  0.9656599999999999  0.9046800000000003  0.15081  1.0000
  H   H33       1.0  0.75519  0.63847  0.39072  1.0000
  H   H34       1.0  0.6886599999999998  0.7301300000000002  0.31748  1.0000
  H   H35       1.0  0.03639  0.69472  0.33971999999999997  1.0000
  H   H36       1.0  0.10348  0.82536  0.2941  1.0000
  H   H37       1.0  0.014  0.90163  0.30204  1.0000
  H   H38       1.0  0.08119  0.89614  0.23986999999999997  1.0000
  H   H39       1.0  0.57227  0.74906  0.71607  1.0000
  H   H40       1.0  0.98305  0.70706  0.19219  1.0000
  H   H41       1.0  0.16952  0.4158900000000001  0.3798599999999999  1.0000
  H   H42       1.0  0.24513  0.35899  0.29403  1.0000
  H   H43       1.0  0.93865  0.24544  0.36019  1.0000
  H   H44       1.0  0.29798999999999987  0.19262  0.1149  1.0000
  H   H45       1.0  0.29089  0.28013  0.20225  1.0000
  H   H46       1.0  0.03433  0.0778  0.15394  1.0000
  H   H47       1.0  0.01297  0.08765  0.32692  1.0000
  H   H48       1.0  0.91708  0.07102  0.28093  1.0000
  H   H49       1.0  0.03131  0.03795000000000001  0.2618  1.0000
  H   H50       1.0  0.83692  0.41076  0.6518799999999999  1.0000
  H   H51       1.0  0.84295  0.32553999999999994  0.73679  1.0000
  H   H52       1.0  0.53248  0.4062500000000001  0.6524799999999998  1.0000
  H   H53       1.0  0.74377  0.13408  0.88876  1.0000
  H   H54       1.0  0.8113599999999999  0.22398  0.81557  1.0000
  H   H55       1.0  0.46075  0.19782000000000005  0.84071  1.0000
  H   H56       1.0  0.39058  0.3232  0.79231  1.0000
  H   H57       1.0  0.47756  0.4015800000000001  0.80197  1.0000
  H   H58       1.0  0.41355  0.3947  0.7386199999999999  1.0000
  H   H59       1.0  0.9265599999999998  0.24924999999999997  0.21604  1.0000
  H   H60       1.0  0.51764  0.20668000000000009  0.69342  1.0000
  H   H61       1.0  0.66983  0.08527  0.12025  1.0000
  H   H62       1.0  0.74463  0.14244  0.20638  1.0000
  H   H63       1.0  0.4378  0.25422  0.13975  1.0000
  H   H64       1.0  0.7978699999999997  0.30842  0.38482  1.0000
  H   H65       1.0  0.78969  0.22062  0.29767  1.0000
  H   H66       1.0  0.53291  0.4219700000000001  0.34642  1.0000
  H   H67       1.0  0.51446  0.41201  0.17336  1.0000
  H   H68       1.0  0.41608  0.42809  0.21747  1.0000
  H   H69       1.0  0.52909  0.4621400000000001  0.23874  1.0000
  H   H70       1.0  0.33756  0.08898  0.84867  1.0000
  H   H71       1.0  0.3444  0.17313  0.76246  1.0000
  H   H72       1.0  0.03572  0.09932000000000003  0.84802  1.0000
  H   H73       1.0  0.24643  0.36232  0.60719  1.0000
  H   H74       1.0  0.31291  0.27016  0.6802  1.0000
  H   H75       1.0  0.96538  0.30614  0.65864  1.0000
  H   H76       1.0  0.89717  0.17685  0.706  1.0000
  H   H77       1.0  0.98494  0.09894  0.69769  1.0000
  H   H78       1.0  0.91963  0.10696  0.76047  1.0000
  H   H79       1.0  0.42305  0.2515100000000001  0.28411  1.0000
  H   H80       1.0  0.01652  0.29659  0.8054899999999999  1.0000
  C   C1        1.0  0.99613  0.63214  0.5747  1.0000
  C   C2        1.0  0.94945  0.66609  0.62532  1.0000
  C   C3        1.0  0.8635499999999998  0.63387  0.64393  1.0000
  C   C4        1.0  0.82191  0.66516  0.6921599999999999  1.0000
  C   C5        1.0  0.86825  0.72831  0.72211  1.0000
  C   C6        1.0  0.95478  0.76055  0.70344  1.0000
  C   C7        1.0  0.99509  0.73043  0.65519  1.0000
  C   C8        1.0  0.8267  0.91877  0.9223099999999999  1.0000
  C   C9        1.0  0.83281  0.8680600000000003  0.87012  1.0000
  C   C10       1.0  0.76096  0.8108800000000003  0.85674  1.0000
  C   C11       1.0  0.76573  0.76212  0.8086199999999999  1.0000
  C   C12       1.0  0.84346  0.77111  0.7738899999999999  1.0000
  C   C13       1.0  0.91504  0.8291300000000001  0.78713  1.0000
  C   C14       1.0  0.9104799999999998  0.87748  0.8349  1.0000
  C   C15       1.0  0.99179  0.82776  0.7432699999999999  1.0000
  C   C16       1.0  0.00808  0.91289  0.7164  1.0000
  C   C17       1.0  0.31536  0.54019  0.40624  1.0000
  C   C18       1.0  0.31354  0.5881  0.35382  1.0000
  C   C19       1.0  0.22702999999999995  0.60907  0.32958999999999994  1.0000
  C   C20       1.0  0.22334  0.65717  0.28223  1.0000
  C   C21       1.0  0.30781  0.6848500000000002  0.25933  1.0000
  C   C22       1.0  0.39484  0.66236  0.2828  1.0000
  C   C23       1.0  0.39831  0.61406  0.32954  1.0000
  C   C24       1.0  0.43442  0.89148  0.08395  1.0000
  C   C25       1.0  0.39784  0.83874  0.12961  1.0000
  C   C26       1.0  0.3002899999999999  0.8291600000000002  0.13611  1.0000
  C   C27       1.0  0.26334  0.7788  0.17703999999999995  1.0000
  C   C28       1.0  0.32571  0.7393200000000002  0.21269  1.0000
  C   C29       1.0  0.42365  0.7502  0.2072  1.0000
  C   C30       1.0  0.46022999999999986  0.79842  0.16545  1.0000
  C   C31       1.0  0.47588  0.7029  0.25191  1.0000
  C   C32       1.0  0.54796  0.6419500000000002  0.22811999999999996  1.0000
  C   C33       1.0  0.49616999999999994  0.86748  0.9251  1.0000
  C   C34       1.0  0.44898  0.8334400000000002  0.8745299999999999  1.0000
  C   C35       1.0  0.36323  0.8659400000000003  0.8559  1.0000
  C   C36       1.0  0.32101999999999997  0.83467  0.80777  1.0000
  C   C37       1.0  0.36675  0.7713  0.7777299999999999  1.0000
  C   C38       1.0  0.45314999999999994  0.73873  0.79646  1.0000
  C   C39       1.0  0.49391  0.7688500000000003  0.84468  1.0000
  C   C40       1.0  0.32496  0.58284  0.57639  1.0000
  C   C41       1.0  0.33154  0.63287  0.6289  1.0000
  C   C42       1.0  0.26016  0.6902300000000002  0.64227  1.0000
  C   C43       1.0  0.26472  0.73853  0.69058  1.0000
  C   C44       1.0  0.34194  0.7289  0.72572  1.0000
  C   C45       1.0  0.41326  0.6707000000000002  0.7124699999999999  1.0000
  C   C46       1.0  0.40872  0.6226700000000002  0.6645  1.0000
  C   C47       1.0  0.49009  0.6717900000000002  0.75646  1.0000
  C   C48       1.0  0.50654  0.5863600000000002  0.7828299999999998  1.0000
  C   C49       1.0  0.8158  0.9614000000000003  0.09352  1.0000
  C   C50       1.0  0.81465  0.91351  0.14595  1.0000
  C   C51       1.0  0.7281999999999998  0.8920900000000003  0.17008  1.0000
  C   C52       1.0  0.72462  0.8436900000000003  0.21726  1.0000
  C   C53       1.0  0.80913  0.81632  0.24009999999999998  1.0000
  C   C54       1.0  0.89617  0.83911  0.21677999999999997  1.0000
  C   C55       1.0  0.89958  0.88758  0.17006999999999997  1.0000
  C   C56       1.0  0.9343799999999998  0.60844  0.41474999999999995  1.0000
  C   C57       1.0  0.8984799999999998  0.66216  0.3695  1.0000
  C   C58       1.0  0.80099  0.67169  0.36283  1.0000
  C   C59       1.0  0.7640999999999999  0.72209  0.32196  1.0000
  C   C60       1.0  0.8267999999999998  0.7616900000000002  0.28661  1.0000
  C   C61       1.0  0.92467  0.7508800000000002  0.2923  1.0000
  C   C62       1.0  0.9612  0.70256  0.33397  1.0000
  C   C63       1.0  0.97694  0.79832  0.24776  1.0000
  C   C64       1.0  0.048419999999999984  0.85938  0.2723  1.0000
  C   C65       1.0  0.0035899999999999994  0.36789  0.42526  1.0000
  C   C66       1.0  0.05027  0.33375  0.37465  1.0000
  C   C67       1.0  0.13618  0.36595  0.35605  1.0000
  C   C68       1.0  0.17797999999999994  0.33471  0.3078699999999999  1.0000
  C   C69       1.0  0.13182  0.2714300000000001  0.27787  1.0000
  C   C70       1.0  0.04525  0.23920000000000005  0.29658  1.0000
  C   C71       1.0  0.00471  0.2694300000000001  0.34475  1.0000
  C   C72       1.0  0.17328  0.08072000000000003  0.0776  1.0000
  C   C73       1.0  0.16693  0.13137  0.12983  1.0000
  C   C74       1.0  0.23893  0.18837  0.14321999999999996  1.0000
  C   C75       1.0  0.23447999999999994  0.23724000000000006  0.19132  1.0000
  C   C76       1.0  0.15667  0.22850000000000006  0.22612  1.0000
  C   C77       1.0  0.08491  0.17059  0.21286  1.0000
  C   C78       1.0  0.0892  0.12219000000000005  0.16506  1.0000
  C   C79       1.0  0.00817  0.17212000000000005  0.25674  1.0000
  C   C80       1.0  0.9918199999999998  0.08693  0.28344  1.0000
  C   C81       1.0  0.68389  0.45785  0.59444  1.0000
  C   C82       1.0  0.68447  0.41273999999999994  0.64671  1.0000
  C   C83       1.0  0.77269  0.3902200000000001  0.67175  1.0000
  C   C84       1.0  0.77635  0.34305000000000013  0.71821  1.0000
  C   C85       1.0  0.69  0.31509  0.74206  1.0000
  C   C86       1.0  0.60085  0.34066000000000013  0.7180399999999999  1.0000
  C   C87       1.0  0.59826  0.3883000000000001  0.67177  1.0000
  C   C88       1.0  0.56277  0.1101  0.91474  1.0000
  C   C89       1.0  0.59892  0.162  0.86955  1.0000
  C   C90       1.0  0.69872  0.16915000000000005  0.86139  1.0000
  C   C91       1.0  0.73586  0.21808  0.82115  1.0000
  C   C92       1.0  0.67278  0.2615400000000001  0.7856899999999998  1.0000
  C   C93       1.0  0.57177  0.25172  0.7927099999999999  1.0000
  C   C94       1.0  0.53591  0.20425000000000001  0.83407  1.0000
  C   C95       1.0  0.52  0.29955  0.74841  1.0000
  C   C96       1.0  0.44578  0.35865  0.77162  1.0000
  C   C97       1.0  0.50336  0.13218  0.07464  1.0000
  C   C98       1.0  0.54975  0.16633000000000006  0.12545  1.0000
  C   C99       1.0  0.63589  0.13472  0.14415  1.0000
  C   C100      1.0  0.6772999999999999  0.16614  0.19244  1.0000
  C   C101      1.0  0.63054  0.22889000000000007  0.22245  1.0000
  C   C102      1.0  0.54369  0.2605  0.20374999999999996  1.0000
  C   C103      1.0  0.5037  0.23025000000000007  0.1554  1.0000
  C   C104      1.0  0.67267  0.41916  0.42256  1.0000
  C   C105      1.0  0.6659  0.36871  0.37033999999999995  1.0000
  C   C106      1.0  0.73829  0.3123500000000001  0.35675  1.0000
  C   C107      1.0  0.73344  0.26349  0.3087  1.0000
  C   C108      1.0  0.65525  0.27188  0.27415  1.0000
  C   C109      1.0  0.5832099999999999  0.3293500000000001  0.28747  1.0000
  C   C110      1.0  0.58777  0.37769000000000014  0.33528  1.0000
  C   C111      1.0  0.50646  0.32769  0.24345999999999995  1.0000
  C   C112      1.0  0.49103999999999987  0.4128  0.21642  1.0000
  C   C113      1.0  0.18488999999999997  0.04178  0.9053099999999997  1.0000
  C   C114      1.0  0.18677  0.08918000000000005  0.85291  1.0000
  C   C115      1.0  0.27341  0.10966000000000002  0.82871  1.0000
  C   C116      1.0  0.27733  0.15721  0.78114  1.0000
  C   C117      1.0  0.19294  0.18502  0.75826  1.0000
  C   C118      1.0  0.10583  0.16298000000000007  0.78181  1.0000
  C   C119      1.0  0.10208  0.11534000000000001  0.82875  1.0000
  C   C120      1.0  0.06615  0.39173  0.5835  1.0000
  C   C121      1.0  0.10301  0.33897  0.6289  1.0000
  C   C122      1.0  0.20054  0.32946  0.63526  1.0000
  C   C123      1.0  0.23749  0.27887  0.67605  1.0000
  C   C124      1.0  0.175  0.23963000000000007  0.71174  1.0000
  C   C125      1.0  0.07702  0.25073  0.70645  1.0000
  C   C126      1.0  0.04052  0.29878  0.6646699999999999  1.0000
  C   C127      1.0  0.02471  0.20341000000000004  0.75111  1.0000
  C   C128      1.0  0.9523899999999997  0.14238  0.72735  1.0000
  O   O1        1.0  0.07103999999999999  0.66613  0.55798  1.0000
  O   O2        1.0  0.9622299999999999  0.56674  0.54999  1.0000
  O   O3        1.0  0.7617499999999998  0.90416  0.9561199999999999  1.0000
  O   O4        1.0  0.89047  0.97478  0.93033  1.0000
  O   O5        1.0  0.08196999999999999  0.8049700000000002  0.76675  1.0000
  O   O6        1.0  0.23792  0.517  0.42686999999999997  1.0000
  O   O7        1.0  0.39556  0.52476  0.42758  1.0000
  O   O8        1.0  0.37646  0.94104  0.061439999999999995  1.0000
  O   O9        1.0  0.52041  0.8838100000000002  0.07024  1.0000
  O   O10       1.0  0.52887  0.75871  0.28855  1.0000
  O   O11       1.0  0.57119  0.8336900000000003  0.9418199999999999  1.0000
  O   O12       1.0  0.46262  0.93298  0.9497799999999997  1.0000
  O   O13       1.0  0.26195  0.6  0.54168  1.0000
  O   O14       1.0  0.38629  0.5248300000000002  0.56909  1.0000
  O   O15       1.0  0.58045  0.69533  0.73329  1.0000
  O   O16       1.0  0.73788  0.98285  0.07263  1.0000
  O   O17       1.0  0.8955799999999999  0.97894  0.07242  1.0000
  O   O18       1.0  0.87632  0.55775  0.43603  1.0000
  O   O19       1.0  0.01996  0.61644  0.42932  1.0000
  O   O20       1.0  0.02916  0.7421600000000003  0.21115999999999993  1.0000
  O   O21       1.0  0.92864  0.33387  0.44198  1.0000
  O   O22       1.0  0.03753  0.43332  0.44978999999999997  1.0000
  O   O23       1.0  0.23813  0.09579000000000003  0.04376  1.0000
  O   O24       1.0  0.10966  0.024710000000000006  0.06955  1.0000
  O   O25       1.0  0.9181899999999998  0.19556  0.23330999999999996  1.0000
  O   O26       1.0  0.7621699999999999  0.47847  0.57285  1.0000
  O   O27       1.0  0.60385  0.4749200000000001  0.57241  1.0000
  O   O28       1.0  0.62162  0.062490000000000004  0.93876  1.0000
  O   O29       1.0  0.4755999999999999  0.11555000000000001  0.9272899999999998  1.0000
  O   O30       1.0  0.47039999999999993  0.24204  0.7108599999999999  1.0000
  O   O31       1.0  0.4287199999999999  0.16621  0.05761  1.0000
  O   O32       1.0  0.53717  0.0667  0.05016  1.0000
  O   O33       1.0  0.7379499999999999  0.40392  0.45614999999999994  1.0000
  O   O34       1.0  0.60939  0.4752300000000001  0.43075  1.0000
  O   O35       1.0  0.41585  0.30516  0.26665  1.0000
  O   O36       1.0  0.26223  0.01684  0.92519  1.0000
  O   O37       1.0  0.10492999999999997  0.028450000000000007  0.9276  1.0000
  O   O38       1.0  0.12393  0.44176  0.56132  1.0000
  O   O39       1.0  0.98017  0.38371  0.56982  1.0000
  O   O40       1.0  0.9717699999999999  0.25868000000000013  0.7880999999999999  1.0000
