data_image0
_chemical_formula_structural       Co8H112C96O40
_chemical_formula_sum              "Co8 H112 C96 O40"
_cell_length_a       7.86514
_cell_length_b       21.5801
_cell_length_c       21.57993
_cell_angle_alpha    90.00090000000002
_cell_angle_beta     89.99865000000001
_cell_angle_gamma    90.0

_space_group_name_H-M_alt    "P 1"
_space_group_IT_number       1

loop_
  _space_group_symop_operation_xyz
  'x, y, z'

loop_
  _atom_site_type_symbol
  _atom_site_label
  _atom_site_symmetry_multiplicity
  _atom_site_fract_x
  _atom_site_fract_y
  _atom_site_fract_z
  _atom_site_occupancy
  Co  Co1       1.0  0.23982  0.7448299999999999  0.24332  1.0000
  Co  Co2       1.0  0.23982  0.25518  0.75669  1.0000
  Co  Co3       1.0  0.76022  0.24334  0.25518  1.0000
  Co  Co4       1.0  0.76014  0.7566600000000001  0.74481  1.0000
  Co  Co5       1.0  0.2603200000000001  0.7552700000000001  0.74333  1.0000
  Co  Co6       1.0  0.26047  0.24464000000000002  0.2567  1.0000
  Co  Co7       1.0  0.73983  0.25668  0.75517  1.0000
  Co  Co8       1.0  0.73979  0.74333  0.24483000000000002  1.0000
  H   H1        1.0  0.97265  0.81788  0.22427000000000002  1.0000
  H   H2        1.0  0.00461  0.76166  0.16898  1.0000
  H   H3        1.0  0.39473  0.73957  0.49271000000000004  1.0000
  H   H4        1.0  0.99502  0.82966  0.59356  1.0000
  H   H5        1.0  0.98247  0.82411  0.3938  1.0000
  H   H6        1.0  0.65586  0.78346  0.49478999999999995  1.0000
  H   H7        1.0  0.53683  0.84848  0.46968  1.0000
  H   H8        1.0  0.68497  0.8129500000000001  0.41859  1.0000
  H   H9        1.0  0.70379  0.95328  0.44857  1.0000
  H   H10       1.0  0.9226100000000003  0.9571800000000001  0.46794  1.0000
  H   H11       1.0  0.8547  0.9138400000000001  0.40274000000000004  1.0000
  H   H12       1.0  0.71533  0.8528100000000002  0.58813  1.0000
  H   H13       1.0  0.84285  0.92055  0.57982  1.0000
  H   H14       1.0  0.63097  0.9198000000000001  0.55257  1.0000
  H   H15       1.0  0.97264  0.18212  0.7757300000000001  1.0000
  H   H16       1.0  0.00457  0.23835  0.83101  1.0000
  H   H17       1.0  0.39481  0.26041  0.50728  1.0000
  H   H18       1.0  0.995  0.17036  0.40645  1.0000
  H   H19       1.0  0.9826  0.17586  0.60621  1.0000
  H   H20       1.0  0.65589  0.21653  0.50519  1.0000
  H   H21       1.0  0.53686  0.15151000000000003  0.53031  1.0000
  H   H22       1.0  0.68499  0.18705  0.5814  1.0000
  H   H23       1.0  0.70374  0.04672  0.55141  1.0000
  H   H24       1.0  0.92257  0.0428  0.53206  1.0000
  H   H25       1.0  0.85464  0.08614  0.59725  1.0000
  H   H26       1.0  0.71532  0.14719  0.41186999999999996  1.0000
  H   H27       1.0  0.8428200000000002  0.07945000000000002  0.4201599999999999  1.0000
  H   H28       1.0  0.63097  0.08021  0.44743  1.0000
  H   H29       1.0  0.02761  0.22434000000000004  0.18218  1.0000
  H   H30       1.0  0.9954200000000002  0.16905  0.23842  1.0000
  H   H31       1.0  0.60529  0.49271  0.26043  1.0000
  H   H32       1.0  0.00498  0.59357  0.17033  1.0000
  H   H33       1.0  0.0176  0.39382  0.17591  1.0000
  H   H34       1.0  0.34416000000000013  0.49478000000000005  0.21655  1.0000
  H   H35       1.0  0.46319  0.4696900000000001  0.15152  1.0000
  H   H36       1.0  0.3150400000000001  0.41858  0.18704  1.0000
  H   H37       1.0  0.29619  0.44856  0.04672  1.0000
  H   H38       1.0  0.07737  0.46795  0.04283  1.0000
  H   H39       1.0  0.14525000000000005  0.40275  0.08618  1.0000
  H   H40       1.0  0.28469  0.58815  0.14719  1.0000
  H   H41       1.0  0.15716000000000005  0.57983  0.07945  1.0000
  H   H42       1.0  0.36905  0.55258  0.08021  1.0000
  H   H43       1.0  0.027280000000000006  0.77571  0.8178600000000001  1.0000
  H   H44       1.0  0.9953100000000003  0.8309900000000001  0.76164  1.0000
  H   H45       1.0  0.60527  0.50731  0.73957  1.0000
  H   H46       1.0  0.00497  0.40644  0.82965  1.0000
  H   H47       1.0  0.01754  0.6062  0.82411  1.0000
  H   H48       1.0  0.34413  0.50521  0.78345  1.0000
  H   H49       1.0  0.46316  0.53031  0.84847  1.0000
  H   H50       1.0  0.31502  0.58142  0.8129499999999998  1.0000
  H   H51       1.0  0.2962  0.55143  0.95327  1.0000
  H   H52       1.0  0.07738  0.53205  0.95718  1.0000
  H   H53       1.0  0.14528  0.59726  0.91384  1.0000
  H   H54       1.0  0.28466  0.41186000000000006  0.8528000000000001  1.0000
  H   H55       1.0  0.15714000000000003  0.42018  0.92054  1.0000
  H   H56       1.0  0.36902  0.44743  0.91978  1.0000
  H   H57       1.0  0.52726  0.68208  0.72426  1.0000
  H   H58       1.0  0.4954800000000001  0.73833  0.66898  1.0000
  H   H59       1.0  0.10505000000000003  0.76035  0.99268  1.0000
  H   H60       1.0  0.50507  0.67042  0.09353000000000002  1.0000
  H   H61       1.0  0.51725  0.67576  0.89377  1.0000
  H   H62       1.0  0.84406  0.71653  0.99483  1.0000
  H   H63       1.0  0.9631  0.65152  0.9697  1.0000
  H   H64       1.0  0.81496  0.6870600000000001  0.91861  1.0000
  H   H65       1.0  0.7963  0.5467  0.94859  1.0000
  H   H66       1.0  0.57745  0.54279  0.9679500000000001  1.0000
  H   H67       1.0  0.64541  0.58613  0.90276  1.0000
  H   H68       1.0  0.7846900000000002  0.64718  0.08815  1.0000
  H   H69       1.0  0.65721  0.57944  0.07987  1.0000
  H   H70       1.0  0.8690200000000002  0.58022  0.05258  1.0000
  H   H71       1.0  0.5273  0.31793  0.27575  1.0000
  H   H72       1.0  0.49558  0.26168  0.33102  1.0000
  H   H73       1.0  0.10506  0.23972  0.00737  1.0000
  H   H74       1.0  0.50516  0.32952  0.90646  1.0000
  H   H75       1.0  0.5173  0.32442  0.10621  1.0000
  H   H76       1.0  0.84413  0.28348  0.00516  1.0000
  H   H77       1.0  0.96317  0.34848  0.030290000000000004  1.0000
  H   H78       1.0  0.81501  0.31296  0.08137  1.0000
  H   H79       1.0  0.79637  0.45333  0.05139  1.0000
  H   H80       1.0  0.57751  0.45722  0.03204  1.0000
  H   H81       1.0  0.6455  0.41388  0.09722000000000001  1.0000
  H   H82       1.0  0.78481  0.35284  0.91182  1.0000
  H   H83       1.0  0.65731  0.42058  0.92011  1.0000
  H   H84       1.0  0.86913  0.41981000000000007  0.94739  1.0000
  H   H85       1.0  0.47265  0.27574  0.68211  1.0000
  H   H86       1.0  0.50461  0.33102  0.73834  1.0000
  H   H87       1.0  0.8948  0.00731  0.76043  1.0000
  H   H88       1.0  0.4951000000000001  0.90645  0.67035  1.0000
  H   H89       1.0  0.4825300000000001  0.1062  0.67589  1.0000
  H   H90       1.0  0.1559  0.0052  0.71655  1.0000
  H   H91       1.0  0.03688  0.03031  0.65152  1.0000
  H   H92       1.0  0.18502  0.08141  0.68705  1.0000
  H   H93       1.0  0.2038  0.05142  0.54674  1.0000
  H   H94       1.0  0.42263  0.03205  0.54282  1.0000
  H   H95       1.0  0.35471  0.09725000000000002  0.58616  1.0000
  H   H96       1.0  0.21535  0.9118600000000002  0.64719  1.0000
  H   H97       1.0  0.34286  0.92017  0.57945  1.0000
  H   H98       1.0  0.13101  0.94744  0.58021  1.0000
  H   H99       1.0  0.47261  0.72424  0.3179  1.0000
  H   H100      1.0  0.50455  0.66898  0.26166  1.0000
  H   H101      1.0  0.8948900000000002  0.9927000000000001  0.23959000000000003  1.0000
  H   H102      1.0  0.49514000000000014  0.09356  0.32963  1.0000
  H   H103      1.0  0.48263  0.89379  0.32412  1.0000
  H   H104      1.0  0.15595  0.99481  0.28345  1.0000
  H   H105      1.0  0.03694  0.9697  0.34848  1.0000
  H   H106      1.0  0.18508  0.9186000000000001  0.31294  1.0000
  H   H107      1.0  0.2038  0.9486000000000001  0.45325  1.0000
  H   H108      1.0  0.42263  0.96795  0.45719  1.0000
  H   H109      1.0  0.35471  0.90276  0.41384000000000004  1.0000
  H   H110      1.0  0.21536  0.08815000000000002  0.35281  1.0000
  H   H111      1.0  0.34286  0.07985000000000002  0.42055000000000003  1.0000
  H   H112      1.0  0.13103  0.05256  0.4197699999999999  1.0000
  C   C1        1.0  0.1947  0.77979  0.43724  1.0000
  C   C2        1.0  0.27682  0.7656100000000001  0.4930300000000001  1.0000
  C   C3        1.0  0.20261  0.78366  0.54904  1.0000
  C   C4        1.0  0.04871  0.8165300000000001  0.54911  1.0000
  C   C5        1.0  0.96792  0.83313  0.49375  1.0000
  C   C6        1.0  0.04224  0.81333  0.43793  1.0000
  C   C7        1.0  0.27383  0.75954  0.37792  1.0000
  C   C8        1.0  0.28977  0.7683300000000001  0.60824  1.0000
  C   C9        1.0  0.80159  0.8694300000000001  0.49261  1.0000
  C   C10       1.0  0.6620400000000002  0.8259500000000001  0.46702000000000005  1.0000
  C   C11       1.0  0.82209  0.92657  0.45044  1.0000
  C   C12       1.0  0.74635  0.8915800000000002  0.5572  1.0000
  C   C13       1.0  0.19479  0.22019  0.56276  1.0000
  C   C14       1.0  0.27688  0.23437000000000005  0.50698  1.0000
  C   C15       1.0  0.20262000000000005  0.21634  0.45098  1.0000
  C   C16       1.0  0.048700000000000014  0.18347  0.45089999999999997  1.0000
  C   C17       1.0  0.96794  0.16687  0.50626  1.0000
  C   C18       1.0  0.0423  0.18666  0.56208  1.0000
  C   C19       1.0  0.27388  0.24044000000000001  0.62209  1.0000
  C   C20       1.0  0.28978000000000004  0.23167  0.39179  1.0000
  C   C21       1.0  0.80161  0.13057  0.5074  1.0000
  C   C22       1.0  0.66206  0.17405  0.53298  1.0000
  C   C23       1.0  0.82207  0.07342  0.54955  1.0000
  C   C24       1.0  0.74636  0.10842000000000002  0.4428  1.0000
  C   C25       1.0  0.80539  0.43726000000000004  0.22023  1.0000
  C   C26       1.0  0.7232  0.49304  0.23440999999999998  1.0000
  C   C27       1.0  0.79742  0.54905  0.21634  1.0000
  C   C28       1.0  0.95127  0.54912  0.18345  1.0000
  C   C29       1.0  0.03212  0.49376000000000003  0.16688  1.0000
  C   C30       1.0  0.95783  0.4379500000000001  0.18671  1.0000
  C   C31       1.0  0.72618  0.37795000000000006  0.24048  1.0000
  C   C32       1.0  0.71021  0.60824  0.23169  1.0000
  C   C33       1.0  0.19844  0.49262  0.13058  1.0000
  C   C34       1.0  0.33798  0.46702  0.17405  1.0000
  C   C35       1.0  0.17789  0.45044  0.07343  1.0000
  C   C36       1.0  0.25367  0.55721  0.10842  1.0000
  C   C37       1.0  0.80533  0.56275  0.7797800000000001  1.0000
  C   C38       1.0  0.7231600000000002  0.50697  0.7656099999999999  1.0000
  C   C39       1.0  0.79742  0.4509600000000001  0.7836499999999998  1.0000
  C   C40       1.0  0.9513  0.45089000000000007  0.8165199999999999  1.0000
  C   C41       1.0  0.03209  0.50625  0.83313  1.0000
  C   C42       1.0  0.95776  0.56207  0.81332  1.0000
  C   C43       1.0  0.72614  0.62206  0.75953  1.0000
  C   C44       1.0  0.71022  0.39177  0.7683000000000001  1.0000
  C   C45       1.0  0.19842  0.5074  0.86942  1.0000
  C   C46       1.0  0.33796  0.53299  0.82594  1.0000
  C   C47       1.0  0.17789  0.54956  0.92657  1.0000
  C   C48       1.0  0.25364  0.4428  0.8915700000000001  1.0000
  C   C49       1.0  0.30516  0.72015  0.93722  1.0000
  C   C50       1.0  0.22308  0.7343700000000001  0.99301  1.0000
  C   C51       1.0  0.2973  0.7163  0.04902  1.0000
  C   C52       1.0  0.4512  0.68344  0.04908  1.0000
  C   C53       1.0  0.53204  0.66686  0.9937200000000002  1.0000
  C   C54       1.0  0.45768  0.68665  0.93791  1.0000
  C   C55       1.0  0.22608000000000006  0.74042  0.87789  1.0000
  C   C56       1.0  0.21017  0.73166  0.10823000000000002  1.0000
  C   C57       1.0  0.69838  0.63056  0.9926100000000001  1.0000
  C   C58       1.0  0.8379000000000002  0.67405  0.9670400000000001  1.0000
  C   C59       1.0  0.67796  0.57339  0.95045  1.0000
  C   C60       1.0  0.75362  0.60842  0.05720999999999999  1.0000
  C   C61       1.0  0.30521  0.27986  0.06283  1.0000
  C   C62       1.0  0.22308  0.2657  0.007040000000000001  1.0000
  C   C63       1.0  0.29724000000000006  0.28375  0.95101  1.0000
  C   C64       1.0  0.45124  0.31657  0.9509200000000001  1.0000
  C   C65       1.0  0.53199  0.3332  0.00628  1.0000
  C   C66       1.0  0.45762  0.31345  0.06210999999999999  1.0000
  C   C67       1.0  0.2263  0.25953  0.12217  1.0000
  C   C68       1.0  0.21019  0.26836000000000004  0.8918  1.0000
  C   C69       1.0  0.6984300000000002  0.36946  0.00737  1.0000
  C   C70       1.0  0.83795  0.32596  0.03295  1.0000
  C   C71       1.0  0.67806  0.42663  0.04953  1.0000
  C   C72       1.0  0.75373  0.3916  0.94276  1.0000
  C   C73       1.0  0.6947600000000003  0.06277  0.7202  1.0000
  C   C74       1.0  0.77692  0.00698  0.73438  1.0000
  C   C75       1.0  0.70261  0.9509700000000001  0.71635  1.0000
  C   C76       1.0  0.54875  0.9509000000000001  0.68348  1.0000
  C   C77       1.0  0.46796  0.006260000000000001  0.66687  1.0000
  C   C78       1.0  0.54232  0.06208000000000001  0.68668  1.0000
  C   C79       1.0  0.7739000000000003  0.12210000000000003  0.74045  1.0000
  C   C80       1.0  0.7898000000000002  0.8917700000000001  0.7317  1.0000
  C   C81       1.0  0.30163  0.007400000000000001  0.63058  1.0000
  C   C82       1.0  0.16208  0.03298  0.67406  1.0000
  C   C83       1.0  0.32212000000000013  0.04956  0.57343  1.0000
  C   C84       1.0  0.2464  0.9428  0.60843  1.0000
  C   C85       1.0  0.69485  0.93724  0.27982  1.0000
  C   C86       1.0  0.77701  0.9930300000000001  0.26563  1.0000
  C   C87       1.0  0.70263  0.04904  0.28364  1.0000
  C   C88       1.0  0.54879  0.04909  0.31652  1.0000
  C   C89       1.0  0.46801  0.99374  0.33313  1.0000
  C   C90       1.0  0.54239  0.93793  0.31333  1.0000
  C   C91       1.0  0.77397  0.87791  0.25956  1.0000
  C   C92       1.0  0.78983  0.10824  0.26829  1.0000
  C   C93       1.0  0.30167000000000005  0.99261  0.36942  1.0000
  C   C94       1.0  0.16214000000000006  0.96703  0.32593  1.0000
  C   C95       1.0  0.32214  0.9504500000000002  0.42657000000000006  1.0000
  C   C96       1.0  0.24642  0.05721  0.39157  1.0000
  O   O1        1.0  0.18345  0.76604  0.32776  1.0000
  O   O2        1.0  0.42315000000000014  0.73759  0.37862000000000007  1.0000
  O   O3        1.0  0.20162  0.7751500000000001  0.65902  1.0000
  O   O4        1.0  0.44246  0.75  0.60658  1.0000
  O   O5        1.0  0.98995  0.76874  0.21768  1.0000
  O   O6        1.0  0.18349  0.23392  0.67224  1.0000
  O   O7        1.0  0.4231900000000001  0.26241  0.62139  1.0000
  O   O8        1.0  0.20161  0.22486000000000003  0.34101  1.0000
  O   O9        1.0  0.44249  0.24999  0.39344000000000007  1.0000
  O   O10       1.0  0.98996  0.23126  0.78231  1.0000
  O   O11       1.0  0.81656  0.32777000000000006  0.23397  1.0000
  O   O12       1.0  0.5769  0.37866000000000005  0.26243  1.0000
  O   O13       1.0  0.79845  0.65901  0.22488  1.0000
  O   O14       1.0  0.55755  0.60659  0.25  1.0000
  O   O15       1.0  0.01024  0.21773  0.23133  1.0000
  O   O16       1.0  0.81653  0.67223  0.7660399999999999  1.0000
  O   O17       1.0  0.57685  0.62136  0.73757  1.0000
  O   O18       1.0  0.79846  0.34099  0.7751  1.0000
  O   O19       1.0  0.55755  0.39342  0.75001  1.0000
  O   O20       1.0  0.01006  0.78229  0.7687300000000001  1.0000
  O   O21       1.0  0.31655  0.73391  0.82774  1.0000
  O   O22       1.0  0.07684  0.7624300000000002  0.8785800000000001  1.0000
  O   O23       1.0  0.29842  0.7249  0.15901  1.0000
  O   O24       1.0  0.05751  0.7499800000000001  0.10657  1.0000
  O   O25       1.0  0.51005  0.73122  0.71769  1.0000
  O   O26       1.0  0.31691  0.26594  0.17226  1.0000
  O   O27       1.0  0.07688  0.23763  0.12151000000000002  1.0000
  O   O28       1.0  0.29842  0.27512  0.84102  1.0000
  O   O29       1.0  0.05752  0.25001  0.89344  1.0000
  O   O30       1.0  0.5101  0.26879  0.28233  1.0000
  O   O31       1.0  0.68341  0.17224  0.73394  1.0000
  O   O32       1.0  0.92318  0.12143000000000001  0.7624  1.0000
  O   O33       1.0  0.70154  0.84099  0.72492  1.0000
  O   O34       1.0  0.94246  0.89342  0.74998  1.0000
  O   O35       1.0  0.4899100000000001  0.28231  0.73124  1.0000
  O   O36       1.0  0.68345  0.82777  0.26608  1.0000
  O   O37       1.0  0.92322  0.87857  0.2376  1.0000
  O   O38       1.0  0.70155  0.15902  0.27508  1.0000
  O   O39       1.0  0.9424800000000001  0.10658  0.25002  1.0000
  O   O40       1.0  0.48988  0.71769  0.26877  1.0000
