data_image0
_chemical_formula_structural       Ni6H136C152N28O36
_chemical_formula_sum              "Ni6 H136 C152 N28 O36"
_cell_length_a       11.36182
_cell_length_b       18.65818
_cell_length_c       23.796790000000005
_cell_angle_alpha    90.02646
_cell_angle_beta     90.0
_cell_angle_gamma    90.0

_space_group_name_H-M_alt    "P 1"
_space_group_IT_number       1

loop_
  _space_group_symop_operation_xyz
  'x, y, z'

loop_
  _atom_site_type_symbol
  _atom_site_label
  _atom_site_symmetry_multiplicity
  _atom_site_fract_x
  _atom_site_fract_y
  _atom_site_fract_z
  _atom_site_occupancy
  Ni  Ni1       1.0  0.53222  0.29978  0.52116  1.0000
  Ni  Ni2       1.0  0.53222  0.70021  0.47884  1.0000
  Ni  Ni3       1.0  0.46784  0.20099  0.02088  1.0000
  Ni  Ni4       1.0  0.46784  0.79901  0.97912  1.0000
  Ni  Ni5       1.0  0.5332399999999999  0.4999999999999999  0.5  1.0000
  Ni  Ni6       1.0  0.46666999999999986  0.0  0.0  1.0000
  H   H1        1.0  0.57924  0.48655999999999994  0.64318  1.0000
  H   H2        1.0  0.35407  0.4102099999999999  0.68319  1.0000
  H   H3        1.0  0.40238  0.4964899999999999  0.7053100000000001  1.0000
  H   H4        1.0  0.36114  0.48336  0.63436  1.0000
  H   H5        1.0  0.9237499999999998  0.39903999999999995  0.75138  1.0000
  H   H6        1.0  0.87707  0.21363  0.8579  1.0000
  H   H7        1.0  0.59938  0.28142999999999996  0.7477200000000002  1.0000
  H   H8        1.0  0.23179  0.47326  0.7821500000000001  1.0000
  H   H9        1.0  0.19916  0.47074  0.85517  1.0000
  H   H10       1.0  0.34753  0.45909  0.8309400000000002  1.0000
  H   H11       1.0  0.24858  0.34086  0.85922  1.0000
  H   H12       1.0  0.29793  0.20252  0.84523  1.0000
  H   H13       1.0  0.32398  0.15902  0.78029  1.0000
  H   H14       1.0  0.27198  0.10836  0.83873  1.0000
  H   H15       1.0  0.48528999999999994  0.08524  0.82582  1.0000
  H   H16       1.0  0.11395999999999998  0.24347999999999995  0.44443  1.0000
  H   H17       1.0  0.33457  0.25084999999999996  0.44582000000000005  1.0000
  H   H18       1.0  0.33355  0.33558  0.60692  1.0000
  H   H19       1.0  0.11668999999999999  0.34175  0.60911  1.0000
  H   H20       1.0  0.94275  0.27531  0.61424  1.0000
  H   H21       1.0  0.7242  0.28257  0.60858  1.0000
  H   H22       1.0  0.73445  0.32469  0.43803000000000003  1.0000
  H   H23       1.0  0.9522099999999998  0.31869  0.4358000000000001  1.0000
  H   H24       1.0  0.49474  0.17485  0.59649  1.0000
  H   H25       1.0  0.4969799999999999  0.04126  0.59123  1.0000
  H   H26       1.0  0.59522  0.06228  0.4161500000000001  1.0000
  H   H27       1.0  0.58298  0.19421  0.42826  1.0000
  H   H28       1.0  0.73051  0.4744999999999999  0.5853  1.0000
  H   H29       1.0  0.9457199999999999  0.47317  0.58861  1.0000
  H   H30       1.0  0.11866  0.56803  0.57377  1.0000
  H   H31       1.0  0.33408999999999994  0.56734  0.56984  1.0000
  H   H32       1.0  0.53811  0.37808  0.7322900000000001  1.0000
  H   H33       1.0  0.10803  0.34573  0.75758  1.0000
  H   H34       1.0  0.49991  0.24088  0.81053  1.0000
  H   H35       1.0  0.57924  0.51344  0.35682  1.0000
  H   H36       1.0  0.35407  0.58979  0.31681  1.0000
  H   H37       1.0  0.40238  0.50351  0.29469  1.0000
  H   H38       1.0  0.36114  0.51664  0.36564  1.0000
  H   H39       1.0  0.9237499999999998  0.60096  0.24862  1.0000
  H   H40       1.0  0.87707  0.7863699999999998  0.1421  1.0000
  H   H41       1.0  0.59938  0.71857  0.25228  1.0000
  H   H42       1.0  0.23179  0.5267299999999998  0.21785  1.0000
  H   H43       1.0  0.19916  0.52926  0.14483  1.0000
  H   H44       1.0  0.34753  0.5409  0.16906  1.0000
  H   H45       1.0  0.24858  0.65914  0.14078  1.0000
  H   H46       1.0  0.29793  0.79748  0.15477  1.0000
  H   H47       1.0  0.32398  0.84097  0.21971  1.0000
  H   H48       1.0  0.27198  0.89164  0.16127  1.0000
  H   H49       1.0  0.48528999999999994  0.91476  0.17418000000000003  1.0000
  H   H50       1.0  0.11395999999999998  0.7565199999999999  0.55557  1.0000
  H   H51       1.0  0.33457  0.7491499999999998  0.55418  1.0000
  H   H52       1.0  0.33355  0.66442  0.39308  1.0000
  H   H53       1.0  0.11668999999999999  0.65825  0.39089000000000007  1.0000
  H   H54       1.0  0.94275  0.72468  0.38576000000000005  1.0000
  H   H55       1.0  0.7242  0.7174299999999998  0.39142  1.0000
  H   H56       1.0  0.73445  0.67531  0.56197  1.0000
  H   H57       1.0  0.9522099999999998  0.6813099999999997  0.5642  1.0000
  H   H58       1.0  0.49474  0.82515  0.40351000000000004  1.0000
  H   H59       1.0  0.4969799999999999  0.9587299999999999  0.4087700000000001  1.0000
  H   H60       1.0  0.59522  0.9377199999999999  0.58385  1.0000
  H   H61       1.0  0.58298  0.80579  0.57174  1.0000
  H   H62       1.0  0.73051  0.5254999999999999  0.4147  1.0000
  H   H63       1.0  0.9457199999999999  0.52683  0.41139  1.0000
  H   H64       1.0  0.11866  0.43196999999999997  0.42623  1.0000
  H   H65       1.0  0.33408999999999994  0.43265999999999993  0.43016  1.0000
  H   H66       1.0  0.53811  0.62191  0.26771  1.0000
  H   H67       1.0  0.10803  0.65427  0.24243  1.0000
  H   H68       1.0  0.49991  0.7591199999999998  0.18947  1.0000
  H   H69       1.0  0.42258  0.01397  0.14233  1.0000
  H   H70       1.0  0.64655  0.09096999999999998  0.18328  1.0000
  H   H71       1.0  0.59884  0.00432  0.20483  1.0000
  H   H72       1.0  0.64082  0.018119999999999994  0.13412  1.0000
  H   H73       1.0  0.07692  0.10018999999999999  0.25051  1.0000
  H   H74       1.0  0.12211999999999999  0.28574  0.35706  1.0000
  H   H75       1.0  0.40102  0.21802999999999997  0.2475  1.0000
  H   H76       1.0  0.76554  0.02725  0.28172  1.0000
  H   H77       1.0  0.79836  0.03043  0.35474  1.0000
  H   H78       1.0  0.6503199999999999  0.04295  0.3305  1.0000
  H   H79       1.0  0.7524799999999998  0.16062  0.35821000000000003  1.0000
  H   H80       1.0  0.70326  0.29762999999999995  0.34504000000000007  1.0000
  H   H81       1.0  0.67664  0.34133999999999987  0.28027  1.0000
  H   H82       1.0  0.72706  0.39203  0.33906  1.0000
  H   H83       1.0  0.51385  0.41373  0.32586  1.0000
  H   H84       1.0  0.88688  0.2574  0.9447800000000002  1.0000
  H   H85       1.0  0.6660999999999999  0.24998999999999996  0.94587  1.0000
  H   H86       1.0  0.6664  0.16459999999999994  0.10669  1.0000
  H   H87       1.0  0.88333  0.15802  0.10898  1.0000
  H   H88       1.0  0.05747  0.22477  0.11441  1.0000
  H   H89       1.0  0.27608  0.21795999999999996  0.10854000000000003  1.0000
  H   H90       1.0  0.26551  0.17582999999999993  0.93797  1.0000
  H   H91       1.0  0.04755999999999999  0.18124999999999994  0.93597  1.0000
  H   H92       1.0  0.50562  0.32504999999999995  0.09604  1.0000
  H   H93       1.0  0.50282  0.45865999999999996  0.09112  1.0000
  H   H94       1.0  0.40421  0.43789999999999996  0.91601  1.0000
  H   H95       1.0  0.41709  0.3059499999999999  0.92782  1.0000
  H   H96       1.0  0.26961  0.02548  0.08533  1.0000
  H   H97       1.0  0.05451  0.02671  0.08865  1.0000
  H   H98       1.0  0.88127  0.932  0.07372  1.0000
  H   H99       1.0  0.66591  0.93275  0.06984  1.0000
  H   H100      1.0  0.4618499999999999  0.12186999999999998  0.23216  1.0000
  H   H101      1.0  0.89107  0.15434999999999993  0.25611  1.0000
  H   H102      1.0  0.50061  0.25827  0.3099  1.0000
  H   H103      1.0  0.42258  0.9860199999999999  0.85767  1.0000
  H   H104      1.0  0.64655  0.90902  0.81672  1.0000
  H   H105      1.0  0.59884  0.99568  0.79517  1.0000
  H   H106      1.0  0.64082  0.9818799999999999  0.8658800000000001  1.0000
  H   H107      1.0  0.07692  0.8998099999999999  0.7494900000000001  1.0000
  H   H108      1.0  0.12211999999999999  0.71426  0.64294  1.0000
  H   H109      1.0  0.40102  0.7819699999999998  0.7525  1.0000
  H   H110      1.0  0.76554  0.97274  0.71828  1.0000
  H   H111      1.0  0.79836  0.9695699999999999  0.64526  1.0000
  H   H112      1.0  0.6503199999999999  0.9570499999999998  0.6695  1.0000
  H   H113      1.0  0.7524799999999998  0.83937  0.64179  1.0000
  H   H114      1.0  0.70326  0.7023699999999998  0.65496  1.0000
  H   H115      1.0  0.67664  0.65865  0.71973  1.0000
  H   H116      1.0  0.72706  0.60797  0.66094  1.0000
  H   H117      1.0  0.51385  0.58626  0.67414  1.0000
  H   H118      1.0  0.88688  0.7426  0.055220000000000005  1.0000
  H   H119      1.0  0.6660999999999999  0.75  0.05413  1.0000
  H   H120      1.0  0.6664  0.8354  0.89331  1.0000
  H   H121      1.0  0.88333  0.8419699999999999  0.8910200000000003  1.0000
  H   H122      1.0  0.05747  0.7752299999999999  0.8855900000000001  1.0000
  H   H123      1.0  0.27608  0.7820399999999998  0.8914600000000001  1.0000
  H   H124      1.0  0.26551  0.82417  0.06203  1.0000
  H   H125      1.0  0.04755999999999999  0.81874  0.06403  1.0000
  H   H126      1.0  0.50562  0.67495  0.9039600000000001  1.0000
  H   H127      1.0  0.50282  0.54134  0.9088800000000002  1.0000
  H   H128      1.0  0.40421  0.5620999999999998  0.08399  1.0000
  H   H129      1.0  0.41709  0.6940499999999998  0.07218  1.0000
  H   H130      1.0  0.26961  0.9745199999999999  0.9146700000000002  1.0000
  H   H131      1.0  0.05451  0.9732899999999999  0.9113500000000002  1.0000
  H   H132      1.0  0.88127  0.06799999999999998  0.92628  1.0000
  H   H133      1.0  0.66591  0.06725  0.9301600000000001  1.0000
  H   H134      1.0  0.4618499999999999  0.8781299999999999  0.76784  1.0000
  H   H135      1.0  0.89107  0.84564  0.74389  1.0000
  H   H136      1.0  0.50061  0.7417299999999999  0.6901  1.0000
  C   C1        1.0  0.53369  0.38711  0.60599  1.0000
  C   C2        1.0  0.53117  0.43842  0.65601  1.0000
  C   C3        1.0  0.40384  0.45797  0.67045  1.0000
  C   C4        1.0  0.70849  0.3967599999999999  0.70313  1.0000
  C   C5        1.0  0.75629  0.3459199999999999  0.74596  1.0000
  C   C6        1.0  0.87124  0.35414999999999996  0.7663500000000001  1.0000
  C   C7        1.0  0.91556  0.30684999999999996  0.80699  1.0000
  C   C8        1.0  0.8439499999999998  0.25094  0.8266  1.0000
  C   C9        1.0  0.7294799999999999  0.24216  0.80615  1.0000
  C   C10       1.0  0.6869999999999999  0.28907  0.76503  1.0000
  C   C11       1.0  0.03416  0.31815  0.83357  1.0000
  C   C12       1.0  0.25461  0.44734999999999997  0.82214  1.0000
  C   C13       1.0  0.23562  0.3658  0.8179400000000001  1.0000
  C   C14       1.0  0.3240799999999999  0.33349  0.77497  1.0000
  C   C15       1.0  0.65367  0.18389999999999995  0.82964  1.0000
  C   C16       1.0  0.32988  0.15261  0.8260600000000001  1.0000
  C   C17       1.0  0.45707  0.13671  0.84343  1.0000
  C   C18       1.0  0.46597  0.12896  0.90796  1.0000
  C   C19       1.0  0.15996  0.26699  0.48018  1.0000
  C   C20       1.0  0.28226  0.2693  0.48127  1.0000
  C   C21       1.0  0.28266  0.31862  0.5707  1.0000
  C   C22       1.0  0.1605  0.32005999999999996  0.57219  1.0000
  C   C23       1.0  0.09663  0.29446999999999995  0.52601  1.0000
  C   C24       1.0  0.96696  0.29723  0.52527  1.0000
  C   C25       1.0  0.9005499999999999  0.28694  0.57426  1.0000
  C   C26       1.0  0.77855  0.29026  0.57152  1.0000
  C   C27       1.0  0.78398  0.3142399999999999  0.4761000000000001  1.0000
  C   C28       1.0  0.9059799999999999  0.31119  0.4753  1.0000
  C   C29       1.0  0.51656  0.14710999999999994  0.55756  1.0000
  C   C30       1.0  0.51901  0.07275  0.55424  1.0000
  C   C31       1.0  0.5463  0.03942  0.50284  1.0000
  C   C32       1.0  0.57115  0.08414  0.45692  1.0000
  C   C33       1.0  0.56663  0.15811  0.4633300000000001  1.0000
  C   C34       1.0  0.7799199999999998  0.48627  0.54735  1.0000
  C   C35       1.0  0.9024599999999999  0.48596  0.54907  1.0000
  C   C36       1.0  0.16192  0.53731  0.54084  1.0000
  C   C37       1.0  0.28447  0.5369899999999999  0.53893  1.0000
  C   C38       1.0  0.53369  0.61289  0.3940100000000001  1.0000
  C   C39       1.0  0.53117  0.56158  0.34399  1.0000
  C   C40       1.0  0.40384  0.54203  0.32955  1.0000
  C   C41       1.0  0.70849  0.6032399999999999  0.29687  1.0000
  C   C42       1.0  0.75629  0.6540799999999999  0.25404  1.0000
  C   C43       1.0  0.87124  0.64584  0.23365  1.0000
  C   C44       1.0  0.91556  0.6931399999999998  0.19301  1.0000
  C   C45       1.0  0.8439499999999998  0.74906  0.1734  1.0000
  C   C46       1.0  0.7294799999999999  0.7578299999999999  0.19385  1.0000
  C   C47       1.0  0.6869999999999999  0.71092  0.23497000000000004  1.0000
  C   C48       1.0  0.03416  0.68184  0.16643  1.0000
  C   C49       1.0  0.25461  0.55265  0.17787000000000003  1.0000
  C   C50       1.0  0.23562  0.6341999999999999  0.18206  1.0000
  C   C51       1.0  0.3240799999999999  0.66651  0.22503  1.0000
  C   C52       1.0  0.65367  0.8160999999999998  0.17037  1.0000
  C   C53       1.0  0.32988  0.8473899999999998  0.17394000000000004  1.0000
  C   C54       1.0  0.45707  0.86328  0.15657  1.0000
  C   C55       1.0  0.46597  0.8710399999999999  0.09204  1.0000
  C   C56       1.0  0.15996  0.73301  0.51982  1.0000
  C   C57       1.0  0.28226  0.7307  0.51873  1.0000
  C   C58       1.0  0.28266  0.6813799999999998  0.42931000000000014  1.0000
  C   C59       1.0  0.1605  0.6799399999999998  0.42781  1.0000
  C   C60       1.0  0.09663  0.7055299999999998  0.47399  1.0000
  C   C61       1.0  0.96696  0.70277  0.47473000000000004  1.0000
  C   C62       1.0  0.9005499999999999  0.71305  0.42575  1.0000
  C   C63       1.0  0.77855  0.7097299999999997  0.42848000000000014  1.0000
  C   C64       1.0  0.78398  0.68576  0.5239  1.0000
  C   C65       1.0  0.9059799999999999  0.68881  0.5247  1.0000
  C   C66       1.0  0.51656  0.8528899999999998  0.44244  1.0000
  C   C67       1.0  0.51901  0.9272499999999999  0.44576  1.0000
  C   C68       1.0  0.5463  0.9605699999999999  0.49716  1.0000
  C   C69       1.0  0.57115  0.9158599999999998  0.54308  1.0000
  C   C70       1.0  0.56663  0.8418799999999997  0.53667  1.0000
  C   C71       1.0  0.7799199999999998  0.5137299999999998  0.45265  1.0000
  C   C72       1.0  0.9024599999999999  0.51404  0.45093000000000005  1.0000
  C   C73       1.0  0.16192  0.46269  0.45916000000000007  1.0000
  C   C74       1.0  0.28447  0.4630099999999999  0.46107  1.0000
  C   C75       1.0  0.46677  0.11389999999999999  0.10580000000000002  1.0000
  C   C76       1.0  0.46999  0.06221  0.15555  1.0000
  C   C77       1.0  0.5974  0.04311  0.17019  1.0000
  C   C78       1.0  0.29204  0.10298999999999997  0.2026  1.0000
  C   C79       1.0  0.24413999999999997  0.15359  0.24544000000000005  1.0000
  C   C80       1.0  0.12908  0.14521  0.26554  1.0000
  C   C81       1.0  0.08435  0.19282  0.30581  1.0000
  C   C82       1.0  0.1559  0.24851999999999996  0.32584  1.0000
  C   C83       1.0  0.27072  0.25708  0.30589  1.0000
  C   C84       1.0  0.31337  0.21033  0.26471  1.0000
  C   C85       1.0  0.9654499999999998  0.18229999999999993  0.33192  1.0000
  C   C86       1.0  0.74342  0.05382  0.32156  1.0000
  C   C87       1.0  0.76412  0.13513  0.31702  1.0000
  C   C88       1.0  0.67578  0.16798  0.27447  1.0000
  C   C89       1.0  0.34661999999999993  0.31506  0.32961  1.0000
  C   C90       1.0  0.6702599999999999  0.34738  0.32606  1.0000
  C   C91       1.0  0.54276  0.36241  0.34342  1.0000
  C   C92       1.0  0.53393  0.37027999999999994  0.4079400000000001  1.0000
  C   C93       1.0  0.84057  0.23363  0.9803200000000002  1.0000
  C   C94       1.0  0.71829  0.23134999999999997  0.98129  1.0000
  C   C95       1.0  0.7174799999999999  0.18160999999999994  0.07057  1.0000
  C   C96       1.0  0.83961  0.17999  0.07215  1.0000
  C   C97       1.0  0.90359  0.20579  0.0261  1.0000
  C   C98       1.0  0.0332  0.20295  0.0254  1.0000
  C   C99       1.0  0.09963  0.21327  0.07437  1.0000
  C   C100      1.0  0.22161  0.21016  0.07153  1.0000
  C   C101      1.0  0.21598999999999996  0.18615  0.9760700000000001  1.0000
  C   C102      1.0  0.09401999999999999  0.18896  0.97539  1.0000
  C   C103      1.0  0.48361  0.35289  0.057210000000000004  1.0000
  C   C104      1.0  0.48081999999999997  0.42723  0.05407  1.0000
  C   C105      1.0  0.4533099999999999  0.4605799999999999  0.0027400000000000002  1.0000
  C   C106      1.0  0.4285  0.41598  0.95671  1.0000
  C   C107      1.0  0.43337999999999993  0.34201  0.96295  1.0000
  C   C108      1.0  0.22029  0.013679999999999998  0.04736  1.0000
  C   C109      1.0  0.09773  0.01397  0.049080000000000006  1.0000
  C   C110      1.0  0.83804  0.9627099999999997  0.0408  1.0000
  C   C111      1.0  0.71546  0.9630399999999999  0.0389  1.0000
  C   C112      1.0  0.46677  0.8860999999999999  0.8942  1.0000
  C   C113      1.0  0.46999  0.93779  0.84445  1.0000
  C   C114      1.0  0.5974  0.9568899999999999  0.82981  1.0000
  C   C115      1.0  0.29204  0.8970099999999998  0.7974  1.0000
  C   C116      1.0  0.24413999999999997  0.84641  0.75456  1.0000
  C   C117      1.0  0.12908  0.85478  0.73446  1.0000
  C   C118      1.0  0.08435  0.80718  0.69419  1.0000
  C   C119      1.0  0.1559  0.75148  0.67416  1.0000
  C   C120      1.0  0.27072  0.74292  0.69411  1.0000
  C   C121      1.0  0.31337  0.7896699999999998  0.73529  1.0000
  C   C122      1.0  0.9654499999999998  0.8176899999999999  0.66808  1.0000
  C   C123      1.0  0.74342  0.9461699999999998  0.67844  1.0000
  C   C124      1.0  0.76412  0.8648599999999999  0.68298  1.0000
  C   C125      1.0  0.67578  0.83202  0.72553  1.0000
  C   C126      1.0  0.34661999999999993  0.68494  0.67039  1.0000
  C   C127      1.0  0.6702599999999999  0.6526199999999998  0.67394  1.0000
  C   C128      1.0  0.54276  0.6375799999999999  0.65658  1.0000
  C   C129      1.0  0.53393  0.6297199999999998  0.59206  1.0000
  C   C130      1.0  0.84057  0.76637  0.01968  1.0000
  C   C131      1.0  0.71829  0.76865  0.01871  1.0000
  C   C132      1.0  0.7174799999999999  0.81839  0.9294300000000001  1.0000
  C   C133      1.0  0.83961  0.8200099999999998  0.92786  1.0000
  C   C134      1.0  0.90359  0.7942099999999997  0.9739000000000002  1.0000
  C   C135      1.0  0.0332  0.7970499999999999  0.9746000000000001  1.0000
  C   C136      1.0  0.09963  0.7867299999999999  0.92563  1.0000
  C   C137      1.0  0.22161  0.7898299999999999  0.9284700000000001  1.0000
  C   C138      1.0  0.21598999999999996  0.81385  0.023930000000000003  1.0000
  C   C139      1.0  0.09401999999999999  0.81104  0.02461  1.0000
  C   C140      1.0  0.48361  0.64711  0.9427900000000001  1.0000
  C   C141      1.0  0.48081999999999997  0.5727699999999999  0.9459300000000002  1.0000
  C   C142      1.0  0.4533099999999999  0.53941  0.9972600000000001  1.0000
  C   C143      1.0  0.4285  0.58402  0.04329  1.0000
  C   C144      1.0  0.43337999999999993  0.6579899999999997  0.03705  1.0000
  C   C145      1.0  0.22029  0.98631  0.9526400000000002  1.0000
  C   C146      1.0  0.09773  0.98603  0.95092  1.0000
  C   C147      1.0  0.83804  0.03728  0.9592  1.0000
  C   C148      1.0  0.71546  0.03694999999999999  0.9611  1.0000
  C   C149      1.0  0.96686  0.4999999999999999  0.5  1.0000
  C   C150      1.0  0.09734  0.4999999999999999  0.5  1.0000
  C   C151      1.0  0.03325  0.0  0.0  1.0000
  C   C152      1.0  0.9027099999999999  0.0  0.0  1.0000
  N   N1        1.0  0.58956  0.4062199999999999  0.70414  1.0000
  N   N2        1.0  0.11553  0.3505999999999999  0.8002000000000002  1.0000
  N   N3        1.0  0.53558  0.19203  0.82234  1.0000
  N   N4        1.0  0.34328  0.29517  0.52554  1.0000
  N   N5        1.0  0.7204799999999999  0.30381  0.52319  1.0000
  N   N6        1.0  0.5395  0.18936  0.51284  1.0000
  N   N7        1.0  0.58956  0.59377  0.29586  1.0000
  N   N8        1.0  0.11553  0.6493999999999999  0.19980000000000003  1.0000
  N   N9        1.0  0.53558  0.80796  0.17766  1.0000
  N   N10       1.0  0.34328  0.70483  0.47446  1.0000
  N   N11       1.0  0.7204799999999999  0.6961899999999999  0.47681  1.0000
  N   N12       1.0  0.5395  0.81064  0.48716  1.0000
  N   N13       1.0  0.41099  0.09372999999999998  0.20378  1.0000
  N   N14       1.0  0.88422  0.14927  0.29877  1.0000
  N   N15       1.0  0.46466  0.30693  0.3223  1.0000
  N   N16       1.0  0.65714  0.20532  0.02544  1.0000
  N   N17       1.0  0.27953  0.19676  0.023130000000000008  1.0000
  N   N18       1.0  0.46079  0.31075  0.01238  1.0000
  N   N19       1.0  0.41099  0.90627  0.79622  1.0000
  N   N20       1.0  0.88422  0.85073  0.70123  1.0000
  N   N21       1.0  0.46466  0.6930699999999997  0.6777  1.0000
  N   N22       1.0  0.65714  0.79468  0.9745600000000001  1.0000
  N   N23       1.0  0.27952  0.80324  0.97687  1.0000
  N   N24       1.0  0.46079  0.6892399999999999  0.98762  1.0000
  N   N25       1.0  0.71858  0.4999999999999999  0.5  1.0000
  N   N26       1.0  0.34614  0.4999999999999999  0.5  1.0000
  N   N27       1.0  0.28167  0.0  0.0  1.0000
  N   N28       1.0  0.65372  0.0  0.0  1.0000
  O   O1        1.0  0.52912  0.4109699999999999  0.55508  1.0000
  O   O2        1.0  0.53629  0.31986  0.61404  1.0000
  O   O3        1.0  0.77409  0.4271399999999999  0.66845  1.0000
  O   O4        1.0  0.28517  0.31635  0.72733  1.0000
  O   O5        1.0  0.43082  0.33076  0.7924  1.0000
  O   O6        1.0  0.052749999999999984  0.30133  0.88351  1.0000
  O   O7        1.0  0.47575  0.18792  0.9348  1.0000
  O   O8        1.0  0.4579  0.06611  0.92772  1.0000
  O   O9        1.0  0.69672  0.13124  0.8546300000000002  1.0000
  O   O10       1.0  0.52912  0.58902  0.44492  1.0000
  O   O11       1.0  0.53629  0.6801399999999997  0.38596  1.0000
  O   O12       1.0  0.77409  0.57286  0.33155  1.0000
  O   O13       1.0  0.28517  0.6836499999999998  0.27267  1.0000
  O   O14       1.0  0.43082  0.66924  0.2076  1.0000
  O   O15       1.0  0.052749999999999984  0.6986699999999999  0.11649  1.0000
  O   O16       1.0  0.47575  0.81208  0.0652  1.0000
  O   O17       1.0  0.4579  0.9338899999999998  0.07228  1.0000
  O   O18       1.0  0.69672  0.86876  0.14537  1.0000
  O   O19       1.0  0.47093999999999997  0.0902  0.05479  1.0000
  O   O20       1.0  0.46388  0.18112999999999996  0.1141  1.0000
  O   O21       1.0  0.22643999999999997  0.07264  0.16788  1.0000
  O   O22       1.0  0.71481  0.18546  0.22698  1.0000
  O   O23       1.0  0.56908  0.17089999999999997  0.29205  1.0000
  O   O24       1.0  0.9465899999999999  0.20033999999999993  0.38156  1.0000
  O   O25       1.0  0.52426  0.31162  0.43502  1.0000
  O   O26       1.0  0.54224  0.4330599999999999  0.42771  1.0000
  O   O27       1.0  0.30338  0.36747  0.35488  1.0000
  O   O28       1.0  0.47093999999999997  0.9097999999999999  0.94521  1.0000
  O   O29       1.0  0.46388  0.8188599999999999  0.8859  1.0000
  O   O30       1.0  0.22643999999999997  0.92736  0.83212  1.0000
  O   O31       1.0  0.71481  0.81454  0.77302  1.0000
  O   O32       1.0  0.56908  0.8290999999999998  0.70795  1.0000
  O   O33       1.0  0.9465899999999999  0.7996599999999999  0.61844  1.0000
  O   O34       1.0  0.52426  0.68838  0.56498  1.0000
  O   O35       1.0  0.54224  0.56693  0.57229  1.0000
  O   O36       1.0  0.30338  0.63253  0.64512  1.0000
