data_image0
_chemical_formula_structural       Zn8H100C156N4O28
_chemical_formula_sum              "Zn8 H100 C156 N4 O28"
_cell_length_a       12.05699
_cell_length_b       18.16735
_cell_length_c       18.63897
_cell_angle_alpha    89.97852
_cell_angle_beta     90.01878999999998
_cell_angle_gamma    90.03695

_space_group_name_H-M_alt    "P 1"
_space_group_IT_number       1

loop_
  _space_group_symop_operation_xyz
  'x, y, z'

loop_
  _atom_site_type_symbol
  _atom_site_label
  _atom_site_symmetry_multiplicity
  _atom_site_fract_x
  _atom_site_fract_y
  _atom_site_fract_z
  _atom_site_occupancy
  Zn  Zn1       1.0  0.39206  0.3017  0.00616  1.0000
  Zn  Zn2       1.0  0.10765999999999999  0.3017800000000001  0.9941500000000001  1.0000
  Zn  Zn3       1.0  0.60793  0.19831  0.0062  1.0000
  Zn  Zn4       1.0  0.89217  0.19854  0.9939700000000001  1.0000
  Zn  Zn5       1.0  0.60795  0.6983000000000003  0.9938399999999998  1.0000
  Zn  Zn6       1.0  0.8923399999999999  0.69821  0.00585  1.0000
  Zn  Zn7       1.0  0.39206999999999986  0.80168  0.9938  1.0000
  Zn  Zn8       1.0  0.10782999999999998  0.80146  0.00603  1.0000
  H   H1        1.0  0.8719699999999999  0.7653200000000002  0.79718  1.0000
  H   H2        1.0  0.53886  0.49217  0.92516  1.0000
  H   H3        1.0  0.8737099999999998  0.6654100000000002  0.2315  1.0000
  H   H4        1.0  0.64459  0.5893000000000002  0.8623  1.0000
  H   H5        1.0  0.87816  0.6627300000000003  0.36267  1.0000
  H   H6        1.0  0.8434499999999999  0.69327  0.5966  1.0000
  H   H7        1.0  0.90932  0.43483000000000005  0.82223  1.0000
  H   H8        1.0  0.80154  0.33763  0.88466  1.0000
  H   H9        1.0  0.7822199999999999  0.66612  0.8654299999999999  1.0000
  H   H10       1.0  0.84224  0.6942000000000002  0.46514000000000005  1.0000
  H   H11       1.0  0.01787  0.60528  0.65539  1.0000
  H   H12       1.0  0.9251099999999998  0.50525  0.72265  1.0000
  H   H13       1.0  0.7498899999999997  0.09486  0.0  1.0000
  H   H14       1.0  0.62797  0.76542  0.20278  1.0000
  H   H15       1.0  0.9608399999999998  0.49181000000000014  0.07488  1.0000
  H   H16       1.0  0.62574  0.66592  0.7689  1.0000
  H   H17       1.0  0.8556299999999998  0.58933  0.13763  1.0000
  H   H18       1.0  0.62137  0.6627100000000002  0.6377400000000001  1.0000
  H   H19       1.0  0.65651  0.6933  0.40351  1.0000
  H   H20       1.0  0.59006  0.4352200000000001  0.17804  1.0000
  H   H21       1.0  0.69746  0.33785  0.11548000000000001  1.0000
  H   H22       1.0  0.71778  0.6662800000000001  0.13456  1.0000
  H   H23       1.0  0.65765  0.6941600000000002  0.53497  1.0000
  H   H24       1.0  0.48211  0.60519  0.34465  1.0000
  H   H25       1.0  0.57492  0.50527  0.27738  1.0000
  H   H26       1.0  0.12813  0.73469  0.79724  1.0000
  H   H27       1.0  0.46113  0.00788  0.9251900000000001  1.0000
  H   H28       1.0  0.12588  0.83334  0.23084  1.0000
  H   H29       1.0  0.35545  0.91075  0.8623499999999998  1.0000
  H   H30       1.0  0.12115  0.8373100000000002  0.36205  1.0000
  H   H31       1.0  0.15665  0.8067400000000002  0.59658  1.0000
  H   H32       1.0  0.09059  0.06522  0.82217  1.0000
  H   H33       1.0  0.19838999999999998  0.1624  0.88459  1.0000
  H   H34       1.0  0.21782  0.8338800000000001  0.86549  1.0000
  H   H35       1.0  0.15768  0.8059200000000002  0.46508000000000005  1.0000
  H   H36       1.0  0.9821399999999998  0.8947200000000001  0.65533  1.0000
  H   H37       1.0  0.07482  0.9947700000000002  0.72258  1.0000
  H   H38       1.0  0.25038  0.40524000000000004  0.9999  1.0000
  H   H39       1.0  0.3719899999999999  0.73461  0.20277  1.0000
  H   H40       1.0  0.03893  0.00831  0.07478  1.0000
  H   H41       1.0  0.37424  0.83409  0.76879  1.0000
  H   H42       1.0  0.14415  0.91075  0.13756  1.0000
  H   H43       1.0  0.37865  0.8373300000000002  0.63762  1.0000
  H   H44       1.0  0.34346999999999994  0.8067100000000003  0.40341  1.0000
  H   H45       1.0  0.4098  0.06482000000000002  0.17801  1.0000
  H   H46       1.0  0.30238999999999994  0.16222000000000006  0.11543000000000002  1.0000
  H   H47       1.0  0.28214  0.83375  0.1345  1.0000
  H   H48       1.0  0.34237  0.80584  0.53487  1.0000
  H   H49       1.0  0.51785  0.89477  0.34464  1.0000
  H   H50       1.0  0.42504  0.99472  0.27733  1.0000
  H   H51       1.0  0.12804  0.23467000000000002  0.20282  1.0000
  H   H52       1.0  0.46114  0.50783  0.07484  1.0000
  H   H53       1.0  0.12629  0.3345800000000001  0.7685  1.0000
  H   H54       1.0  0.35542  0.4107000000000001  0.1377  1.0000
  H   H55       1.0  0.12184999999999997  0.33727000000000007  0.63733  1.0000
  H   H56       1.0  0.15656  0.30673  0.4034  1.0000
  H   H57       1.0  0.09067999999999998  0.56517  0.17777  1.0000
  H   H58       1.0  0.19847  0.66237  0.11534000000000001  1.0000
  H   H59       1.0  0.21777999999999995  0.33387000000000006  0.13457  1.0000
  H   H60       1.0  0.15777  0.3058000000000001  0.53486  1.0000
  H   H61       1.0  0.9821399999999998  0.39472  0.34461  1.0000
  H   H62       1.0  0.07489999999999998  0.4947500000000001  0.27735  1.0000
  H   H63       1.0  0.25012  0.90514  0.0  1.0000
  H   H64       1.0  0.37203999999999987  0.23457000000000003  0.79722  1.0000
  H   H65       1.0  0.03917  0.5081799999999999  0.9251200000000002  1.0000
  H   H66       1.0  0.37427  0.33408000000000004  0.23109999999999997  1.0000
  H   H67       1.0  0.14438  0.41067  0.86237  1.0000
  H   H68       1.0  0.3786399999999999  0.33729  0.36226  1.0000
  H   H69       1.0  0.34349  0.3067  0.59649  1.0000
  H   H70       1.0  0.40995  0.56478  0.82196  1.0000
  H   H71       1.0  0.30254  0.66215  0.88452  1.0000
  H   H72       1.0  0.28223  0.33372  0.86544  1.0000
  H   H73       1.0  0.34236  0.30584  0.46504  1.0000
  H   H74       1.0  0.51789  0.39481  0.65535  1.0000
  H   H75       1.0  0.42509  0.4947200000000001  0.72262  1.0000
  H   H76       1.0  0.87188  0.26531  0.20276000000000002  1.0000
  H   H77       1.0  0.53888  0.99212  0.07481  1.0000
  H   H78       1.0  0.87413  0.16666000000000006  0.76916  1.0000
  H   H79       1.0  0.6445599999999999  0.08925  0.13765  1.0000
  H   H80       1.0  0.87885  0.16268000000000005  0.63795  1.0000
  H   H81       1.0  0.84336  0.19326000000000002  0.40342  1.0000
  H   H82       1.0  0.90942  0.9347800000000002  0.17783  1.0000
  H   H83       1.0  0.80162  0.8376  0.11541000000000001  1.0000
  H   H84       1.0  0.78219  0.16612  0.13451  1.0000
  H   H85       1.0  0.84233  0.19408000000000006  0.53492  1.0000
  H   H86       1.0  0.01787  0.10528  0.34468  1.0000
  H   H87       1.0  0.92519  0.00523  0.27742  1.0000
  H   H88       1.0  0.74962  0.59475  0.00010000000000000002  1.0000
  H   H89       1.0  0.62802  0.26539  0.79724  1.0000
  H   H90       1.0  0.96108  0.99168  0.92522  1.0000
  H   H91       1.0  0.62577  0.16590000000000002  0.23121  1.0000
  H   H92       1.0  0.85586  0.08925  0.8624400000000001  1.0000
  H   H93       1.0  0.62136  0.16267  0.36238  1.0000
  H   H94       1.0  0.65653  0.19329  0.59659  1.0000
  H   H95       1.0  0.5902  0.9351800000000001  0.82199  1.0000
  H   H96       1.0  0.69762  0.8377800000000002  0.8845700000000001  1.0000
  H   H97       1.0  0.71786  0.16625000000000006  0.8655  1.0000
  H   H98       1.0  0.65764  0.19416  0.46514000000000005  1.0000
  H   H99       1.0  0.48215  0.10522  0.65536  1.0000
  H   H100      1.0  0.57497  0.00528  0.72267  1.0000
  C   C1        1.0  0.59871  0.35088  0.94577  1.0000
  C   C2        1.0  0.66379  0.4087500000000001  0.90891  1.0000
  C   C3        1.0  0.88352  0.7084  0.78082  1.0000
  C   C4        1.0  0.9492999999999998  0.69197  0.72087  1.0000
  C   C5        1.0  0.62016  0.48018000000000005  0.9027900000000001  1.0000
  C   C6        1.0  0.9295099999999998  0.70215  0.26003  1.0000
  C   C7        1.0  0.68009  0.53453  0.8675999999999999  1.0000
  C   C8        1.0  0.7849399999999999  0.51946  0.83735  1.0000
  C   C9        1.0  0.8452099999999999  0.5779100000000003  0.79879  1.0000
  C   C10       1.0  0.9309  0.7018  0.33461  1.0000
  C   C11       1.0  0.9123599999999998  0.7177400000000003  0.5675  1.0000
  C   C12       1.0  0.8279  0.44763000000000003  0.84406  1.0000
  C   C13       1.0  0.76818  0.39298  0.8793699999999999  1.0000
  C   C14       1.0  0.8327899999999999  0.6521  0.81911  1.0000
  C   C15       1.0  0.9129  0.7179800000000002  0.49300000000000005  1.0000
  C   C16       1.0  0.9653699999999997  0.61813  0.70113  1.0000
  C   C17       1.0  0.91363  0.56207  0.73953  1.0000
  C   C18       1.0  0.89955  0.35094000000000003  0.05405000000000001  1.0000
  C   C19       1.0  0.83524  0.40889  0.09112  1.0000
  C   C20       1.0  0.61652  0.7084900000000001  0.21920000000000003  1.0000
  C   C21       1.0  0.55075  0.69199  0.27917  1.0000
  C   C22       1.0  0.87945  0.4801400000000001  0.0973  1.0000
  C   C23       1.0  0.57016  0.70261  0.74018  1.0000
  C   C24       1.0  0.81988  0.53458  0.13251  1.0000
  C   C25       1.0  0.71497  0.51962  0.1628  1.0000
  C   C26       1.0  0.65484  0.57806  0.20131  1.0000
  C   C27       1.0  0.5687699999999999  0.70195  0.66561  1.0000
  C   C28       1.0  0.58761  0.71772  0.43258  1.0000
  C   C29       1.0  0.6715799999999998  0.44786  0.15619  1.0000
  C   C30       1.0  0.7308999999999999  0.39319  0.12079999999999999  1.0000
  C   C31       1.0  0.66726  0.65225  0.18093  1.0000
  C   C32       1.0  0.58703  0.71793  0.50709  1.0000
  C   C33       1.0  0.53465  0.61813  0.29894  1.0000
  C   C34       1.0  0.5864  0.56214  0.26055  1.0000
  C   C35       1.0  0.40124  0.14914000000000002  0.94578  1.0000
  C   C36       1.0  0.33616  0.09129  0.9089  1.0000
  C   C37       1.0  0.11653999999999999  0.7916200000000002  0.78086  1.0000
  C   C38       1.0  0.05076  0.80805  0.72087  1.0000
  C   C39       1.0  0.3798099999999999  0.019870000000000006  0.90281  1.0000
  C   C40       1.0  0.0702  0.7967900000000002  0.2597  1.0000
  C   C41       1.0  0.31989  0.96551  0.8676299999999999  1.0000
  C   C42       1.0  0.21501  0.9805700000000002  0.83736  1.0000
  C   C43       1.0  0.15476  0.9221200000000002  0.79881  1.0000
  C   C44       1.0  0.06865  0.79789  0.33427  1.0000
  C   C45       1.0  0.08768  0.7823200000000002  0.56747  1.0000
  C   C46       1.0  0.17202  0.05239  0.84403  1.0000
  C   C47       1.0  0.23174  0.10704  0.8793400000000001  1.0000
  C   C48       1.0  0.16723  0.8479200000000001  0.81915  1.0000
  C   C49       1.0  0.08703999999999999  0.7821400000000001  0.49295999999999995  1.0000
  C   C50       1.0  0.03464  0.88189  0.7011  1.0000
  C   C51       1.0  0.08634  0.93795  0.73951  1.0000
  C   C52       1.0  0.10045999999999997  0.14936  0.05399  1.0000
  C   C53       1.0  0.16459  0.09127000000000003  0.09106  1.0000
  C   C54       1.0  0.38343999999999995  0.79153  0.21917  1.0000
  C   C55       1.0  0.44923  0.8080100000000001  0.27915  1.0000
  C   C56       1.0  0.12034999999999998  0.020000000000000004  0.09718  1.0000
  C   C57       1.0  0.42980999999999997  0.7974000000000002  0.74012  1.0000
  C   C58       1.0  0.17992  0.9655000000000001  0.1324  1.0000
  C   C59       1.0  0.28486  0.9804100000000001  0.16272  1.0000
  C   C60       1.0  0.3450199999999999  0.9219600000000001  0.20125  1.0000
  C   C61       1.0  0.43121999999999994  0.7980700000000001  0.66554  1.0000
  C   C62       1.0  0.41239  0.7822700000000002  0.43252  1.0000
  C   C63       1.0  0.32829  0.05217  0.15614  1.0000
  C   C64       1.0  0.26898  0.10687000000000002  0.12074000000000001  1.0000
  C   C65       1.0  0.33264  0.84779  0.18089  1.0000
  C   C66       1.0  0.4129899999999999  0.7820700000000003  0.50703  1.0000
  C   C67       1.0  0.46531  0.8818600000000002  0.29891  1.0000
  C   C68       1.0  0.41352  0.9378700000000001  0.2605  1.0000
  C   C69       1.0  0.4013  0.6491100000000001  0.05423000000000001  1.0000
  C   C70       1.0  0.33621  0.59125  0.09109  1.0000
  C   C71       1.0  0.11648999999999998  0.2916  0.21918  1.0000
  C   C72       1.0  0.0507  0.30803  0.27913  1.0000
  C   C73       1.0  0.37985  0.5198200000000001  0.09721  1.0000
  C   C74       1.0  0.07049  0.2978500000000001  0.73998  1.0000
  C   C75       1.0  0.31991  0.46547000000000005  0.1324  1.0000
  C   C76       1.0  0.21506999999999996  0.48054  0.16266  1.0000
  C   C77       1.0  0.15479  0.42209000000000013  0.20121  1.0000
  C   C78       1.0  0.0691  0.2982  0.66539  1.0000
  C   C79       1.0  0.08764999999999999  0.28226  0.4325  1.0000
  C   C80       1.0  0.17211  0.55236  0.15594  1.0000
  C   C81       1.0  0.23182999999999995  0.60702  0.12063  1.0000
  C   C82       1.0  0.16720999999999997  0.3479  0.18089  1.0000
  C   C83       1.0  0.08711  0.2820200000000001  0.507  1.0000
  C   C84       1.0  0.03464  0.3818600000000001  0.29887  1.0000
  C   C85       1.0  0.08637999999999998  0.43793000000000004  0.26047  1.0000
  C   C86       1.0  0.10044999999999998  0.6490600000000002  0.94595  1.0000
  C   C87       1.0  0.16477  0.59111  0.90888  1.0000
  C   C88       1.0  0.38349  0.29151  0.78081  1.0000
  C   C89       1.0  0.44926  0.30801  0.72083  1.0000
  C   C90       1.0  0.12056  0.51986  0.9026999999999998  1.0000
  C   C91       1.0  0.42984999999999995  0.29739  0.25982  1.0000
  C   C92       1.0  0.18012  0.46542  0.8674900000000001  1.0000
  C   C93       1.0  0.28504  0.48038000000000003  0.8372  1.0000
  C   C94       1.0  0.3451699999999999  0.42193  0.79869  1.0000
  C   C95       1.0  0.43124  0.2980500000000001  0.33439  1.0000
  C   C96       1.0  0.4123999999999999  0.28227  0.56742  1.0000
  C   C97       1.0  0.32843  0.55214  0.84381  1.0000
  C   C98       1.0  0.26911  0.60681  0.8792  1.0000
  C   C99       1.0  0.33275  0.34775  0.81907  1.0000
  C   C100      1.0  0.41298  0.28207  0.49291000000000007  1.0000
  C   C101      1.0  0.46535  0.3818600000000001  0.70106  1.0000
  C   C102      1.0  0.41361  0.43786  0.73945  1.0000
  C   C103      1.0  0.59876  0.85086  0.05423000000000001  1.0000
  C   C104      1.0  0.66385  0.9087100000000001  0.0911  1.0000
  C   C105      1.0  0.88347  0.20838  0.21914  1.0000
  C   C106      1.0  0.94925  0.19195000000000007  0.27913  1.0000
  C   C107      1.0  0.6202  0.9801300000000002  0.09719  1.0000
  C   C108      1.0  0.9298099999999998  0.2032  0.7403  1.0000
  C   C109      1.0  0.68011  0.034490000000000014  0.13237  1.0000
  C   C110      1.0  0.7849899999999999  0.019430000000000006  0.16264  1.0000
  C   C111      1.0  0.84525  0.07788000000000002  0.20119  1.0000
  C   C112      1.0  0.93136  0.20211  0.66573  1.0000
  C   C113      1.0  0.9123299999999999  0.21768  0.4325300000000001  1.0000
  C   C114      1.0  0.8279899999999999  0.9476100000000001  0.15597  1.0000
  C   C115      1.0  0.7682599999999999  0.8929500000000001  0.12065999999999999  1.0000
  C   C116      1.0  0.8327699999999998  0.15208000000000005  0.18085  1.0000
  C   C117      1.0  0.91297  0.21785  0.50704  1.0000
  C   C118      1.0  0.96536  0.11811  0.2989  1.0000
  C   C119      1.0  0.9136699999999998  0.06205  0.26049  1.0000
  C   C120      1.0  0.89955  0.8506400000000001  0.94601  1.0000
  C   C121      1.0  0.8354099999999999  0.90873  0.90894  1.0000
  C   C122      1.0  0.61656  0.20846000000000006  0.78083  1.0000
  C   C123      1.0  0.55077  0.19199  0.72086  1.0000
  C   C124      1.0  0.87966  0.9800000000000001  0.9028200000000001  1.0000
  C   C125      1.0  0.5702  0.2026  0.25988  1.0000
  C   C126      1.0  0.82009  0.034490000000000014  0.8675999999999999  1.0000
  C   C127      1.0  0.71515  0.01959  0.8372800000000001  1.0000
  C   C128      1.0  0.65498  0.07804  0.79875  1.0000
  C   C129      1.0  0.56878  0.20192  0.33446  1.0000
  C   C130      1.0  0.58761  0.21773  0.56748  1.0000
  C   C131      1.0  0.67172  0.9478300000000001  0.84386  1.0000
  C   C132      1.0  0.7310299999999997  0.8931300000000001  0.87926  1.0000
  C   C133      1.0  0.66737  0.15221  0.81911  1.0000
  C   C134      1.0  0.58702  0.21793000000000004  0.49297  1.0000
  C   C135      1.0  0.53469  0.11813000000000001  0.70109  1.0000
  C   C136      1.0  0.58648  0.06212000000000001  0.7395  1.0000
  C   C137      1.0  4.000000000000012e-05  0.7500300000000002  0.6063  1.0000
  C   C138      1.0  0.99982  0.74996  0.37404  1.0000
  C   C139      1.0  0.0003800000000000002  0.7488200000000002  0.14141  1.0000
  C   C140      1.0  0.9999199999999999  0.7500700000000001  0.45319000000000004  1.0000
  C   C141      1.0  4.000000000000026e-05  0.7492100000000003  0.22122000000000003  1.0000
  C   C142      1.0  0.5  0.7499900000000003  0.39372  1.0000
  C   C143      1.0  0.5  0.75001  0.62599  1.0000
  C   C144      1.0  0.5  0.75001  0.8585399999999999  1.0000
  C   C145      1.0  0.50001  0.7500000000000002  0.54686  1.0000
  C   C146      1.0  0.49999  0.75001  0.77875  1.0000
  C   C147      1.0  0.99996  0.24997  0.3937  1.0000
  C   C148      1.0  0.00017999999999999998  0.25004  0.62596  1.0000
  C   C149      1.0  0.99963  0.25118  0.85859  1.0000
  C   C150      1.0  8.000000000000005e-05  0.24992000000000003  0.54681  1.0000
  C   C151      1.0  0.99996  0.25079000000000007  0.77879  1.0000
  C   C152      1.0  0.50001  0.25  0.60628  1.0000
  C   C153      1.0  0.5  0.24999000000000002  0.37401  1.0000
  C   C154      1.0  0.50001  0.24999000000000002  0.14146  1.0000
  C   C155      1.0  0.5  0.24999000000000002  0.45314  1.0000
  C   C156      1.0  0.50002  0.24999000000000002  0.22125  1.0000
  N   N1        1.0  5.999999999999996e-05  0.75001  0.68171  1.0000
  N   N2        1.0  0.5  0.7500000000000002  0.31831  1.0000
  N   N3        1.0  0.9999399999999999  0.24999000000000002  0.31829  1.0000
  N   N4        1.0  0.5  0.25  0.68169  1.0000
  O   O1        1.0  0.50477  0.37012  0.97152  1.0000
  O   O2        1.0  0.92127  0.71481  0.10966999999999999  1.0000
  O   O3        1.0  0.63985  0.28602  0.94865  1.0000
  O   O4        1.0  0.9941  0.36971  0.028660000000000005  1.0000
  O   O5        1.0  0.57802  0.7148700000000002  0.89023  1.0000
  O   O6        1.0  0.8566299999999999  0.2865  0.05082  1.0000
  O   O7        1.0  0.49524  0.12988  0.9715000000000001  1.0000
  O   O8        1.0  0.07994  0.7824  0.10968000000000001  1.0000
  O   O9        1.0  0.36007999999999996  0.21398000000000006  0.94866  1.0000
  O   O10       1.0  0.005919999999999998  0.13069  0.028460000000000003  1.0000
  O   O11       1.0  0.42199  0.78516  0.8902  1.0000
  O   O12       1.0  0.14344  0.2138  0.05085  1.0000
  O   O13       1.0  0.49522999999999995  0.62988  0.02848  1.0000
  O   O14       1.0  0.07874  0.28519  0.8903300000000001  1.0000
  O   O15       1.0  0.36016  0.71398  0.05135  1.0000
  O   O16       1.0  0.00591  0.63029  0.9713400000000001  1.0000
  O   O17       1.0  0.42199  0.2851300000000001  0.10977  1.0000
  O   O18       1.0  0.14338  0.7135  0.94918  1.0000
  O   O19       1.0  0.50477  0.87012  0.028500000000000004  1.0000
  O   O20       1.0  0.92006  0.2176  0.8903300000000001  1.0000
  O   O21       1.0  0.63993  0.7860100000000002  0.05134  1.0000
  O   O22       1.0  0.99409  0.86931  0.97154  1.0000
  O   O23       1.0  0.5780099999999999  0.21484  0.10980999999999999  1.0000
  O   O24       1.0  0.8565599999999998  0.7862000000000002  0.94915  1.0000
  O   O25       1.0  0.24995  0.35183  2e-05  1.0000
  O   O26       1.0  0.7501099999999999  0.14827  0.0  1.0000
  O   O27       1.0  0.75005  0.64817  0.9999800000000001  1.0000
  O   O28       1.0  0.24988999999999997  0.85172  0.0  1.0000
