data_image0
_chemical_formula_structural       Eu24H72C168N24O96
_chemical_formula_sum              "Eu24 H72 C168 N24 O96"
_cell_length_a       20.07964
_cell_length_b       20.079720000000002
_cell_length_c       20.0798
_cell_angle_alpha    90.27715
_cell_angle_beta     90.2776
_cell_angle_gamma    90.2776

_symmetry_space_group_name_H-M    'P 1'
_symmetry_Int_Tables_number       1

loop_
  _symmetry_equiv_pos_as_xyz
  'x,y,z'

loop_
  _atom_site_type_symbol
  _atom_site_label
  _atom_site_symmetry_multiplicity
  _atom_site_fract_x
  _atom_site_fract_y
  _atom_site_fract_z
  _atom_site_occupancy
  Eu  Eu1       1.0  0.26080999999999993  0.1397  0.5203999999999999  1.0000
  Eu  Eu2       1.0  0.2375  0.8609399999999999  0.0185  1.0000
  Eu  Eu3       1.0  0.73958  0.63935  0.98176  1.0000
  Eu  Eu4       1.0  0.7607599999999999  0.35961  0.48002999999999996  1.0000
  Eu  Eu5       1.0  0.52041  0.26081  0.1397  1.0000
  Eu  Eu6       1.0  0.018499999999999996  0.2375  0.86094  1.0000
  Eu  Eu7       1.0  0.9817699999999999  0.73958  0.63935  1.0000
  Eu  Eu8       1.0  0.48002999999999996  0.76076  0.35960999999999993  1.0000
  Eu  Eu9       1.0  0.13969999999999996  0.5204  0.26081  1.0000
  Eu  Eu10      1.0  0.86094  0.0185  0.23749999999999996  1.0000
  Eu  Eu11      1.0  0.63935  0.98176  0.73958  1.0000
  Eu  Eu12      1.0  0.35961  0.48003  0.76076  1.0000
  Eu  Eu13      1.0  0.73919  0.8603  0.47959  1.0000
  Eu  Eu14      1.0  0.7625  0.13905  0.9814899999999998  1.0000
  Eu  Eu15      1.0  0.26042  0.36065  0.01823  1.0000
  Eu  Eu16      1.0  0.23924  0.64038  0.51997  1.0000
  Eu  Eu17      1.0  0.47959  0.73918  0.8603  1.0000
  Eu  Eu18      1.0  0.9815  0.7625  0.13906  1.0000
  Eu  Eu19      1.0  0.01823  0.26042  0.36064  1.0000
  Eu  Eu20      1.0  0.51997  0.23924  0.64038  1.0000
  Eu  Eu21      1.0  0.8602999999999998  0.47959  0.7391799999999998  1.0000
  Eu  Eu22      1.0  0.13906  0.9814899999999999  0.7625  1.0000
  Eu  Eu23      1.0  0.36064999999999997  0.01823  0.26042  1.0000
  Eu  Eu24      1.0  0.64038  0.51997  0.23924  1.0000
  H   H1        1.0  0.39742  0.04577  0.6793  1.0000
  H   H2        1.0  0.45928  0.00937  0.7827099999999999  1.0000
  H   H3        1.0  0.3928  0.96731  0.88029  1.0000
  H   H4        1.0  0.09979999999999999  0.95474  0.17841999999999997  1.0000
  H   H5        1.0  0.04037999999999999  0.9902199999999999  0.28319  1.0000
  H   H6        1.0  0.10889  0.03271  0.38028999999999996  1.0000
  H   H7        1.0  0.60282  0.54502  0.8221499999999999  1.0000
  H   H8        1.0  0.54117  0.51065  0.71746  1.0000
  H   H9        1.0  0.60743  0.46874999999999994  0.61958  1.0000
  H   H10       1.0  0.9002099999999998  0.4540100000000001  0.32132  1.0000
  H   H11       1.0  0.96058  0.48871999999999993  0.21693999999999997  1.0000
  H   H12       1.0  0.8927299999999999  0.53175  0.12012999999999999  1.0000
  H   H13       1.0  0.67931  0.39742  0.04577  1.0000
  H   H14       1.0  0.7827099999999999  0.45928  0.00937  1.0000
  H   H15       1.0  0.8803  0.3928  0.96731  1.0000
  H   H16       1.0  0.17842  0.09979999999999999  0.9547399999999999  1.0000
  H   H17       1.0  0.28318999999999994  0.04038  0.99022  1.0000
  H   H18       1.0  0.38029  0.10889  0.03271  1.0000
  H   H19       1.0  0.8221499999999999  0.60282  0.54503  1.0000
  H   H20       1.0  0.7174599999999999  0.54117  0.51065  1.0000
  H   H21       1.0  0.61958  0.60743  0.46875  1.0000
  H   H22       1.0  0.32132  0.9002099999999998  0.45400999999999997  1.0000
  H   H23       1.0  0.21694  0.96057  0.48871999999999993  1.0000
  H   H24       1.0  0.12012999999999999  0.8927199999999998  0.53174  1.0000
  H   H25       1.0  0.04577  0.6793  0.39742  1.0000
  H   H26       1.0  0.00937  0.78271  0.45928  1.0000
  H   H27       1.0  0.96732  0.88029  0.3927999999999999  1.0000
  H   H28       1.0  0.9547499999999999  0.17843  0.0998  1.0000
  H   H29       1.0  0.9902299999999999  0.2832  0.04038  1.0000
  H   H30       1.0  0.03271  0.38029  0.10889  1.0000
  H   H31       1.0  0.54503  0.82215  0.6028199999999999  1.0000
  H   H32       1.0  0.51065  0.71746  0.54117  1.0000
  H   H33       1.0  0.46875  0.61958  0.60743  1.0000
  H   H34       1.0  0.45401  0.32132  0.9002099999999998  1.0000
  H   H35       1.0  0.48871999999999993  0.21694000000000002  0.96057  1.0000
  H   H36       1.0  0.53175  0.12013  0.89272  1.0000
  H   H37       1.0  0.60258  0.95422  0.32069  1.0000
  H   H38       1.0  0.54072  0.99063  0.21729  1.0000
  H   H39       1.0  0.6072  0.03268  0.11969999999999999  1.0000
  H   H40       1.0  0.9002  0.04525  0.82157  1.0000
  H   H41       1.0  0.95962  0.00977  0.7168  1.0000
  H   H42       1.0  0.8911099999999998  0.9672899999999999  0.61971  1.0000
  H   H43       1.0  0.3971799999999999  0.45497  0.17784999999999998  1.0000
  H   H44       1.0  0.45883  0.48933999999999994  0.28254  1.0000
  H   H45       1.0  0.3925699999999999  0.53125  0.38042  1.0000
  H   H46       1.0  0.09979  0.54598  0.67867  1.0000
  H   H47       1.0  0.03942  0.51127  0.78306  1.0000
  H   H48       1.0  0.10727  0.46825  0.87987  1.0000
  H   H49       1.0  0.3206899999999999  0.60258  0.9542199999999998  1.0000
  H   H50       1.0  0.21729  0.54072  0.99062  1.0000
  H   H51       1.0  0.1197  0.6072  0.03268  1.0000
  H   H52       1.0  0.8215699999999999  0.9002  0.04524999999999999  1.0000
  H   H53       1.0  0.7168  0.95962  0.00977  1.0000
  H   H54       1.0  0.61971  0.89111  0.9672799999999999  1.0000
  H   H55       1.0  0.17785  0.39718  0.45496999999999993  1.0000
  H   H56       1.0  0.28254  0.45883  0.4893399999999999  1.0000
  H   H57       1.0  0.38042  0.39256  0.5312499999999999  1.0000
  H   H58       1.0  0.67868  0.09979  0.54598  1.0000
  H   H59       1.0  0.78306  0.03942  0.51128  1.0000
  H   H60       1.0  0.87987  0.10727000000000002  0.46825  1.0000
  H   H61       1.0  0.9542299999999999  0.32069  0.60258  1.0000
  H   H62       1.0  0.9906299999999999  0.21729000000000004  0.54072  1.0000
  H   H63       1.0  0.03268  0.1197  0.6072  1.0000
  H   H64       1.0  0.04525  0.8215700000000001  0.90019  1.0000
  H   H65       1.0  0.009769999999999997  0.7168  0.9596099999999999  1.0000
  H   H66       1.0  0.96729  0.61971  0.89111  1.0000
  H   H67       1.0  0.45496999999999993  0.17785  0.3971799999999999  1.0000
  H   H68       1.0  0.48934  0.28253  0.45883  1.0000
  H   H69       1.0  0.53125  0.38042  0.3925699999999999  1.0000
  H   H70       1.0  0.54598  0.67868  0.09978999999999999  1.0000
  H   H71       1.0  0.51128  0.78306  0.03941999999999999  1.0000
  H   H72       1.0  0.46824999999999994  0.8798699999999999  0.10728  1.0000
  C   C1        1.0  0.25977  0.03766  0.66059  1.0000
  C   C2        1.0  0.30196  0.01969  0.72056  1.0000
  C   C3        1.0  0.37137  0.026199999999999998  0.72246  1.0000
  C   C4        1.0  0.40516  0.00625  0.78  1.0000
  C   C5        1.0  0.36867  0.98316  0.8344699999999999  1.0000
  C   C6        1.0  0.29922  0.98027  0.82934  1.0000
  C   C7        1.0  0.25459  0.9571999999999999  0.8853  1.0000
  C   C8        1.0  0.2372  0.96376  0.15779  1.0000
  C   C9        1.0  0.19619  0.98135  0.21846999999999997  1.0000
  C   C10       1.0  0.12688  0.9743899999999999  0.22136  1.0000
  C   C11       1.0  0.09435999999999999  0.9939099999999998  0.27968  1.0000
  C   C12       1.0  0.13193  0.01724  0.33383  1.0000
  C   C13       1.0  0.20119  0.02081  0.32753999999999994  1.0000
  C   C14       1.0  0.24687999999999996  0.04421  0.38305  1.0000
  C   C15       1.0  0.74026  0.53502  0.8419899999999999  1.0000
  C   C16       1.0  0.69808  0.51841  0.78128  1.0000
  C   C17       1.0  0.62884  0.52566  0.77885  1.0000
  C   C18       1.0  0.59515  0.50683  0.72056  1.0000
  C   C19       1.0  0.63149  0.4838  0.66595  1.0000
  C   C20       1.0  0.70079  0.48006999999999994  0.67175  1.0000
  C   C21       1.0  0.74558  0.45707  0.61595  1.0000
  C   C22       1.0  0.76284  0.46363  0.34154  1.0000
  C   C23       1.0  0.8043399999999999  0.48128  0.28128  1.0000
  C   C24       1.0  0.87357  0.47372999999999993  0.27847  1.0000
  C   C25       1.0  0.9066499999999997  0.4929  0.22045999999999996  1.0000
  C   C26       1.0  0.8695799999999998  0.51651  0.1665  1.0000
  C   C27       1.0  0.80043  0.52061  0.17267999999999997  1.0000
  C   C28       1.0  0.75566  0.54449  0.11720999999999998  1.0000
  C   C29       1.0  0.6606  0.25977  0.03767  1.0000
  C   C30       1.0  0.72056  0.30196  0.01969  1.0000
  C   C31       1.0  0.72247  0.3713699999999999  0.0262  1.0000
  C   C32       1.0  0.78001  0.40516  0.00625  1.0000
  C   C33       1.0  0.8344699999999999  0.36867  0.9831599999999999  1.0000
  C   C34       1.0  0.82934  0.29922  0.98027  1.0000
  C   C35       1.0  0.8852999999999999  0.25459  0.9571999999999999  1.0000
  C   C36       1.0  0.15779  0.2372  0.9637599999999998  1.0000
  C   C37       1.0  0.21845999999999996  0.19619  0.9813499999999998  1.0000
  C   C38       1.0  0.22136  0.12687  0.9743799999999999  1.0000
  C   C39       1.0  0.27968  0.09436  0.9939099999999998  1.0000
  C   C40       1.0  0.33383  0.13193  0.01724  1.0000
  C   C41       1.0  0.32754  0.20118999999999998  0.02081  1.0000
  C   C42       1.0  0.38306  0.24688  0.04421  1.0000
  C   C43       1.0  0.84199  0.74026  0.53502  1.0000
  C   C44       1.0  0.78128  0.69807  0.51842  1.0000
  C   C45       1.0  0.77885  0.62884  0.52566  1.0000
  C   C46       1.0  0.72056  0.59515  0.50683  1.0000
  C   C47       1.0  0.66595  0.63149  0.48379999999999995  1.0000
  C   C48       1.0  0.67175  0.70079  0.48007  1.0000
  C   C49       1.0  0.61595  0.74558  0.45708  1.0000
  C   C50       1.0  0.34154  0.76284  0.46363  1.0000
  C   C51       1.0  0.28128  0.80434  0.48127999999999993  1.0000
  C   C52       1.0  0.27847  0.87357  0.47373  1.0000
  C   C53       1.0  0.22045999999999996  0.90665  0.4929  1.0000
  C   C54       1.0  0.1665  0.86958  0.51651  1.0000
  C   C55       1.0  0.17268  0.80043  0.52061  1.0000
  C   C56       1.0  0.11721  0.75566  0.5444899999999999  1.0000
  C   C57       1.0  0.03766  0.66059  0.25977  1.0000
  C   C58       1.0  0.01969  0.72056  0.30196  1.0000
  C   C59       1.0  0.0262  0.72246  0.37137  1.0000
  C   C60       1.0  0.00625  0.78  0.40516  1.0000
  C   C61       1.0  0.98317  0.83447  0.36867  1.0000
  C   C62       1.0  0.9802699999999999  0.82934  0.29922  1.0000
  C   C63       1.0  0.9572  0.8853  0.25459  1.0000
  C   C64       1.0  0.96376  0.15779  0.23720999999999998  1.0000
  C   C65       1.0  0.9813499999999998  0.21847000000000003  0.19618999999999998  1.0000
  C   C66       1.0  0.9743899999999999  0.22137  0.12688  1.0000
  C   C67       1.0  0.9939099999999998  0.27968  0.09436  1.0000
  C   C68       1.0  0.01724  0.33383  0.13193  1.0000
  C   C69       1.0  0.02081  0.32754  0.20118999999999998  1.0000
  C   C70       1.0  0.04421  0.38306  0.24688  1.0000
  C   C71       1.0  0.53502  0.8419899999999999  0.74026  1.0000
  C   C72       1.0  0.51842  0.78128  0.69807  1.0000
  C   C73       1.0  0.52566  0.77885  0.62884  1.0000
  C   C74       1.0  0.50683  0.72056  0.59515  1.0000
  C   C75       1.0  0.48379999999999995  0.66595  0.63149  1.0000
  C   C76       1.0  0.48007  0.67175  0.70079  1.0000
  C   C77       1.0  0.45707999999999993  0.61595  0.74558  1.0000
  C   C78       1.0  0.46363  0.34154  0.76284  1.0000
  C   C79       1.0  0.48128  0.28128  0.8043399999999999  1.0000
  C   C80       1.0  0.47373  0.27847  0.8735699999999998  1.0000
  C   C81       1.0  0.49289999999999995  0.22046  0.90665  1.0000
  C   C82       1.0  0.51651  0.1665  0.86958  1.0000
  C   C83       1.0  0.52061  0.17268  0.80043  1.0000
  C   C84       1.0  0.54449  0.11721000000000001  0.75566  1.0000
  C   C85       1.0  0.74023  0.96233  0.3394  1.0000
  C   C86       1.0  0.69804  0.9803099999999999  0.27944  1.0000
  C   C87       1.0  0.62863  0.9737999999999999  0.27753999999999995  1.0000
  C   C88       1.0  0.59484  0.99375  0.21999  1.0000
  C   C89       1.0  0.6313299999999998  0.01683  0.16553  1.0000
  C   C90       1.0  0.7007799999999998  0.01973  0.17066  1.0000
  C   C91       1.0  0.74541  0.04279999999999999  0.11469999999999998  1.0000
  C   C92       1.0  0.76279  0.03624  0.84221  1.0000
  C   C93       1.0  0.80381  0.01865  0.78153  1.0000
  C   C94       1.0  0.87312  0.02561  0.77863  1.0000
  C   C95       1.0  0.9056399999999999  0.006089999999999999  0.7203199999999998  1.0000
  C   C96       1.0  0.86807  0.9827599999999999  0.66617  1.0000
  C   C97       1.0  0.7988099999999999  0.97919  0.67246  1.0000
  C   C98       1.0  0.75311  0.95579  0.6169399999999999  1.0000
  C   C99       1.0  0.25974  0.46497999999999995  0.15800999999999998  1.0000
  C   C100      1.0  0.30192  0.48158  0.21872  1.0000
  C   C101      1.0  0.37116  0.47434000000000004  0.22115  1.0000
  C   C102      1.0  0.40485  0.49317  0.27944  1.0000
  C   C103      1.0  0.3685  0.5162  0.33404999999999996  1.0000
  C   C104      1.0  0.2992099999999999  0.51993  0.32825  1.0000
  C   C105      1.0  0.25441  0.54292  0.38404999999999995  1.0000
  C   C106      1.0  0.23716  0.53637  0.65846  1.0000
  C   C107      1.0  0.19566  0.51871  0.7187199999999999  1.0000
  C   C108      1.0  0.12643  0.52626  0.72152  1.0000
  C   C109      1.0  0.09335  0.5071  0.77954  1.0000
  C   C110      1.0  0.13042  0.4834899999999999  0.8335  1.0000
  C   C111      1.0  0.19956999999999997  0.47938  0.82732  1.0000
  C   C112      1.0  0.24434  0.45551  0.88279  1.0000
  C   C113      1.0  0.3394  0.74022  0.9623299999999999  1.0000
  C   C114      1.0  0.27944  0.69804  0.98031  1.0000
  C   C115      1.0  0.27753  0.62863  0.9737899999999999  1.0000
  C   C116      1.0  0.21999  0.59484  0.99374  1.0000
  C   C117      1.0  0.16553  0.63133  0.01683  1.0000
  C   C118      1.0  0.17066  0.70078  0.019729999999999998  1.0000
  C   C119      1.0  0.11469999999999998  0.74541  0.04279999999999999  1.0000
  C   C120      1.0  0.84221  0.76279  0.03624  1.0000
  C   C121      1.0  0.78153  0.8038000000000001  0.01865  1.0000
  C   C122      1.0  0.77863  0.87312  0.025609999999999997  1.0000
  C   C123      1.0  0.72032  0.9056400000000001  0.006089999999999999  1.0000
  C   C124      1.0  0.66617  0.86806  0.9827599999999999  1.0000
  C   C125      1.0  0.67246  0.79881  0.97919  1.0000
  C   C126      1.0  0.61694  0.75311  0.95579  1.0000
  C   C127      1.0  0.15800999999999998  0.25973  0.46498  1.0000
  C   C128      1.0  0.21871999999999997  0.30192  0.48158  1.0000
  C   C129      1.0  0.22115  0.37115  0.47434  1.0000
  C   C130      1.0  0.27944  0.40485  0.49317  1.0000
  C   C131      1.0  0.33405  0.3685  0.51619  1.0000
  C   C132      1.0  0.32824999999999993  0.29921  0.51993  1.0000
  C   C133      1.0  0.38405  0.25441  0.54292  1.0000
  C   C134      1.0  0.65846  0.23716  0.5363699999999999  1.0000
  C   C135      1.0  0.71872  0.19566  0.51872  1.0000
  C   C136      1.0  0.72153  0.12643  0.52626  1.0000
  C   C137      1.0  0.7795399999999999  0.09335  0.5071  1.0000
  C   C138      1.0  0.8335  0.13042  0.48349  1.0000
  C   C139      1.0  0.8273199999999999  0.19957  0.47939  1.0000
  C   C140      1.0  0.88279  0.24434  0.45550999999999997  1.0000
  C   C141      1.0  0.9623399999999998  0.3394  0.74022  1.0000
  C   C142      1.0  0.98031  0.27944  0.6980399999999999  1.0000
  C   C143      1.0  0.9738  0.27753  0.6286299999999999  1.0000
  C   C144      1.0  0.9937499999999999  0.21999  0.59484  1.0000
  C   C145      1.0  0.01683  0.16553  0.6313299999999998  1.0000
  C   C146      1.0  0.01973  0.17066  0.7007799999999998  1.0000
  C   C147      1.0  0.04279999999999999  0.11469  0.74541  1.0000
  C   C148      1.0  0.03624  0.84221  0.7627899999999999  1.0000
  C   C149      1.0  0.018650000000000003  0.78153  0.8038  1.0000
  C   C150      1.0  0.02561  0.77863  0.87312  1.0000
  C   C151      1.0  0.006089999999999999  0.72032  0.9056299999999999  1.0000
  C   C152      1.0  0.98276  0.66617  0.86806  1.0000
  C   C153      1.0  0.97919  0.67246  0.7988099999999999  1.0000
  C   C154      1.0  0.9557899999999999  0.61694  0.7531099999999998  1.0000
  C   C155      1.0  0.46498  0.15801  0.25973999999999997  1.0000
  C   C156      1.0  0.48157999999999995  0.21871999999999997  0.30192  1.0000
  C   C157      1.0  0.47434  0.22114999999999999  0.37115  1.0000
  C   C158      1.0  0.49317  0.27944  0.40484999999999993  1.0000
  C   C159      1.0  0.5162  0.33405  0.3685  1.0000
  C   C160      1.0  0.51993  0.32825  0.29921  1.0000
  C   C161      1.0  0.54292  0.38404999999999995  0.25441  1.0000
  C   C162      1.0  0.53637  0.65846  0.23716  1.0000
  C   C163      1.0  0.5187199999999998  0.71872  0.19566  1.0000
  C   C164      1.0  0.52627  0.72152  0.12643  1.0000
  C   C165      1.0  0.5071  0.77954  0.09335  1.0000
  C   C166      1.0  0.48349  0.8335000000000001  0.13042  1.0000
  C   C167      1.0  0.4793899999999999  0.82732  0.19957  1.0000
  C   C168      1.0  0.45551  0.88279  0.24434  1.0000
  N   N1        1.0  0.26715  0.99697  0.77287  1.0000
  N   N2        1.0  0.23207  0.00426  0.27053999999999995  1.0000
  N   N3        1.0  0.73276  0.49594999999999995  0.72873  1.0000
  N   N4        1.0  0.76897  0.50443  0.22935999999999998  1.0000
  N   N5        1.0  0.77287  0.26714  0.99697  1.0000
  N   N6        1.0  0.27054  0.23206999999999997  0.00426  1.0000
  N   N7        1.0  0.72873  0.73275  0.49594999999999995  1.0000
  N   N8        1.0  0.22935999999999998  0.76896  0.50443  1.0000
  N   N9        1.0  0.9969699999999999  0.77287  0.26715  1.0000
  N   N10       1.0  0.00426  0.27054  0.23207  1.0000
  N   N11       1.0  0.49594999999999995  0.72873  0.73275  1.0000
  N   N12       1.0  0.50443  0.22935999999999998  0.76896  1.0000
  N   N13       1.0  0.73285  0.00303  0.22713  1.0000
  N   N14       1.0  0.76793  0.9957400000000001  0.72946  1.0000
  N   N15       1.0  0.26724  0.50405  0.27125999999999995  1.0000
  N   N16       1.0  0.23102999999999999  0.49557  0.7706399999999999  1.0000
  N   N17       1.0  0.22712999999999997  0.73285  0.0030299999999999997  1.0000
  N   N18       1.0  0.72946  0.76793  0.9957399999999998  1.0000
  N   N19       1.0  0.27126  0.26724  0.50405  1.0000
  N   N20       1.0  0.7706399999999999  0.23103  0.49557  1.0000
  N   N21       1.0  0.00303  0.22713  0.73285  1.0000
  N   N22       1.0  0.9957399999999998  0.72946  0.76793  1.0000
  N   N23       1.0  0.50405  0.27125999999999995  0.2672399999999999  1.0000
  N   N24       1.0  0.4955699999999999  0.77064  0.23102999999999999  1.0000
  O   O1        1.0  0.28625999999999996  0.07733  0.6190599999999999  1.0000
  O   O2        1.0  0.20145999999999997  0.01332  0.65712  1.0000
  O   O3        1.0  0.2832299999999999  0.9394399999999999  0.93905  1.0000
  O   O4        1.0  0.19198  0.9566299999999999  0.87532  1.0000
  O   O5        1.0  0.20902999999999997  0.92635  0.11459  1.0000
  O   O6        1.0  0.2963  0.98636  0.15531  1.0000
  O   O7        1.0  0.219  0.06338  0.43666999999999995  1.0000
  O   O8        1.0  0.30936  0.04353  0.37303  1.0000
  O   O9        1.0  0.71377  0.57246  0.88563  1.0000
  O   O10       1.0  0.79872  0.5115  0.84422  1.0000
  O   O11       1.0  0.7172599999999999  0.43784  0.56228  1.0000
  O   O12       1.0  0.8081199999999998  0.45801  0.62627  1.0000
  O   O13       1.0  0.79086  0.42737  0.38514999999999994  1.0000
  O   O14       1.0  0.70345  0.48499000000000003  0.34324  1.0000
  O   O15       1.0  0.78417  0.56233  0.06363  1.0000
  O   O16       1.0  0.69327  0.54558  0.12766  1.0000
  O   O17       1.0  0.61906  0.28626  0.07733  1.0000
  O   O18       1.0  0.65712  0.20145999999999997  0.01332  1.0000
  O   O19       1.0  0.9390499999999999  0.28323  0.9394399999999999  1.0000
  O   O20       1.0  0.87532  0.19198  0.9566299999999998  1.0000
  O   O21       1.0  0.11459  0.20903  0.9263399999999998  1.0000
  O   O22       1.0  0.15529999999999997  0.2963  0.98636  1.0000
  O   O23       1.0  0.43668  0.219  0.06338  1.0000
  O   O24       1.0  0.37303  0.30935999999999997  0.04353  1.0000
  O   O25       1.0  0.88563  0.71377  0.57246  1.0000
  O   O26       1.0  0.84423  0.79872  0.5115  1.0000
  O   O27       1.0  0.56228  0.71725  0.4378399999999999  1.0000
  O   O28       1.0  0.6262699999999999  0.80812  0.45801  1.0000
  O   O29       1.0  0.38515  0.79086  0.42736999999999997  1.0000
  O   O30       1.0  0.34324  0.70344  0.48499  1.0000
  O   O31       1.0  0.06361999999999998  0.78417  0.56232  1.0000
  O   O32       1.0  0.12766  0.69327  0.54558  1.0000
  O   O33       1.0  0.07733  0.61906  0.28626  1.0000
  O   O34       1.0  0.013319999999999999  0.65712  0.20145999999999997  1.0000
  O   O35       1.0  0.93945  0.9390499999999999  0.28323  1.0000
  O   O36       1.0  0.95663  0.8753199999999999  0.19198  1.0000
  O   O37       1.0  0.92635  0.11459  0.20903999999999998  1.0000
  O   O38       1.0  0.9863599999999998  0.1553  0.2963  1.0000
  O   O39       1.0  0.06338  0.43667999999999996  0.219  1.0000
  O   O40       1.0  0.04353  0.37303  0.30935999999999997  1.0000
  O   O41       1.0  0.57246  0.8856299999999999  0.71377  1.0000
  O   O42       1.0  0.5115  0.84422  0.79872  1.0000
  O   O43       1.0  0.43783999999999995  0.56228  0.71725  1.0000
  O   O44       1.0  0.45801  0.62627  0.80812  1.0000
  O   O45       1.0  0.42736999999999997  0.38513999999999987  0.79086  1.0000
  O   O46       1.0  0.48499  0.34324  0.70344  1.0000
  O   O47       1.0  0.56233  0.06362  0.78417  1.0000
  O   O48       1.0  0.54558  0.12766  0.69327  1.0000
  O   O49       1.0  0.71374  0.92267  0.38094  1.0000
  O   O50       1.0  0.79854  0.98668  0.34288  1.0000
  O   O51       1.0  0.7167699999999999  0.06055  0.06095  1.0000
  O   O52       1.0  0.8080199999999998  0.04336  0.12468  1.0000
  O   O53       1.0  0.79096  0.07364999999999998  0.8854099999999999  1.0000
  O   O54       1.0  0.7037  0.01364  0.8446899999999999  1.0000
  O   O55       1.0  0.781  0.9366199999999999  0.56332  1.0000
  O   O56       1.0  0.69064  0.95647  0.62697  1.0000
  O   O57       1.0  0.28623  0.42754000000000003  0.11437  1.0000
  O   O58       1.0  0.20128  0.48849  0.15577  1.0000
  O   O59       1.0  0.28274  0.56215  0.43772  1.0000
  O   O60       1.0  0.19187  0.54199  0.37373  1.0000
  O   O61       1.0  0.20914  0.57263  0.61485  1.0000
  O   O62       1.0  0.29655  0.51501  0.65676  1.0000
  O   O63       1.0  0.21583  0.43767  0.9363699999999999  1.0000
  O   O64       1.0  0.30672999999999995  0.45442000000000005  0.87234  1.0000
  O   O65       1.0  0.38093  0.71374  0.92267  1.0000
  O   O66       1.0  0.34287  0.7985299999999999  0.98668  1.0000
  O   O67       1.0  0.06094  0.7167699999999999  0.06054999999999999  1.0000
  O   O68       1.0  0.12468  0.80802  0.04337  1.0000
  O   O69       1.0  0.88541  0.79096  0.07365  1.0000
  O   O70       1.0  0.8446999999999999  0.7037  0.013639999999999998  1.0000
  O   O71       1.0  0.56332  0.781  0.93662  1.0000
  O   O72       1.0  0.6269699999999999  0.69064  0.95647  1.0000
  O   O73       1.0  0.11436999999999999  0.28623  0.42753999999999986  1.0000
  O   O74       1.0  0.15577  0.20128  0.48849  1.0000
  O   O75       1.0  0.43772  0.28274  0.56215  1.0000
  O   O76       1.0  0.37373  0.19187  0.5419899999999999  1.0000
  O   O77       1.0  0.61485  0.20913999999999996  0.57263  1.0000
  O   O78       1.0  0.65676  0.29655  0.5150099999999999  1.0000
  O   O79       1.0  0.9363799999999999  0.21583  0.43767  1.0000
  O   O80       1.0  0.8723399999999999  0.30673  0.45441999999999994  1.0000
  O   O81       1.0  0.9226699999999999  0.38093  0.71374  1.0000
  O   O82       1.0  0.98668  0.34287  0.79853  1.0000
  O   O83       1.0  0.06054999999999999  0.060939999999999994  0.71676  1.0000
  O   O84       1.0  0.04336  0.12468  0.80802  1.0000
  O   O85       1.0  0.07365  0.88541  0.79096  1.0000
  O   O86       1.0  0.013639999999999996  0.84469  0.7036999999999999  1.0000
  O   O87       1.0  0.9366199999999999  0.56332  0.7809999999999999  1.0000
  O   O88       1.0  0.95647  0.62697  0.6906399999999999  1.0000
  O   O89       1.0  0.42754  0.11437000000000001  0.28623  1.0000
  O   O90       1.0  0.4884899999999999  0.15577  0.20128  1.0000
  O   O91       1.0  0.56215  0.43772  0.28273999999999994  1.0000
  O   O92       1.0  0.54199  0.37373  0.19188  1.0000
  O   O93       1.0  0.57263  0.61485  0.20914  1.0000
  O   O94       1.0  0.51501  0.65676  0.29655  1.0000
  O   O95       1.0  0.43766999999999995  0.9363700000000001  0.21583  1.0000
  O   O96       1.0  0.45442  0.87234  0.30673  1.0000
