data_image0
_chemical_formula_structural       Zn16H64C96N48O32
_chemical_formula_sum              "Zn16 H64 C96 N48 O32"
_cell_length_a       13.59619
_cell_length_b       13.89376
_cell_length_c       26.74435
_cell_angle_alpha    90.0
_cell_angle_beta     90.0
_cell_angle_gamma    94.15559

_space_group_name_H-M_alt    "P 1"
_space_group_IT_number       1

loop_
  _space_group_symop_operation_xyz
  'x, y, z'

loop_
  _atom_site_type_symbol
  _atom_site_label
  _atom_site_symmetry_multiplicity
  _atom_site_fract_x
  _atom_site_fract_y
  _atom_site_fract_z
  _atom_site_occupancy
  Zn  Zn1       1.0  0.23118000000000005  0.86883  0.9733899999999999  1.0000
  Zn  Zn2       1.0  0.63361  0.74497  0.94325  1.0000
  Zn  Zn3       1.0  0.26363000000000003  0.66931  0.0718  1.0000
  Zn  Zn4       1.0  0.16915  0.28731  0.9584799999999999  1.0000
  Zn  Zn5       1.0  0.26881000000000005  0.63116  0.47339  1.0000
  Zn  Zn6       1.0  0.8664  0.75502  0.4432599999999999  1.0000
  Zn  Zn7       1.0  0.23637  0.83069  0.5718  1.0000
  Zn  Zn8       1.0  0.33085  0.21268  0.45848  1.0000
  Zn  Zn9       1.0  0.76881  0.13116  0.02661  1.0000
  Zn  Zn10      1.0  0.36639  0.25503  0.05675  1.0000
  Zn  Zn11      1.0  0.73636  0.33069  0.9282  1.0000
  Zn  Zn12      1.0  0.8308500000000002  0.71268  0.04152  1.0000
  Zn  Zn13      1.0  0.7311800000000003  0.36883  0.52661  1.0000
  Zn  Zn14      1.0  0.13360000000000002  0.24497  0.55674  1.0000
  Zn  Zn15      1.0  0.7636300000000003  0.16931  0.4282  1.0000
  Zn  Zn16      1.0  0.6691400000000002  0.78731  0.54152  1.0000
  H   H1        1.0  0.031200000000000012  0.64043  0.08788  1.0000
  H   H2        1.0  0.6351700000000002  0.5263  0.9032  1.0000
  H   H3        1.0  0.8271400000000001  0.47959  0.02275  1.0000
  H   H4        1.0  0.49597  0.65944  0.04449999999999999  1.0000
  H   H5        1.0  0.32153  0.02441  0.06441  1.0000
  H   H6        1.0  0.14274000000000003  0.06007000000000001  0.9374699999999999  1.0000
  H   H7        1.0  0.4493700000000001  0.8654  0.93321  1.0000
  H   H8        1.0  0.0011200000000000003  0.80735  0.9575499999999998  1.0000
  H   H9        1.0  0.59871  0.6407200000000002  0.79253  1.0000
  H   H10       1.0  0.37969000000000014  0.87911  0.73201  1.0000
  H   H11       1.0  0.6161  0.63082  0.69939  1.0000
  H   H12       1.0  0.36161  0.89195  0.8249299999999998  1.0000
  H   H13       1.0  0.06572000000000001  0.8836  0.7151799999999999  1.0000
  H   H14       1.0  0.6064400000000002  0.9496500000000002  0.78333  1.0000
  H   H15       1.0  0.048050000000000016  0.89971  0.8085399999999998  1.0000
  H   H16       1.0  0.63133  0.94014  0.6901999999999999  1.0000
  H   H17       1.0  0.4688000000000001  0.85957  0.58788  1.0000
  H   H18       1.0  0.8648300000000002  0.9737000000000001  0.4032  1.0000
  H   H19       1.0  0.67286  0.0204  0.52274  1.0000
  H   H20       1.0  0.004029999999999999  0.84056  0.5445  1.0000
  H   H21       1.0  0.17847000000000005  0.4755900000000001  0.56441  1.0000
  H   H22       1.0  0.35726  0.43992000000000003  0.43747  1.0000
  H   H23       1.0  0.05062  0.63459  0.43320999999999993  1.0000
  H   H24       1.0  0.4988700000000001  0.69264  0.45755  1.0000
  H   H25       1.0  0.9012900000000003  0.8592700000000001  0.29254  1.0000
  H   H26       1.0  0.1203  0.62089  0.23201  1.0000
  H   H27       1.0  0.8838900000000002  0.86917  0.19938999999999996  1.0000
  H   H28       1.0  0.13839000000000007  0.6080400000000002  0.32493  1.0000
  H   H29       1.0  0.43428  0.6164  0.21518  1.0000
  H   H30       1.0  0.8935500000000002  0.55034  0.28333  1.0000
  H   H31       1.0  0.45195000000000013  0.6002800000000001  0.30854  1.0000
  H   H32       1.0  0.8686700000000003  0.55985  0.19021  1.0000
  H   H33       1.0  0.9688000000000002  0.35957000000000006  0.91212  1.0000
  H   H34       1.0  0.36483  0.4737  0.09679999999999998  1.0000
  H   H35       1.0  0.17286  0.5204  0.97725  1.0000
  H   H36       1.0  0.5040300000000001  0.34056  0.9554999999999999  1.0000
  H   H37       1.0  0.67847  0.97559  0.9355899999999998  1.0000
  H   H38       1.0  0.8572600000000002  0.93992  0.06253  1.0000
  H   H39       1.0  0.5506200000000002  0.13459  0.06679  1.0000
  H   H40       1.0  0.9988700000000001  0.19264  0.04244999999999999  1.0000
  H   H41       1.0  0.4012900000000001  0.35927  0.20747  1.0000
  H   H42       1.0  0.6203000000000002  0.12089000000000003  0.26799  1.0000
  H   H43       1.0  0.3839  0.36917  0.30060999999999993  1.0000
  H   H44       1.0  0.63839  0.10804  0.17507  1.0000
  H   H45       1.0  0.9342800000000002  0.11640000000000003  0.28482  1.0000
  H   H46       1.0  0.39355  0.05034000000000002  0.21667  1.0000
  H   H47       1.0  0.9519500000000001  0.10029000000000003  0.19146  1.0000
  H   H48       1.0  0.36867  0.059850000000000014  0.3098  1.0000
  H   H49       1.0  0.53119  0.14043  0.41211999999999993  1.0000
  H   H50       1.0  0.13517  0.0263  0.5968  1.0000
  H   H51       1.0  0.32714  0.9795900000000002  0.47725  1.0000
  H   H52       1.0  0.9959600000000002  0.15944000000000003  0.4555  1.0000
  H   H53       1.0  0.8215300000000001  0.52441  0.4355899999999999  1.0000
  H   H54       1.0  0.6427400000000002  0.56007  0.56253  1.0000
  H   H55       1.0  0.94937  0.3654  0.56679  1.0000
  H   H56       1.0  0.50113  0.30736  0.54245  1.0000
  H   H57       1.0  0.09871  0.14072  0.70746  1.0000
  H   H58       1.0  0.8796900000000001  0.3791100000000001  0.76799  1.0000
  H   H59       1.0  0.1161  0.13082  0.80061  1.0000
  H   H60       1.0  0.8616100000000001  0.3919600000000001  0.6750699999999997  1.0000
  H   H61       1.0  0.5657200000000001  0.38360000000000005  0.78482  1.0000
  H   H62       1.0  0.10645000000000003  0.4496500000000001  0.71667  1.0000
  H   H63       1.0  0.54805  0.39971  0.6914599999999997  1.0000
  H   H64       1.0  0.13133  0.44014  0.80979  1.0000
  C   C1        1.0  0.20343000000000006  0.89565  0.82217  1.0000
  C   C2        1.0  0.046570000000000014  0.6846800000000002  0.055019999999999986  1.0000
  C   C3        1.0  0.6802  0.53657  0.9365399999999998  1.0000
  C   C4        1.0  0.7784800000000002  0.51293  0.9968899999999999  1.0000
  C   C5        1.0  0.4633  0.7132600000000002  0.021809999999999996  1.0000
  C   C6        1.0  0.22364000000000003  0.88034  0.71821  1.0000
  C   C7        1.0  0.27901  0.05476000000000001  0.03471  1.0000
  C   C8        1.0  0.18808000000000005  0.07408  0.97041  1.0000
  C   C9        1.0  0.4395900000000001  0.8189800000000003  0.96574  1.0000
  C   C10       1.0  0.23461000000000004  0.86493  0.66347  1.0000
  C   C11       1.0  0.03029000000000001  0.7697400000000001  0.98921  1.0000
  C   C12       1.0  0.6018700000000001  0.7959200000000002  0.79338  1.0000
  C   C13       1.0  0.62575  0.78489  0.68954  1.0000
  C   C14       1.0  0.59733  0.8022000000000001  0.8492199999999999  1.0000
  C   C15       1.0  0.6418900000000001  0.77621  0.63472  1.0000
  C   C16       1.0  0.6042  0.70573  0.76982  1.0000
  C   C17       1.0  0.3075200000000001  0.8840900000000003  0.74902  1.0000
  C   C18       1.0  0.61459  0.7001100000000001  0.71821  1.0000
  C   C19       1.0  0.29737000000000013  0.89119  0.80067  1.0000
  C   C20       1.0  0.12989  0.8870200000000003  0.7395499999999999  1.0000
  C   C21       1.0  0.6092600000000002  0.88052  0.76449  1.0000
  C   C22       1.0  0.11999000000000003  0.89541  0.79122  1.0000
  C   C23       1.0  0.19163000000000002  0.8946400000000002  0.87784  1.0000
  C   C24       1.0  0.6226  0.87514  0.71288  1.0000
  C   C25       1.0  0.2965700000000001  0.60434  0.32217  1.0000
  C   C26       1.0  0.45343  0.81531  0.55502  1.0000
  C   C27       1.0  0.81979  0.96342  0.43654  1.0000
  C   C28       1.0  0.72152  0.98706  0.49689  1.0000
  C   C29       1.0  0.03670000000000002  0.78673  0.52181  1.0000
  C   C30       1.0  0.27635000000000004  0.6196500000000003  0.21821  1.0000
  C   C31       1.0  0.22098000000000007  0.44524000000000014  0.53471  1.0000
  C   C32       1.0  0.31192000000000003  0.42592  0.47041  1.0000
  C   C33       1.0  0.060400000000000016  0.68101  0.46575  1.0000
  C   C34       1.0  0.26538000000000006  0.63506  0.16347  1.0000
  C   C35       1.0  0.46971000000000007  0.7302500000000002  0.48920999999999987  1.0000
  C   C36       1.0  0.89813  0.7040700000000001  0.29339  1.0000
  C   C37       1.0  0.8742400000000002  0.7151000000000002  0.18954  1.0000
  C   C38       1.0  0.9026900000000002  0.69779  0.34923  1.0000
  C   C39       1.0  0.8581000000000002  0.7237800000000002  0.13473  1.0000
  C   C40       1.0  0.89579  0.79427  0.26982  1.0000
  C   C41       1.0  0.19247  0.6159  0.24902  1.0000
  C   C42       1.0  0.8854  0.79988  0.21821  1.0000
  C   C43       1.0  0.20263  0.60881  0.30066999999999994  1.0000
  C   C44       1.0  0.3701  0.6129800000000002  0.23954999999999996  1.0000
  C   C45       1.0  0.89074  0.61947  0.26449  1.0000
  C   C46       1.0  0.38001  0.6045800000000002  0.29122  1.0000
  C   C47       1.0  0.3083700000000001  0.6053600000000002  0.37783999999999995  1.0000
  C   C48       1.0  0.8774000000000002  0.62485  0.21288  1.0000
  C   C49       1.0  0.79657  0.10434000000000003  0.17783  1.0000
  C   C50       1.0  0.9534300000000002  0.3153100000000001  0.94498  1.0000
  C   C51       1.0  0.3198000000000001  0.46343  0.06346  1.0000
  C   C52       1.0  0.22152  0.48707  0.0031099999999999995  1.0000
  C   C53       1.0  0.5367000000000001  0.28673  0.97819  1.0000
  C   C54       1.0  0.77635  0.11965  0.28179  1.0000
  C   C55       1.0  0.7209800000000001  0.9452300000000001  0.9652899999999998  1.0000
  C   C56       1.0  0.8119100000000001  0.9259200000000002  0.02959  1.0000
  C   C57       1.0  0.5604  0.18101  0.03426  1.0000
  C   C58       1.0  0.7653800000000002  0.13506000000000004  0.33652999999999994  1.0000
  C   C59       1.0  0.9697000000000001  0.23025  0.01079  1.0000
  C   C60       1.0  0.39812000000000003  0.20407  0.20662  1.0000
  C   C61       1.0  0.37424  0.2151  0.31046  1.0000
  C   C62       1.0  0.4026600000000001  0.1978  0.15078  1.0000
  C   C63       1.0  0.35810000000000003  0.22378  0.3652799999999999  1.0000
  C   C64       1.0  0.39579  0.29427  0.23017999999999994  1.0000
  C   C65       1.0  0.6924700000000003  0.1159  0.25098  1.0000
  C   C66       1.0  0.3854  0.29988  0.28179  1.0000
  C   C67       1.0  0.7026300000000001  0.10881  0.19933  1.0000
  C   C68       1.0  0.8701000000000001  0.11298000000000001  0.26045  1.0000
  C   C69       1.0  0.3907400000000001  0.11947000000000003  0.23551  1.0000
  C   C70       1.0  0.8800100000000002  0.10458000000000002  0.20877999999999997  1.0000
  C   C71       1.0  0.8083700000000003  0.10536  0.12215999999999999  1.0000
  C   C72       1.0  0.3774  0.12485  0.28712  1.0000
  C   C73       1.0  0.7034300000000002  0.39565  0.67783  1.0000
  C   C74       1.0  0.5465700000000001  0.18468  0.44498  1.0000
  C   C75       1.0  0.18020000000000003  0.03657  0.5634599999999998  1.0000
  C   C76       1.0  0.27848000000000006  0.012930000000000004  0.50311  1.0000
  C   C77       1.0  0.9632900000000001  0.21327000000000004  0.47819  1.0000
  C   C78       1.0  0.7236400000000002  0.38034  0.78179  1.0000
  C   C79       1.0  0.77901  0.55476  0.46527999999999997  1.0000
  C   C80       1.0  0.6880800000000002  0.57408  0.52959  1.0000
  C   C81       1.0  0.9395900000000003  0.31899  0.53425  1.0000
  C   C82       1.0  0.73461  0.3649300000000001  0.83653  1.0000
  C   C83       1.0  0.53029  0.26974  0.51079  1.0000
  C   C84       1.0  0.10187000000000003  0.29592  0.7066099999999998  1.0000
  C   C85       1.0  0.12576  0.28489  0.81046  1.0000
  C   C86       1.0  0.09731000000000002  0.30221  0.65077  1.0000
  C   C87       1.0  0.1419  0.27621  0.8652699999999998  1.0000
  C   C88       1.0  0.10420000000000003  0.20573  0.73018  1.0000
  C   C89       1.0  0.80752  0.3840900000000001  0.7509799999999999  1.0000
  C   C90       1.0  0.11460000000000001  0.20012  0.78179  1.0000
  C   C91       1.0  0.79737  0.39119000000000004  0.69933  1.0000
  C   C92       1.0  0.6298900000000002  0.3870200000000001  0.76045  1.0000
  C   C93       1.0  0.10926000000000001  0.38052000000000014  0.73551  1.0000
  C   C94       1.0  0.61999  0.39541  0.7087799999999999  1.0000
  C   C95       1.0  0.69163  0.3946400000000001  0.62216  1.0000
  C   C96       1.0  0.12260000000000003  0.37514  0.7871199999999999  1.0000
  N   N1        1.0  0.507  0.7586  0.9817799999999999  1.0000
  N   N2        1.0  0.22600000000000003  0.00495  0.99899  1.0000
  N   N3        1.0  0.7321300000000002  0.4675800000000001  0.9576899999999998  1.0000
  N   N4        1.0  0.37373000000000006  0.7433  0.030199999999999998  1.0000
  N   N5        1.0  0.13718  0.71851  0.04186999999999999  1.0000
  N   N6        1.0  0.6931600000000001  0.61978  0.96137  1.0000
  N   N7        1.0  0.35893000000000014  0.8114400000000003  0.9941999999999998  1.0000
  N   N8        1.0  0.27371  0.14957  0.02894  1.0000
  N   N9        1.0  0.21571000000000007  0.1621  0.98747  1.0000
  N   N10       1.0  0.9776200000000003  0.71452  0.02295  1.0000
  N   N11       1.0  0.7567400000000002  0.6049400000000001  0.00014  1.0000
  N   N12       1.0  0.12656000000000006  0.7732900000000003  0.99946  1.0000
  N   N13       1.0  0.9930000000000002  0.7413900000000002  0.48178  1.0000
  N   N14       1.0  0.2740000000000001  0.49504000000000004  0.499  1.0000
  N   N15       1.0  0.7678700000000003  0.03241  0.45769  1.0000
  N   N16       1.0  0.12627  0.7567  0.5302  1.0000
  N   N17       1.0  0.36282000000000003  0.78148  0.54187  1.0000
  N   N18       1.0  0.80684  0.8802100000000003  0.46136999999999995  1.0000
  N   N19       1.0  0.14108  0.68855  0.4942  1.0000
  N   N20       1.0  0.22629000000000002  0.35043  0.52894  1.0000
  N   N21       1.0  0.28429  0.33789000000000013  0.48747  1.0000
  N   N22       1.0  0.52237  0.78547  0.52295  1.0000
  N   N23       1.0  0.7432600000000001  0.8950500000000001  0.50014  1.0000
  N   N24       1.0  0.3734300000000001  0.7267  0.4994599999999999  1.0000
  N   N25       1.0  0.49300000000000005  0.2414  0.018219999999999997  1.0000
  N   N26       1.0  0.7740000000000001  0.99504  0.001  1.0000
  N   N27       1.0  0.26787  0.53241  0.04231  1.0000
  N   N28       1.0  0.62626  0.2567  0.9698  1.0000
  N   N29       1.0  0.8628200000000001  0.28149  0.95813  1.0000
  N   N30       1.0  0.3068400000000001  0.38021000000000005  0.038629999999999984  1.0000
  N   N31       1.0  0.64107  0.18855000000000005  0.0058  1.0000
  N   N32       1.0  0.7262900000000002  0.8504300000000002  0.9710599999999999  1.0000
  N   N33       1.0  0.7842900000000003  0.83789  0.01253  1.0000
  N   N34       1.0  0.022380000000000008  0.28547  0.97705  1.0000
  N   N35       1.0  0.24326000000000006  0.39505  0.99986  1.0000
  N   N36       1.0  0.87343  0.2267  0.00054  1.0000
  N   N37       1.0  0.007000000000000003  0.2586  0.5182099999999998  1.0000
  N   N38       1.0  0.726  0.5049600000000001  0.501  1.0000
  N   N39       1.0  0.23212000000000005  0.96758  0.54231  1.0000
  N   N40       1.0  0.87373  0.24330000000000004  0.4697999999999999  1.0000
  N   N41       1.0  0.63718  0.21851000000000007  0.4581299999999999  1.0000
  N   N42       1.0  0.19316  0.11979000000000001  0.53863  1.0000
  N   N43       1.0  0.8589200000000002  0.31144  0.5058  1.0000
  N   N44       1.0  0.77371  0.64956  0.47106  1.0000
  N   N45       1.0  0.71571  0.6621000000000002  0.51253  1.0000
  N   N46       1.0  0.4776200000000001  0.21452  0.47705  1.0000
  N   N47       1.0  0.2567400000000001  0.10494000000000003  0.49986  1.0000
  N   N48       1.0  0.6265600000000002  0.27329  0.50054  1.0000
  O   O1        1.0  0.2721200000000001  0.8851200000000002  0.90337  1.0000
  O   O2        1.0  0.6139800000000002  0.7219300000000001  0.8725399999999998  1.0000
  O   O3        1.0  0.15629000000000007  0.8482800000000003  0.6362899999999998  1.0000
  O   O4        1.0  0.3196  0.86612  0.6435  1.0000
  O   O5        1.0  0.6694900000000003  0.8531400000000002  0.60901  1.0000
  O   O6        1.0  0.5818400000000001  0.87914  0.87137  1.0000
  O   O7        1.0  0.6286200000000001  0.6950000000000001  0.6135199999999997  1.0000
  O   O8        1.0  0.10918000000000003  0.89993  0.89865  1.0000
  O   O9        1.0  0.22788000000000003  0.6148800000000002  0.40337  1.0000
  O   O10       1.0  0.8860700000000001  0.7780600000000002  0.37255  1.0000
  O   O11       1.0  0.3437100000000001  0.65171  0.13629  1.0000
  O   O12       1.0  0.18039000000000005  0.63387  0.1435  1.0000
  O   O13       1.0  0.83051  0.6468600000000002  0.10901  1.0000
  O   O14       1.0  0.91814  0.6208200000000001  0.37137  1.0000
  O   O15       1.0  0.8713700000000002  0.8049900000000001  0.11351999999999997  1.0000
  O   O16       1.0  0.39082  0.6000600000000003  0.39865  1.0000
  O   O17       1.0  0.72788  0.11488  0.09663  1.0000
  O   O18       1.0  0.3860200000000001  0.27806  0.12746  1.0000
  O   O19       1.0  0.8437100000000001  0.15172  0.3637099999999999  1.0000
  O   O20       1.0  0.6803900000000003  0.13388  0.3565  1.0000
  O   O21       1.0  0.33051  0.14686000000000002  0.3909899999999999  1.0000
  O   O22       1.0  0.41816  0.12085  0.12863  1.0000
  O   O23       1.0  0.37137000000000003  0.30499  0.38647999999999993  1.0000
  O   O24       1.0  0.8908200000000002  0.10006  0.10135  1.0000
  O   O25       1.0  0.7721200000000003  0.38512  0.59663  1.0000
  O   O26       1.0  0.11393000000000003  0.22194  0.62745  1.0000
  O   O27       1.0  0.65629  0.34828  0.8637099999999998  1.0000
  O   O28       1.0  0.8196000000000001  0.36612  0.85649  1.0000
  O   O29       1.0  0.16949000000000003  0.3531400000000001  0.89099  1.0000
  O   O30       1.0  0.08185000000000003  0.37917  0.6286299999999999  1.0000
  O   O31       1.0  0.12863  0.195  0.8864799999999998  1.0000
  O   O32       1.0  0.60918  0.39994  0.60135  1.0000
