data_image0
_chemical_formula_structural       Cu8H80C132N4O40
_chemical_formula_sum              "Cu8 H80 C132 N4 O40"
_cell_length_a       15.85436
_cell_length_b       18.14689
_cell_length_c       19.85487
_cell_angle_alpha    65.22962
_cell_angle_beta     66.40913
_cell_angle_gamma    63.95303

_symmetry_space_group_name_H-M    'P 1'
_symmetry_Int_Tables_number       1

loop_
  _symmetry_equiv_pos_as_xyz
  'x,y,z'

loop_
  _atom_site_type_symbol
  _atom_site_label
  _atom_site_symmetry_multiplicity
  _atom_site_fract_x
  _atom_site_fract_y
  _atom_site_fract_z
  _atom_site_occupancy
  Cu  Cu1       1.0  0.94494  0.05111000000000002  0.54117  1.0000
  Cu  Cu2       1.0  0.48932  0.5676  0.44892  1.0000
  Cu  Cu3       1.0  0.53798  0.4489099999999999  0.9589700000000001  1.0000
  Cu  Cu4       1.0  0.5063500000000003  0.9323  0.05062  1.0000
  Cu  Cu5       1.0  0.05505999999999993  0.9488900000000001  0.45883  1.0000
  Cu  Cu6       1.0  0.51068  0.4324  0.55107  1.0000
  Cu  Cu7       1.0  0.4620200000000002  0.55109  0.04102  1.0000
  Cu  Cu8       1.0  0.49364999999999987  0.0677  0.94937  1.0000
  H   H1        1.0  0.38711999999999996  0.16217  0.24296  1.0000
  H   H2        1.0  0.56997  0.25381  0.36651  1.0000
  H   H3        1.0  0.27622  0.07356999999999998  0.30148  1.0000
  H   H4        1.0  0.7583100000000003  0.07156999999999994  0.23962  1.0000
  H   H5        1.0  0.5804999999999999  0.9724200000000001  0.21761  1.0000
  H   H6        1.0  0.8817  0.022739999999999996  0.30966  1.0000
  H   H7        1.0  0.3917999999999999  0.30284000000000005  0.49343  1.0000
  H   H8        1.0  0.3518  0.23511  0.42864  1.0000
  H   H9        1.0  0.52628  0.22143  0.0498  1.0000
  H   H10       1.0  0.08105999999999995  0.23565  0.44562000000000007  1.0000
  H   H11       1.0  0.54976  0.2803099999999999  0.1306  1.0000
  H   H12       1.0  0.40052000000000004  0.4338  0.21602  1.0000
  H   H13       1.0  0.6058500000000004  0.03175999999999998  0.29859  1.0000
  H   H14       1.0  0.4384499999999999  0.50276  0.28147  1.0000
  H   H15       1.0  0.9175599999999999  0.17201  0.7471100000000002  1.0000
  H   H16       1.0  0.6943000000000004  0.20354000000000003  0.43752  1.0000
  H   H17       1.0  0.19063000000000002  0.3248  0.38723  1.0000
  H   H18       1.0  0.9973  0.09174999999999998  0.64827  1.0000
  H   H19       1.0  0.7440900000000001  0.1845399999999999  0.5832  1.0000
  H   H20       1.0  0.65385  0.27215999999999996  0.67655  1.0000
  H   H21       1.0  0.7918799999999999  0.33759000000000006  0.25789  1.0000
  H   H22       1.0  0.19070999999999996  0.24695  0.13266  1.0000
  H   H23       1.0  0.6506300000000004  0.42652999999999996  0.19934  1.0000
  H   H24       1.0  0.06868999999999995  0.42816  0.26063000000000003  1.0000
  H   H25       1.0  0.7701200000000002  0.5286599999999998  0.28196  1.0000
  H   H26       1.0  0.21359999999999998  0.47683999999999993  0.19103  1.0000
  H   H27       1.0  0.18791  0.19732  0.00695  1.0000
  H   H28       1.0  0.015010000000000037  0.2654799999999999  0.07235  1.0000
  H   H29       1.0  0.7972500000000005  0.28004  0.45005  1.0000
  H   H30       1.0  0.76155  0.26364  0.05608  1.0000
  H   H31       1.0  0.96044  0.22020999999999993  0.3688  1.0000
  H   H32       1.0  0.05093000000000006  0.06553  0.28436  1.0000
  H   H33       1.0  0.9360100000000002  0.46854000000000007  0.20042  1.0000
  H   H34       1.0  0.22357999999999995  0.99624  0.21796  1.0000
  H   H35       1.0  0.8369300000000003  0.32786  0.75256  1.0000
  H   H36       1.0  0.33564000000000016  0.29725  0.061970000000000004  1.0000
  H   H37       1.0  0.9022499999999999  0.17435  0.11444  1.0000
  H   H38       1.0  0.73775  0.40759  0.85178  1.0000
  H   H39       1.0  0.5120600000000005  0.31538999999999984  0.91704  1.0000
  H   H40       1.0  0.6029299999999999  0.22799  0.82359  1.0000
  H   H41       1.0  0.6128800000000001  0.83783  0.75704  1.0000
  H   H42       1.0  0.43003000000000013  0.74619  0.63349  1.0000
  H   H43       1.0  0.7237799999999998  0.92643  0.69852  1.0000
  H   H44       1.0  0.24168999999999988  0.9284300000000001  0.76037  1.0000
  H   H45       1.0  0.4195  0.027579999999999952  0.78239  1.0000
  H   H46       1.0  0.11830000000000013  0.9772599999999997  0.69034  1.0000
  H   H47       1.0  0.6082  0.6971700000000001  0.50657  1.0000
  H   H48       1.0  0.6482  0.76489  0.57135  1.0000
  H   H49       1.0  0.4737200000000002  0.77857  0.9501900000000001  1.0000
  H   H50       1.0  0.9189400000000002  0.7643499999999998  0.55438  1.0000
  H   H51       1.0  0.45024000000000003  0.7196899999999997  0.8694  1.0000
  H   H52       1.0  0.5994799999999999  0.5662  0.78398  1.0000
  H   H53       1.0  0.3941500000000001  0.96824  0.70141  1.0000
  H   H54       1.0  0.56154  0.49724  0.71853  1.0000
  H   H55       1.0  0.08243000000000006  0.82799  0.25289  1.0000
  H   H56       1.0  0.3057000000000003  0.7964599999999996  0.56247  1.0000
  H   H57       1.0  0.8093700000000003  0.6751999999999998  0.61277  1.0000
  H   H58       1.0  0.002690000000000059  0.90825  0.35173  1.0000
  H   H59       1.0  0.2559100000000003  0.8154599999999999  0.41679  1.0000
  H   H60       1.0  0.34615  0.72784  0.32344  1.0000
  H   H61       1.0  0.20811999999999994  0.66241  0.74211  1.0000
  H   H62       1.0  0.8092800000000002  0.7530599999999997  0.86734  1.0000
  H   H63       1.0  0.34935999999999995  0.5734700000000001  0.80066  1.0000
  H   H64       1.0  0.9313100000000001  0.57184  0.73937  1.0000
  H   H65       1.0  0.22988  0.47134000000000004  0.71804  1.0000
  H   H66       1.0  0.7863999999999999  0.5231600000000001  0.80897  1.0000
  H   H67       1.0  0.8120900000000003  0.8026799999999996  0.9930500000000001  1.0000
  H   H68       1.0  0.98499  0.7345199999999998  0.9276500000000001  1.0000
  H   H69       1.0  0.20274000000000006  0.71996  0.54995  1.0000
  H   H70       1.0  0.23844999999999994  0.73636  0.94392  1.0000
  H   H71       1.0  0.039560000000000047  0.7797899999999999  0.63119  1.0000
  H   H72       1.0  0.94907  0.9344699999999996  0.71564  1.0000
  H   H73       1.0  0.06399000000000002  0.53146  0.79957  1.0000
  H   H74       1.0  0.7764100000000002  0.0037600000000000185  0.78204  1.0000
  H   H75       1.0  0.1630699999999999  0.67215  0.24744  1.0000
  H   H76       1.0  0.6643599999999998  0.7027500000000001  0.9380200000000001  1.0000
  H   H77       1.0  0.09774999999999999  0.82565  0.88556  1.0000
  H   H78       1.0  0.26225  0.59241  0.14821  1.0000
  H   H79       1.0  0.48794000000000026  0.6846199999999998  0.08296  1.0000
  H   H80       1.0  0.39707  0.77201  0.1764  1.0000
  C   C1        1.0  0.8705100000000001  0.07807  0.42063  1.0000
  C   C2        1.0  0.10822999999999999  0.09479  0.41636  1.0000
  C   C3        1.0  0.17286000000000004  0.14842  0.3781  1.0000
  C   C4        1.0  0.4432800000000001  0.4449600000000001  0.43126  1.0000
  C   C5        1.0  0.32050000000000023  0.177  0.2878  1.0000
  C   C6        1.0  0.63794  0.20227  0.35586  1.0000
  C   C7        1.0  0.55355  0.09231  0.1277  1.0000
  C   C8        1.0  0.25853  0.12822  0.32022  1.0000
  C   C9        1.0  0.7782999999999999  0.22718  0.72049  1.0000
  C   C10       1.0  0.53764  0.05743  0.07956  1.0000
  C   C11       1.0  0.74356  0.09912999999999995  0.28391  1.0000
  C   C12       1.0  0.57559  0.039450000000000006  0.19835  1.0000
  C   C13       1.0  0.81248  0.07197000000000002  0.32331  1.0000
  C   C14       1.0  0.3918099999999999  0.33206  0.43317  1.0000
  C   C15       1.0  0.3729200000000002  0.3316  0.31887  1.0000
  C   C16       1.0  0.29626  0.24642999999999993  0.31362000000000007  1.0000
  C   C17       1.0  0.5806  0.15954999999999994  0.2184  1.0000
  C   C18       1.0  0.3697799999999999  0.29402  0.39716000000000007  1.0000
  C   C19       1.0  0.54459  0.17943  0.10365  1.0000
  C   C20       1.0  0.41627999999999993  0.40774  0.3921  1.0000
  C   C21       1.0  0.14855000000000002  0.21976  0.40179  1.0000
  C   C22       1.0  0.5573699999999999  0.21296  0.14892  1.0000
  C   C23       1.0  0.79568  0.10858999999999999  0.37919  1.0000
  C   C24       1.0  0.3975400000000001  0.4067499999999999  0.2769  1.0000
  C   C25       1.0  0.58947  0.07243000000000002  0.24378999999999998  1.0000
  C   C26       1.0  0.6559300000000001  0.16432999999999992  0.30074  1.0000
  C   C27       1.0  0.4186500000000001  0.44467  0.31369  1.0000
  C   C28       1.0  0.87707  0.17761999999999997  0.71101  1.0000
  C   C29       1.0  0.70747  0.17425  0.39486  1.0000
  C   C30       1.0  0.20950000000000005  0.26910000000000006  0.36961  1.0000
  C   C31       1.0  0.9214600000000001  0.13267  0.65702  1.0000
  C   C32       1.0  0.77917  0.18398  0.62076  1.0000
  C   C33       1.0  0.72934  0.23128  0.6731  1.0000
  C   C34       1.0  0.3688900000000001  0.42232999999999987  0.07998  1.0000
  C   C35       1.0  0.6191800000000003  0.4052699999999999  0.08409  1.0000
  C   C36       1.0  0.69877  0.35135  0.12301  1.0000
  C   C37       1.0  0.3198800000000001  0.05557  0.06853  1.0000
  C   C38       1.0  0.7847999999999999  0.32268  0.21324  1.0000
  C   C39       1.0  0.19622  0.29828  0.14365  1.0000
  C   C40       1.0  0.77334  0.40884  0.3716  1.0000
  C   C41       1.0  0.70632  0.3716399999999999  0.18076  1.0000
  C   C42       1.0  0.7259700000000001  0.27331  0.779  1.0000
  C   C43       1.0  0.6740900000000001  0.44417  0.41918  1.0000
  C   C44       1.0  0.12611000000000003  0.40081  0.21627  1.0000
  C   C45       1.0  0.8131100000000002  0.46153000000000005  0.30091  1.0000
  C   C46       1.0  0.20736000000000002  0.42787  0.17715  1.0000
  C   C47       1.0  0.15688  0.16821  0.06722  1.0000
  C   C48       1.0  0.023540000000000033  0.16816999999999993  0.18179  1.0000
  C   C49       1.0  0.8559499999999999  0.25308  0.18756  1.0000
  C   C50       1.0  0.95815  0.34095  0.28091  1.0000
  C   C51       1.0  0.06067  0.20622  0.10352  1.0000
  C   C52       1.0  0.8274100000000004  0.32164  0.39592  1.0000
  C   C53       1.0  0.21635000000000001  0.09233  0.10796  1.0000
  C   C54       1.0  0.7694900000000002  0.27966  0.09966  1.0000
  C   C55       1.0  0.919  0.28768  0.35055  1.0000
  C   C56       1.0  0.28333  0.39152  0.12107  1.0000
  C   C57       1.0  0.08165000000000004  0.09264999999999994  0.22345  1.0000
  C   C58       1.0  0.90541  0.42819999999999997  0.25539  1.0000
  C   C59       1.0  0.12082000000000004  0.3359699999999999  0.1989  1.0000
  C   C60       1.0  0.17758999999999997  0.05479  0.18627  1.0000
  C   C61       1.0  0.7658100000000001  0.32249999999999995  0.78858  1.0000
  C   C62       1.0  0.2767500000000002  0.32624999999999993  0.10488  1.0000
  C   C63       1.0  0.8477200000000001  0.23021  0.13189  1.0000
  C   C64       1.0  0.71134  0.36718  0.8428  1.0000
  C   C65       1.0  0.5840300000000002  0.31619  0.87923  1.0000
  C   C66       1.0  0.6338300000000004  0.26908  0.82675  1.0000
  C   C67       1.0  0.12949000000000024  0.9219299999999996  0.57937  1.0000
  C   C68       1.0  0.89177  0.9052099999999998  0.58364  1.0000
  C   C69       1.0  0.8271400000000001  0.85158  0.62189  1.0000
  C   C70       1.0  0.55672  0.55504  0.56874  1.0000
  C   C71       1.0  0.6795000000000002  0.8229999999999996  0.7122  1.0000
  C   C72       1.0  0.36205000000000037  0.7977400000000001  0.64414  1.0000
  C   C73       1.0  0.44645000000000024  0.9076899999999996  0.8723  1.0000
  C   C74       1.0  0.74147  0.8717800000000001  0.67978  1.0000
  C   C75       1.0  0.22169000000000003  0.77282  0.27951  1.0000
  C   C76       1.0  0.46235000000000004  0.94257  0.92043  1.0000
  C   C77       1.0  0.2564300000000003  0.90087  0.71609  1.0000
  C   C78       1.0  0.4244100000000002  0.9605499999999999  0.80165  1.0000
  C   C79       1.0  0.18752000000000002  0.92803  0.67669  1.0000
  C   C80       1.0  0.6081900000000003  0.66795  0.56683  1.0000
  C   C81       1.0  0.6270700000000001  0.6684  0.68113  1.0000
  C   C82       1.0  0.70373  0.75357  0.68638  1.0000
  C   C83       1.0  0.41939  0.8404499999999999  0.7816  1.0000
  C   C84       1.0  0.6302200000000001  0.7059799999999998  0.60284  1.0000
  C   C85       1.0  0.45541000000000004  0.82057  0.89635  1.0000
  C   C86       1.0  0.5837200000000003  0.59226  0.60789  1.0000
  C   C87       1.0  0.85145  0.78024  0.59821  1.0000
  C   C88       1.0  0.44263000000000025  0.7870399999999995  0.85108  1.0000
  C   C89       1.0  0.20432000000000006  0.89141  0.62081  1.0000
  C   C90       1.0  0.6024600000000002  0.5932499999999998  0.7231  1.0000
  C   C91       1.0  0.41053  0.9275699999999999  0.7562  1.0000
  C   C92       1.0  0.34407000000000004  0.8356699999999999  0.69926  1.0000
  C   C93       1.0  0.58135  0.55533  0.68631  1.0000
  C   C94       1.0  0.12292000000000006  0.82238  0.28899  1.0000
  C   C95       1.0  0.29252999999999996  0.8257599999999999  0.60514  1.0000
  C   C96       1.0  0.7904900000000006  0.7308999999999998  0.63039  1.0000
  C   C97       1.0  0.07854000000000001  0.86733  0.34298  1.0000
  C   C98       1.0  0.22083000000000005  0.8160199999999999  0.37924  1.0000
  C   C99       1.0  0.2706600000000002  0.7687199999999997  0.3269  1.0000
  C   C100      1.0  0.63111  0.57768  0.92001  1.0000
  C   C101      1.0  0.3808200000000001  0.5947299999999998  0.91591  1.0000
  C   C102      1.0  0.30123  0.64865  0.87699  1.0000
  C   C103      1.0  0.68011  0.9444300000000001  0.93146  1.0000
  C   C104      1.0  0.2152  0.67732  0.78675  1.0000
  C   C105      1.0  0.8037700000000002  0.7017199999999999  0.85634  1.0000
  C   C106      1.0  0.2266499999999999  0.59116  0.62839  1.0000
  C   C107      1.0  0.29367000000000015  0.6283599999999999  0.81924  1.0000
  C   C108      1.0  0.27403000000000005  0.72669  0.22099  1.0000
  C   C109      1.0  0.32591  0.55583  0.58082  1.0000
  C   C110      1.0  0.8738900000000002  0.5991899999999998  0.78373  1.0000
  C   C111      1.0  0.18688999999999997  0.53847  0.69909  1.0000
  C   C112      1.0  0.79263  0.57213  0.82285  1.0000
  C   C113      1.0  0.8431199999999999  0.8317900000000001  0.93277  1.0000
  C   C114      1.0  0.9764600000000002  0.8318299999999995  0.8182  1.0000
  C   C115      1.0  0.14405000000000004  0.74692  0.81244  1.0000
  C   C116      1.0  0.04185000000000003  0.65905  0.71908  1.0000
  C   C117      1.0  0.9393200000000009  0.7937799999999997  0.89648  1.0000
  C   C118      1.0  0.17259  0.67836  0.60408  1.0000
  C   C119      1.0  0.7836499999999998  0.90767  0.89204  1.0000
  C   C120      1.0  0.23051000000000008  0.7203399999999999  0.90034  1.0000
  C   C121      1.0  0.08099  0.71232  0.64945  1.0000
  C   C122      1.0  0.7166700000000001  0.60848  0.87892  1.0000
  C   C123      1.0  0.9183499999999999  0.9073500000000001  0.77655  1.0000
  C   C124      1.0  0.09458999999999995  0.5718000000000001  0.74461  1.0000
  C   C125      1.0  0.87917  0.66404  0.80109  1.0000
  C   C126      1.0  0.8223999999999999  0.9452099999999999  0.81373  1.0000
  C   C127      1.0  0.23419000000000015  0.6774999999999998  0.21142  1.0000
  C   C128      1.0  0.72325  0.67375  0.89512  1.0000
  C   C129      1.0  0.15228  0.76979  0.86811  1.0000
  C   C130      1.0  0.28866  0.63282  0.1572  1.0000
  C   C131      1.0  0.4159700000000001  0.6838099999999998  0.12075999999999999  1.0000
  C   C132      1.0  0.36616000000000004  0.73092  0.17325  1.0000
  N   N1        1.0  0.8733100000000001  0.1346499999999999  0.61334  1.0000
  N   N2        1.0  0.6214100000000001  0.36535  0.88662  1.0000
  N   N3        1.0  0.12669000000000002  0.8653499999999998  0.38665  1.0000
  N   N4        1.0  0.37859  0.63465  0.11337  1.0000
  O   O1        1.0  0.85075  0.11003  0.47374  1.0000
  O   O2        1.0  0.9505000000000005  0.02044  0.40038  1.0000
  O   O3        1.0  0.03216999999999996  0.11923999999999997  0.46868000000000004  1.0000
  O   O4        1.0  0.13224  0.028999999999999995  0.39532  1.0000
  O   O5        1.0  0.4456400000000002  0.5222099999999995  0.39823  1.0000
  O   O6        1.0  0.53754  0.97953  0.10795  1.0000
  O   O7        1.0  0.52464  0.10761  0.01326  1.0000
  O   O8        1.0  0.3585  0.29479999999999995  0.27763  1.0000
  O   O9        1.0  0.46341999999999994  0.3961499999999998  0.49570000000000003  1.0000
  O   O10       1.0  0.58484  0.19992000000000001  0.26213  1.0000
  O   O11       1.0  0.43479  0.39073  0.02675  1.0000
  O   O12       1.0  0.37032  0.47972  0.10067  1.0000
  O   O13       1.0  0.62129  0.38131  0.03099  1.0000
  O   O14       1.0  0.55541  0.47088  0.10513  1.0000
  O   O15       1.0  0.3668499999999999  0.9781000000000001  0.10098  1.0000
  O   O16       1.0  0.62432  0.52187  0.39008000000000004  1.0000
  O   O17       1.0  0.6448700000000003  0.39433999999999997  0.48565  1.0000
  O   O18       1.0  0.93097  0.20479999999999998  0.22329  1.0000
  O   O19       1.0  0.35526000000000013  0.10508999999999998  0.00451  1.0000
  O   O20       1.0  0.04666000000000005  0.3005199999999999  0.23711000000000002  1.0000
  O   O21       1.0  0.14925000000000013  0.8899699999999997  0.52626  1.0000
  O   O22       1.0  0.0495000000000002  0.9795599999999997  0.59961  1.0000
  O   O23       1.0  0.96782  0.88076  0.53132  1.0000
  O   O24       1.0  0.8677499999999999  0.971  0.60468  1.0000
  O   O25       1.0  0.5543599999999999  0.47779000000000005  0.60177  1.0000
  O   O26       1.0  0.4624599999999999  0.02047000000000004  0.89205  1.0000
  O   O27       1.0  0.47535000000000005  0.89239  0.98674  1.0000
  O   O28       1.0  0.6414999999999998  0.7052  0.72237  1.0000
  O   O29       1.0  0.5365800000000001  0.6038499999999999  0.50429  1.0000
  O   O30       1.0  0.41516000000000025  0.8000799999999997  0.73787  1.0000
  O   O31       1.0  0.56521  0.6092699999999998  0.97325  1.0000
  O   O32       1.0  0.62968  0.52029  0.89933  1.0000
  O   O33       1.0  0.3786999999999999  0.61869  0.96901  1.0000
  O   O34       1.0  0.4445900000000001  0.5291199999999999  0.89487  1.0000
  O   O35       1.0  0.6331499999999999  0.021899999999999996  0.89902  1.0000
  O   O36       1.0  0.3756799999999999  0.47812999999999983  0.60991  1.0000
  O   O37       1.0  0.35512  0.60566  0.51434  1.0000
  O   O38       1.0  0.06903000000000019  0.7951999999999996  0.7767  1.0000
  O   O39       1.0  0.64474  0.89491  0.9954899999999999  1.0000
  O   O40       1.0  0.9533300000000003  0.69948  0.76289  1.0000
