data_image0
_chemical_formula_structural       Cd3H98C94N10O24
_chemical_formula_sum              "Cd3 H98 C94 N10 O24"
_cell_length_a       10.06955
_cell_length_b       15.66569
_cell_length_c       16.25121
_cell_angle_alpha    110.08732
_cell_angle_beta     105.49221
_cell_angle_gamma    86.78066

_symmetry_space_group_name_H-M    'P 1'
_symmetry_Int_Tables_number       1

loop_
  _symmetry_equiv_pos_as_xyz
  'x,y,z'

loop_
  _atom_site_type_symbol
  _atom_site_label
  _atom_site_symmetry_multiplicity
  _atom_site_fract_x
  _atom_site_fract_y
  _atom_site_fract_z
  _atom_site_occupancy
  Cd  Cd1       1.0  0.94043  0.7741600000000002  0.55556  1.0000
  Cd  Cd2       1.0  0.05956000000000001  0.22584000000000007  0.44444  1.0000
  Cd  Cd3       1.0  0.5  0.5  0.0  1.0000
  H   H1        1.0  0.058619999999999985  0.1578  0.64835  1.0000
  H   H2        1.0  0.042499999999999996  0.09967000000000006  0.79765  1.0000
  H   H3        1.0  0.10479999999999996  0.8831200000000005  0.94017  1.0000
  H   H4        1.0  0.90592  0.5713000000000003  0.88636  1.0000
  H   H5        1.0  0.27764  0.5795300000000002  0.44764  1.0000
  H   H6        1.0  0.81118  0.41698000000000013  0.70748  1.0000
  H   H7        1.0  0.8175100000000001  0.12395999999999996  0.6015399999999997  1.0000
  H   H8        1.0  0.64739  0.25697  0.82785  1.0000
  H   H9        1.0  0.8028399999999999  0.054389999999999966  0.7315599999999999  1.0000
  H   H10       1.0  0.65743  0.09409999999999995  0.77462  1.0000
  H   H11       1.0  0.5852199999999999  0.93852  0.6910899999999999  1.0000
  H   H12       1.0  0.39296  0.9210900000000002  0.55216  1.0000
  H   H13       1.0  0.4845499999999999  0.8185900000000003  0.53904  1.0000
  H   H14       1.0  0.51128  0.8946600000000002  0.48406  1.0000
  H   H15       1.0  0.17897  0.5012600000000003  0.97055  1.0000
  H   H16       1.0  0.96888  0.3984999999999999  0.9005899999999998  1.0000
  H   H17       1.0  0.98722  0.24064999999999998  0.7973699999999998  1.0000
  H   H18       1.0  0.41732999999999987  0.30474999999999997  0.8413999999999999  1.0000
  H   H19       1.0  0.33166  0.07404000000000001  0.66185  1.0000
  H   H20       1.0  0.43303  0.16629000000000005  0.75006  1.0000
  H   H21       1.0  0.30898  0.18571  0.65871  1.0000
  H   H22       1.0  0.33769  0.20312  0.94506  1.0000
  H   H23       1.0  0.45761999999999997  0.14129000000000005  0.88664  1.0000
  H   H24       1.0  0.37547  0.09082999999999995  0.9441  1.0000
  H   H25       1.0  0.47598  0.99292  0.82301  1.0000
  H   H26       1.0  0.4869799999999999  0.8290700000000001  0.7332099999999998  1.0000
  H   H27       1.0  0.26785  0.7442700000000002  0.62611  1.0000
  H   H28       1.0  0.04061000000000002  0.9732800000000003  0.68791  1.0000
  H   H29       1.0  0.57016  0.60588  0.87524  1.0000
  H   H30       1.0  0.46679999999999994  0.7181900000000002  0.7983  1.0000
  H   H31       1.0  0.24293000000000003  0.78742  0.82281  1.0000
  H   H32       1.0  0.25704  0.6376400000000002  0.00247  1.0000
  H   H33       1.0  0.17803  0.83662  0.0682  1.0000
  H   H34       1.0  0.10580000000000002  0.73039  0.05464  1.0000
  H   H35       1.0  0.99561  0.8188800000000003  0.03857  1.0000
  H   H36       1.0  0.7504799999999999  0.6619400000000002  0.8242799999999998  1.0000
  H   H37       1.0  0.8112499999999999  0.77319  0.84108  1.0000
  H   H38       1.0  0.8146  0.7402100000000003  0.93642  1.0000
  H   H39       1.0  0.06497999999999997  0.5116700000000002  0.77855  1.0000
  H   H40       1.0  0.11332999999999999  0.46325  0.62485  1.0000
  H   H41       1.0  0.07529999999999998  0.57352  0.54035  1.0000
  H   H42       1.0  0.9161900000000001  0.7603800000000002  0.7358  1.0000
  H   H43       1.0  0.7805499999999999  0.67685  0.33756  1.0000
  H   H44       1.0  0.57697  0.5724400000000002  0.23814999999999995  1.0000
  H   H45       1.0  0.43051  0.51357  0.3117899999999999  1.0000
  H   H46       1.0  0.7060999999999998  0.66204  0.57027  1.0000
  H   H47       1.0  0.44576999999999994  0.68377  0.5786799999999998  1.0000
  H   H48       1.0  0.57148  0.6244400000000002  0.63604  1.0000
  H   H49       1.0  0.39260000000000006  0.59783  0.61355  1.0000
  H   H50       1.0  0.9413699999999999  0.8422000000000003  0.35165  1.0000
  H   H51       1.0  0.95749  0.9003400000000003  0.20234999999999995  1.0000
  H   H52       1.0  0.8952000000000001  0.11688000000000003  0.05983  1.0000
  H   H53       1.0  0.09406999999999999  0.42870000000000014  0.11364  1.0000
  H   H54       1.0  0.72236  0.4204700000000001  0.55236  1.0000
  H   H55       1.0  0.18881000000000006  0.58302  0.29252  1.0000
  H   H56       1.0  0.18247999999999998  0.87604  0.39846  1.0000
  H   H57       1.0  0.3526  0.74303  0.17214999999999994  1.0000
  H   H58       1.0  0.19714999999999996  0.94561  0.26844  1.0000
  H   H59       1.0  0.34256  0.9059  0.22538  1.0000
  H   H60       1.0  0.41478  0.06149000000000003  0.30891  1.0000
  H   H61       1.0  0.60704  0.07891999999999999  0.44783999999999996  1.0000
  H   H62       1.0  0.5154399999999999  0.18142000000000003  0.46095999999999987  1.0000
  H   H63       1.0  0.4887099999999999  0.10534  0.51594  1.0000
  H   H64       1.0  0.82102  0.4987400000000001  0.02945  1.0000
  H   H65       1.0  0.03111  0.6015  0.09941  1.0000
  H   H66       1.0  0.012769999999999953  0.7593500000000003  0.20262999999999998  1.0000
  H   H67       1.0  0.5826599999999995  0.69525  0.1586  1.0000
  H   H68       1.0  0.6683300000000001  0.92596  0.33815  1.0000
  H   H69       1.0  0.5669699999999999  0.83371  0.24993999999999994  1.0000
  H   H70       1.0  0.69101  0.81429  0.34128  1.0000
  H   H71       1.0  0.6623  0.79688  0.05494  1.0000
  H   H72       1.0  0.54237  0.8587099999999999  0.11335999999999997  1.0000
  H   H73       1.0  0.62453  0.90917  0.0559  1.0000
  H   H74       1.0  0.52402  0.00709  0.17699  1.0000
  H   H75       1.0  0.51301  0.17093000000000005  0.26679  1.0000
  H   H76       1.0  0.7321399999999999  0.25573  0.3738799999999999  1.0000
  H   H77       1.0  0.9593800000000001  0.02672  0.31209  1.0000
  H   H78       1.0  0.42983999999999994  0.39412  0.12476  1.0000
  H   H79       1.0  0.53319  0.28182  0.2017  1.0000
  H   H80       1.0  0.75707  0.21258  0.17719  1.0000
  H   H81       1.0  0.7429499999999999  0.3623599999999999  0.9975299999999998  1.0000
  H   H82       1.0  0.8219599999999998  0.1633799999999999  0.9317999999999997  1.0000
  H   H83       1.0  0.8941900000000002  0.26961  0.94535  1.0000
  H   H84       1.0  0.004380000000000034  0.18112  0.96143  1.0000
  H   H85       1.0  0.24950999999999995  0.33806000000000014  0.17572  1.0000
  H   H86       1.0  0.18874  0.22682  0.15892  1.0000
  H   H87       1.0  0.18539  0.25979000000000013  0.06358  1.0000
  H   H88       1.0  0.9350100000000001  0.48833  0.22144999999999998  1.0000
  H   H89       1.0  0.8866599999999999  0.53675  0.37515  1.0000
  H   H90       1.0  0.9246899999999999  0.42647999999999997  0.45965  1.0000
  H   H91       1.0  0.08381  0.23962000000000006  0.2642  1.0000
  H   H92       1.0  0.21943999999999997  0.32315  0.6624399999999998  1.0000
  H   H93       1.0  0.42302  0.4275600000000001  0.76185  1.0000
  H   H94       1.0  0.56948  0.48644000000000004  0.68821  1.0000
  H   H95       1.0  0.29388999999999993  0.33796  0.4297299999999999  1.0000
  H   H96       1.0  0.55422  0.31623  0.42132  1.0000
  H   H97       1.0  0.42852  0.37556000000000006  0.3639599999999999  1.0000
  H   H98       1.0  0.6073899999999999  0.40217000000000014  0.38644999999999996  1.0000
  C   C1        1.0  0.69229  0.4305799999999999  0.8441599999999998  1.0000
  C   C2        1.0  0.89435  0.27627999999999997  0.5799199999999998  1.0000
  C   C3        1.0  0.72539  0.3455  0.77464  1.0000
  C   C4        1.0  0.78649  0.3507399999999999  0.7086499999999998  1.0000
  C   C5        1.0  0.81905  0.27104999999999996  0.6460299999999999  1.0000
  C   C6        1.0  0.78972  0.18597000000000005  0.6489  1.0000
  C   C7        1.0  0.72751  0.17975999999999992  0.7141099999999998  1.0000
  C   C8        1.0  0.69498  0.25968  0.77602  1.0000
  C   C9        1.0  0.7033099999999999  0.08758999999999996  0.7182099999999999  1.0000
  C   C10       1.0  0.6076899999999997  0.9401400000000001  0.62907  1.0000
  C   C11       1.0  0.7424499999999998  0.8897400000000002  0.6228  1.0000
  C   C12       1.0  0.49208  0.89046  0.54589  1.0000
  C   C13       1.0  0.18261000000000002  0.43235  0.92487  1.0000
  C   C14       1.0  0.06620999999999992  0.3745999999999999  0.8861199999999998  1.0000
  C   C15       1.0  0.07736  0.28647  0.82923  1.0000
  C   C16       1.0  0.20431999999999986  0.2571399999999999  0.8115899999999998  1.0000
  C   C17       1.0  0.3153699999999999  0.32061999999999996  0.8522199999999998  1.0000
  C   C18       1.0  0.21761  0.15815000000000007  0.75419  1.0000
  C   C19       1.0  0.3298699999999999  0.14547999999999994  0.7039799999999998  1.0000
  C   C20       1.0  0.2409  0.09819999999999995  0.81835  1.0000
  C   C21       1.0  0.36065  0.13546999999999995  0.9033199999999998  1.0000
  C   C22       1.0  0.25742  0.99847  0.76444  1.0000
  C   C23       1.0  0.38284  0.9552800000000002  0.77581  1.0000
  C   C24       1.0  0.38943999999999995  0.86312  0.7263099999999999  1.0000
  C   C25       1.0  0.26958999999999994  0.8159900000000001  0.66642  1.0000
  C   C26       1.0  0.14194999999999994  0.9452300000000002  0.70198  1.0000
  C   C27       1.0  0.47462000000000004  0.63948  0.88479  1.0000
  C   C28       1.0  0.41617  0.70144  0.84244  1.0000
  C   C29       1.0  0.2922599999999999  0.7401700000000002  0.85634  1.0000
  C   C30       1.0  0.2296399999999999  0.7173099999999999  0.9136599999999998  1.0000
  C   C31       1.0  0.29728999999999994  0.65648  0.9551999999999998  1.0000
  C   C32       1.0  0.09048  0.75426  0.92785  1.0000
  C   C33       1.0  0.09210999999999998  0.78672  0.0282  1.0000
  C   C34       1.0  0.97149  0.67812  0.86759  1.0000
  C   C35       1.0  0.8279  0.71668  0.86738  1.0000
  C   C36       1.0  0.9902499999999999  0.64101  0.7713  1.0000
  C   C37       1.0  0.04402999999999988  0.5556700000000002  0.7376299999999998  1.0000
  C   C38       1.0  0.07229000000000003  0.52924  0.653  1.0000
  C   C39       1.0  0.04926999999999997  0.5891199999999999  0.6046899999999998  1.0000
  C   C40       1.0  0.96292  0.69486  0.716  1.0000
  C   C41       1.0  0.7146  0.64899  0.36622  1.0000
  C   C42       1.0  0.60207  0.59055  0.31157  1.0000
  C   C43       1.0  0.52163  0.55718  0.35256  1.0000
  C   C44       1.0  0.55693  0.5814  0.44723  1.0000
  C   C45       1.0  0.67299  0.63966  0.4966  1.0000
  C   C46       1.0  0.47024999999999995  0.54632  0.49425999999999987  1.0000
  C   C47       1.0  0.47051000000000004  0.61757  0.58685  1.0000
  C   C48       1.0  0.3077  0.56942  0.15584  1.0000
  C   C49       1.0  0.10563999999999997  0.72372  0.42007999999999995  1.0000
  C   C50       1.0  0.27459999999999996  0.6545000000000002  0.22536  1.0000
  C   C51       1.0  0.21349999999999997  0.6492600000000002  0.29135  1.0000
  C   C52       1.0  0.18094999999999997  0.7289500000000002  0.35397  1.0000
  C   C53       1.0  0.21027  0.8140300000000003  0.3511  1.0000
  C   C54       1.0  0.27248  0.82024  0.28588999999999987  1.0000
  C   C55       1.0  0.30502  0.7403200000000001  0.22397999999999996  1.0000
  C   C56       1.0  0.29667999999999994  0.91241  0.28179  1.0000
  C   C57       1.0  0.3922999999999999  0.05986  0.37093  1.0000
  C   C58       1.0  0.25754  0.11026000000000001  0.3772  1.0000
  C   C59       1.0  0.50791  0.10953999999999998  0.45411  1.0000
  C   C60       1.0  0.81738  0.56765  0.07513  1.0000
  C   C61       1.0  0.9337799999999999  0.6254  0.11388  1.0000
  C   C62       1.0  0.9226300000000001  0.71353  0.17077  1.0000
  C   C63       1.0  0.79568  0.74286  0.18841  1.0000
  C   C64       1.0  0.68462  0.6793900000000003  0.14778  1.0000
  C   C65       1.0  0.7823799999999999  0.84185  0.24581  1.0000
  C   C66       1.0  0.6701199999999998  0.8545200000000002  0.29601999999999995  1.0000
  C   C67       1.0  0.75909  0.9018  0.18164999999999998  1.0000
  C   C68       1.0  0.63934  0.8645300000000002  0.09668  1.0000
  C   C69       1.0  0.74257  0.0015300000000000075  0.23556  1.0000
  C   C70       1.0  0.61715  0.04472  0.22419  1.0000
  C   C71       1.0  0.6105500000000001  0.13688  0.27369  1.0000
  C   C72       1.0  0.7304  0.18401000000000006  0.33358  1.0000
  C   C73       1.0  0.85804  0.05478  0.29802  1.0000
  C   C74       1.0  0.52537  0.36052  0.11520999999999998  1.0000
  C   C75       1.0  0.58383  0.29856  0.15755999999999998  1.0000
  C   C76       1.0  0.70773  0.25984  0.14366  1.0000
  C   C77       1.0  0.77035  0.28269  0.08634  1.0000
  C   C78       1.0  0.7027  0.34352  0.044799999999999986  1.0000
  C   C79       1.0  0.90951  0.24573999999999996  0.07214999999999999  1.0000
  C   C80       1.0  0.9078800000000001  0.21328000000000003  0.9718  1.0000
  C   C81       1.0  0.028509999999999994  0.32189000000000006  0.13241  1.0000
  C   C82       1.0  0.17209  0.28332  0.13262  1.0000
  C   C83       1.0  0.009750000000000003  0.35899  0.2287  1.0000
  C   C84       1.0  0.9559700000000001  0.44433  0.26237  1.0000
  C   C85       1.0  0.9277000000000001  0.47077000000000013  0.347  1.0000
  C   C86       1.0  0.9507199999999999  0.41088  0.39531  1.0000
  C   C87       1.0  0.03707  0.30514  0.284  1.0000
  C   C88       1.0  0.28539  0.3510200000000001  0.63378  1.0000
  C   C89       1.0  0.39791999999999994  0.4094600000000001  0.68843  1.0000
  C   C90       1.0  0.47836  0.4428200000000001  0.64744  1.0000
  C   C91       1.0  0.44306  0.4186  0.55277  1.0000
  C   C92       1.0  0.3270099999999999  0.36034  0.5034  1.0000
  C   C93       1.0  0.52975  0.4536900000000001  0.50574  1.0000
  C   C94       1.0  0.52948  0.38243000000000005  0.41315  1.0000
  N   N1        1.0  0.30481  0.4061300000000001  0.90772  1.0000
  N   N2        1.0  0.14784999999999981  0.8567399999999998  0.6544599999999998  1.0000
  N   N3        1.0  0.41542  0.6176  0.9405  1.0000
  N   N4        1.0  0.99341  0.6703300000000002  0.63539  1.0000
  N   N5        1.0  0.74957  0.6734800000000002  0.45754  1.0000
  N   N6        1.0  0.69518  0.59388  0.09228  1.0000
  N   N7        1.0  0.85215  0.14326000000000005  0.34554  1.0000
  N   N8        1.0  0.58457  0.3824  0.0595  1.0000
  N   N9        1.0  0.006579999999999993  0.32967000000000013  0.36461  1.0000
  N   N10       1.0  0.25042  0.3265200000000001  0.54246  1.0000
  O   O1        1.0  0.61279  0.4170000000000001  0.88883  1.0000
  O   O2        1.0  0.74162  0.50696  0.85366  1.0000
  O   O3        1.0  0.86023  0.33236  0.53816  1.0000
  O   O4        1.0  0.99352  0.22073000000000007  0.5701  1.0000
  O   O5        1.0  0.61484  0.032909999999999995  0.63367  1.0000
  O   O6        1.0  0.8182800000000001  0.90875  0.57911  1.0000
  O   O7        1.0  0.76566  0.8271599999999999  0.6572699999999998  1.0000
  O   O8        1.0  0.08703999999999992  0.12312999999999993  0.6909599999999998  1.0000
  O   O9        1.0  0.11950000000000001  0.10336000000000004  0.85052  1.0000
  O   O10       1.0  0.05801999999999993  0.82839  0.8932299999999997  1.0000
  O   O11       1.0  0.99261  0.6088400000000003  0.90805  1.0000
  O   O12       1.0  0.33226  0.52404  0.43786999999999987  1.0000
  O   O13       1.0  0.3872  0.5830000000000002  0.11117  1.0000
  O   O14       1.0  0.25837  0.4930400000000001  0.14634  1.0000
  O   O15       1.0  0.13975999999999997  0.6676500000000002  0.46184  1.0000
  O   O16       1.0  0.006469999999999976  0.7792800000000002  0.4299  1.0000
  O   O17       1.0  0.38515  0.9670900000000001  0.36633  1.0000
  O   O18       1.0  0.18172  0.09125  0.42089  1.0000
  O   O19       1.0  0.23432999999999998  0.17284000000000002  0.34272999999999987  1.0000
  O   O20       1.0  0.9129499999999999  0.8768699999999999  0.30903999999999987  1.0000
  O   O21       1.0  0.8805  0.89664  0.14948  1.0000
  O   O22       1.0  0.9419699999999999  0.17162000000000008  0.10677  1.0000
  O   O23       1.0  0.0073799999999999795  0.3911600000000001  0.09193999999999997  1.0000
  O   O24       1.0  0.6677300000000002  0.47595999999999994  0.56213  1.0000
