data_image0
_chemical_formula_structural       Ni6H92C148S6N8O38
_chemical_formula_sum              "Ni6 H92 C148 S6 N8 O38"
_cell_length_a       14.11538
_cell_length_b       14.50601
_cell_length_c       21.17929
_cell_angle_alpha    90.94390999999999
_cell_angle_beta     85.80472999999999
_cell_angle_gamma    63.18762

_symmetry_space_group_name_H-M    'P 1'
_symmetry_Int_Tables_number       1

loop_
  _symmetry_equiv_pos_as_xyz
  'x,y,z'

loop_
  _atom_site_type_symbol
  _atom_site_label
  _atom_site_symmetry_multiplicity
  _atom_site_fract_x
  _atom_site_fract_y
  _atom_site_fract_z
  _atom_site_occupancy
  Ni  Ni1       1.0  0.77847  0.049420000000000006  0.10594999999999999  1.0000
  Ni  Ni2       1.0  0.72153  0.21257000000000004  0.22464999999999996  1.0000
  Ni  Ni3       1.0  0.5683  0.27018  0.38503  1.0000
  Ni  Ni4       1.0  0.22151999999999994  0.95058  0.89405  1.0000
  Ni  Ni5       1.0  0.27846  0.78744  0.7753500000000001  1.0000
  Ni  Ni6       1.0  0.43168999999999985  0.7298200000000002  0.61497  1.0000
  H   H1        1.0  0.10869000000000002  0.44896  0.80933  1.0000
  H   H2        1.0  0.22176999999999997  0.55261  0.64625  1.0000
  H   H3        1.0  0.3358799999999999  0.22414  0.66833  1.0000
  H   H4        1.0  0.07749000000000003  0.17602  0.8897199999999998  1.0000
  H   H5        1.0  0.06927999999999997  0.32639  0.83257  1.0000
  H   H6        1.0  0.3809299999999999  0.12249000000000003  0.73931  1.0000
  H   H7        1.0  0.37342  0.9808300000000002  0.79861  1.0000
  H   H8        1.0  0.46268  0.17294000000000007  0.46509  1.0000
  H   H9        1.0  0.3568299999999999  0.20725000000000005  0.56954  1.0000
  H   H10       1.0  0.3581  0.50474  0.58163  1.0000
  H   H11       1.0  0.45968  0.45887  0.47511000000000003  1.0000
  H   H12       1.0  0.04622999999999999  0.7275  0.84797  1.0000
  H   H13       1.0  0.7111099999999999  0.8447300000000001  0.82286  1.0000
  H   H14       1.0  0.9497399999999997  0.60453  0.69459  1.0000
  H   H15       1.0  0.4787799999999998  0.8885100000000002  0.68689  1.0000
  H   H16       1.0  0.62983  0.89472  0.73523  1.0000
  H   H17       1.0  0.80652  0.56473  0.69376  1.0000
  H   H18       1.0  0.64807  0.57344  0.64444  1.0000
  H   H19       1.0  0.96602  0.93584  0.01475  1.0000
  H   H20       1.0  0.011209999999999953  0.8324900000000002  0.91433  1.0000
  H   H21       1.0  0.6756100000000002  0.92021  0.90899  1.0000
  H   H22       1.0  0.64496  0.01928  0.01139  1.0000
  H   H23       1.0  0.43567  0.6012  0.37514  1.0000
  H   H24       1.0  0.37026999999999993  0.7860500000000001  0.34787  1.0000
  H   H25       1.0  0.54893  0.68532  0.16471  1.0000
  H   H26       1.0  0.6159899999999997  0.4991200000000001  0.19401999999999997  1.0000
  H   H27       1.0  0.20853999999999995  0.023960000000000006  0.30281  1.0000
  H   H28       1.0  0.01884999999999998  0.09244  0.27542  1.0000
  H   H29       1.0  0.12577999999999998  0.88558  0.10917999999999999  1.0000
  H   H30       1.0  0.31472999999999984  0.8182700000000003  0.13518  1.0000
  H   H31       1.0  0.7027999999999998  0.9220900000000002  0.41289  1.0000
  H   H32       1.0  0.8453599999999996  0.73681  0.40673  1.0000
  H   H33       1.0  0.03424000000000008  0.8136099999999999  0.26861  1.0000
  H   H34       1.0  0.8902799999999997  0.99811  0.27573  1.0000
  H   H35       1.0  0.03363999999999998  0.58873  0.46702999999999995  1.0000
  H   H36       1.0  0.10926999999999994  0.6239000000000001  0.56356  1.0000
  H   H37       1.0  0.28789  0.73971  0.44741  1.0000
  H   H38       1.0  0.2117  0.70765  0.34993  1.0000
  H   H39       1.0  0.78759  0.43536000000000014  0.13309  1.0000
  H   H40       1.0  0.8377199999999998  0.55035  0.06553  1.0000
  H   H41       1.0  0.87967  0.35398000000000013  0.90037  1.0000
  H   H42       1.0  0.8305499999999998  0.23898000000000003  0.9687899999999999  1.0000
  H   H43       1.0  0.7209100000000003  0.7343200000000002  0.98332  1.0000
  H   H44       1.0  0.53456  0.84161  0.95386  1.0000
  H   H45       1.0  0.5918099999999998  0.6284000000000001  0.79597  1.0000
  H   H46       1.0  0.7793  0.52124  0.82382  1.0000
  H   H47       1.0  0.8912999999999995  0.5510400000000001  0.19067  1.0000
  H   H48       1.0  0.77823  0.44739  0.35375  1.0000
  H   H49       1.0  0.6641199999999997  0.7758600000000001  0.33167  1.0000
  H   H50       1.0  0.9224999999999998  0.8239800000000003  0.11028  1.0000
  H   H51       1.0  0.9307199999999997  0.67362  0.16744  1.0000
  H   H52       1.0  0.6190699999999999  0.87751  0.26069  1.0000
  H   H53       1.0  0.62658  0.019170000000000003  0.20140000000000002  1.0000
  H   H54       1.0  0.53731  0.82707  0.53491  1.0000
  H   H55       1.0  0.64317  0.7927500000000001  0.43046999999999996  1.0000
  H   H56       1.0  0.6418899999999997  0.49527000000000004  0.41838  1.0000
  H   H57       1.0  0.54032  0.54113  0.52489  1.0000
  H   H58       1.0  0.9537699999999998  0.27251  0.15204  1.0000
  H   H59       1.0  0.28888999999999976  0.15528  0.17715  1.0000
  H   H60       1.0  0.05024999999999997  0.39548  0.30541  1.0000
  H   H61       1.0  0.5212099999999998  0.11149  0.31312  1.0000
  H   H62       1.0  0.37016  0.10527999999999998  0.26478  1.0000
  H   H63       1.0  0.19348000000000007  0.43527999999999994  0.30624  1.0000
  H   H64       1.0  0.35191999999999996  0.4265700000000001  0.35556  1.0000
  H   H65       1.0  0.03396999999999999  0.06416  0.98525  1.0000
  H   H66       1.0  0.9887799999999998  0.16751  0.08567  1.0000
  H   H67       1.0  0.32437999999999984  0.07979000000000003  0.09101  1.0000
  H   H68       1.0  0.35504  0.98073  0.98861  1.0000
  H   H69       1.0  0.56433  0.3988  0.62487  1.0000
  H   H70       1.0  0.62973  0.21395  0.65214  1.0000
  H   H71       1.0  0.4510699999999998  0.31468  0.8353  1.0000
  H   H72       1.0  0.38400999999999996  0.50088  0.80599  1.0000
  H   H73       1.0  0.79146  0.9760500000000002  0.6972  1.0000
  H   H74       1.0  0.9811399999999993  0.90757  0.72459  1.0000
  H   H75       1.0  0.8742099999999999  0.11442000000000002  0.89083  1.0000
  H   H76       1.0  0.68526  0.18173  0.86482  1.0000
  H   H77       1.0  0.2972  0.07791  0.58711  1.0000
  H   H78       1.0  0.15464000000000008  0.26319000000000004  0.59328  1.0000
  H   H79       1.0  0.96576  0.18639  0.73139  1.0000
  H   H80       1.0  0.10970999999999995  0.0018899999999999928  0.72427  1.0000
  H   H81       1.0  0.96636  0.41127  0.53297  1.0000
  H   H82       1.0  0.89073  0.3761  0.43643999999999994  1.0000
  H   H83       1.0  0.7121  0.26030000000000003  0.55259  1.0000
  H   H84       1.0  0.7883  0.29235  0.65007  1.0000
  H   H85       1.0  0.21240999999999974  0.5646400000000003  0.86691  1.0000
  H   H86       1.0  0.16226999999999991  0.4496500000000001  0.93447  1.0000
  H   H87       1.0  0.12033000000000002  0.64603  0.09963  1.0000
  H   H88       1.0  0.16944999999999993  0.76102  0.031209999999999998  1.0000
  H   H89       1.0  0.27909  0.26569  0.01669  1.0000
  H   H90       1.0  0.4654399999999999  0.15839  0.04614  1.0000
  H   H91       1.0  0.40818  0.3716100000000001  0.20403999999999997  1.0000
  H   H92       1.0  0.22069999999999995  0.4787700000000001  0.17618  1.0000
  C   C1        1.0  0.22282  0.32513000000000003  0.74282  1.0000
  C   C2        1.0  0.15876000000000004  0.42877  0.76472  1.0000
  C   C3        1.0  0.16238000000000002  0.50714  0.7289  1.0000
  C   C4        1.0  0.22382999999999997  0.48653000000000013  0.6712  1.0000
  C   C5        1.0  0.28557000000000005  0.38353  0.64815  1.0000
  C   C6        1.0  0.28601  0.30404  0.68502  1.0000
  C   C7        1.0  0.14258999999999986  0.16789  0.85559  1.0000
  C   C8        1.0  0.13909  0.25173  0.8234600000000001  1.0000
  C   C9        1.0  0.2242899999999999  0.23868  0.77929  1.0000
  C   C10       1.0  0.31044  0.13883  0.77103  1.0000
  C   C11       1.0  0.3079  0.058620000000000005  0.80463  1.0000
  C   C12       1.0  0.43654999999999994  0.24567  0.49256000000000005  1.0000
  C   C13       1.0  0.37842  0.26544  0.55123  1.0000
  C   C14       1.0  0.34754  0.35978  0.58569  1.0000
  C   C15       1.0  0.37744  0.4309200000000001  0.55743  1.0000
  C   C16       1.0  0.43518999999999985  0.4058  0.49843  1.0000
  C   C17       1.0  0.006639999999999981  0.66278  0.7702099999999998  1.0000
  C   C18       1.0  0.9804199999999998  0.7299000000000002  0.82352  1.0000
  C   C19       1.0  0.8738599999999999  0.79598  0.84393  1.0000
  C   C20       1.0  0.7945799999999997  0.7946700000000001  0.80833  1.0000
  C   C21       1.0  0.8204199999999999  0.7269800000000001  0.75465  1.0000
  C   C22       1.0  0.9278399999999999  0.6584700000000001  0.73569  1.0000
  C   C23       1.0  0.55248  0.8183200000000002  0.68991  1.0000
  C   C24       1.0  0.63767  0.8206500000000001  0.71745  1.0000
  C   C25       1.0  0.7322399999999999  0.7287200000000003  0.72032  1.0000
  C   C26       1.0  0.73639  0.63856  0.69223  1.0000
  C   C27       1.0  0.64774  0.6426000000000001  0.66542  1.0000
  C   C28       1.0  0.9044599999999996  0.92902  0.99002  1.0000
  C   C29       1.0  0.9285599999999997  0.8707  0.9334999999999999  1.0000
  C   C30       1.0  0.8479799999999996  0.8624200000000002  0.90239  1.0000
  C   C31       1.0  0.7432899999999999  0.9197300000000003  0.93059  1.0000
  C   C32       1.0  0.72471  0.97578  0.9877899999999998  1.0000
  C   C33       1.0  0.56801  0.42872  0.30268  1.0000
  C   C34       1.0  0.5291899999999999  0.5400700000000003  0.2859  1.0000
  C   C35       1.0  0.4595499999999998  0.6205200000000001  0.32929  1.0000
  C   C36       1.0  0.42249  0.7232800000000001  0.31394  1.0000
  C   C37       1.0  0.45488  0.74494  0.25423  1.0000
  C   C38       1.0  0.52431  0.66576  0.21031  1.0000
  C   C39       1.0  0.5617099999999999  0.56314  0.22660999999999998  1.0000
  C   C40       1.0  0.27113000000000015  0.9174200000000001  0.22090999999999997  1.0000
  C   C41       1.0  0.18916999999999998  0.99347  0.26111  1.0000
  C   C42       1.0  0.08393  0.03146  0.2457  1.0000
  C   C43       1.0  0.06194999999999998  0.99226  0.19075  1.0000
  C   C44       1.0  0.14510999999999988  0.9140500000000003  0.15168  1.0000
  C   C45       1.0  0.24992999999999999  0.8766100000000001  0.16628  1.0000
  C   C46       1.0  0.9506799999999997  0.03306  0.17204  1.0000
  C   C47       1.0  0.70451  0.07967000000000002  0.34957  1.0000
  C   C48       1.0  0.7884800000000001  0.96972  0.34359  1.0000
  C   C49       1.0  0.7752599999999996  0.89664  0.38119999999999993  1.0000
  C   C50       1.0  0.8543399999999998  0.7946200000000001  0.37828  1.0000
  C   C51       1.0  0.9469299999999999  0.76622  0.33745  1.0000
  C   C52       1.0  0.9614099999999995  0.83783  0.29979  1.0000
  C   C53       1.0  0.8815599999999999  0.93974  0.30324  1.0000
  C   C54       1.0  0.11743999999999999  0.6478500000000001  0.40375  1.0000
  C   C55       1.0  0.08856  0.6224800000000003  0.46322  1.0000
  C   C56       1.0  0.13080999999999998  0.6416  0.51653  1.0000
  C   C57       1.0  0.20162999999999998  0.68504  0.51058  1.0000
  C   C58       1.0  0.23160999999999995  0.70744  0.4503599999999999  1.0000
  C   C59       1.0  0.18947999999999993  0.6897000000000002  0.3966700000000001  1.0000
  C   C60       1.0  0.24798999999999982  0.7045800000000002  0.56891  1.0000
  C   C61       1.0  0.7784999999999999  0.25977  0.09443  1.0000
  C   C62       1.0  0.80468  0.33145000000000013  0.05436  1.0000
  C   C63       1.0  0.8064  0.41916  0.08211  1.0000
  C   C64       1.0  0.8339399999999997  0.4831800000000001  0.04475  1.0000
  C   C65       1.0  0.8597499999999998  0.45882000000000006  0.9796199999999999  1.0000
  C   C66       1.0  0.8590700000000001  0.37137  0.9511499999999999  1.0000
  C   C67       1.0  0.8316699999999997  0.30785  0.9889399999999999  1.0000
  C   C68       1.0  0.75854  0.62207  0.90574  1.0000
  C   C69       1.0  0.69142  0.71193  0.9427699999999999  1.0000
  C   C70       1.0  0.58863  0.7714200000000002  0.92605  1.0000
  C   C71       1.0  0.55285  0.74092  0.87319  1.0000
  C   C72       1.0  0.6211200000000002  0.6504300000000002  0.83673  1.0000
  C   C73       1.0  0.72491  0.5905  0.8526200000000002  1.0000
  C   C74       1.0  0.4403599999999999  0.80469  0.85784  1.0000
  C   C75       1.0  0.77717  0.6748700000000002  0.25719  1.0000
  C   C76       1.0  0.8412299999999997  0.5712300000000001  0.23528000000000002  1.0000
  C   C77       1.0  0.83762  0.49286000000000013  0.2711  1.0000
  C   C78       1.0  0.77617  0.51347  0.3288  1.0000
  C   C79       1.0  0.7144299999999999  0.61647  0.35185  1.0000
  C   C80       1.0  0.7139799999999997  0.69597  0.31499  1.0000
  C   C81       1.0  0.85741  0.83212  0.14441  1.0000
  C   C82       1.0  0.8608999999999999  0.7482700000000002  0.17654  1.0000
  C   C83       1.0  0.7757000000000003  0.76132  0.22071  1.0000
  C   C84       1.0  0.6895599999999997  0.86117  0.22898  1.0000
  C   C85       1.0  0.6920999999999996  0.94138  0.19537000000000002  1.0000
  C   C86       1.0  0.5634399999999999  0.7543300000000001  0.50745  1.0000
  C   C87       1.0  0.62158  0.73456  0.44877  1.0000
  C   C88       1.0  0.65246  0.64022  0.41430999999999996  1.0000
  C   C89       1.0  0.62256  0.5690900000000002  0.44257  1.0000
  C   C90       1.0  0.5647999999999999  0.5942100000000001  0.50158  1.0000
  C   C91       1.0  0.9933499999999996  0.33722  0.22979  1.0000
  C   C92       1.0  0.019569999999999997  0.27011  0.17649  1.0000
  C   C93       1.0  0.12613999999999997  0.20403000000000004  0.15607  1.0000
  C   C94       1.0  0.20541999999999996  0.20534000000000002  0.19167  1.0000
  C   C95       1.0  0.17956999999999998  0.27302  0.24535000000000004  1.0000
  C   C96       1.0  0.07215  0.34153  0.26431  1.0000
  C   C97       1.0  0.4475099999999999  0.18168  0.31009  1.0000
  C   C98       1.0  0.36232  0.17935  0.28255  1.0000
  C   C99       1.0  0.26775999999999994  0.27128  0.27969  1.0000
  C   C100      1.0  0.26361  0.36144  0.30778  1.0000
  C   C101      1.0  0.35225  0.3574  0.33459  1.0000
  C   C102      1.0  0.09554  0.07098  0.00998  1.0000
  C   C103      1.0  0.07142999999999997  0.1293  0.0665  1.0000
  C   C104      1.0  0.15201999999999985  0.13758  0.09761  1.0000
  C   C105      1.0  0.25671  0.08027000000000001  0.06941  1.0000
  C   C106      1.0  0.27528  0.024220000000000005  0.01221  1.0000
  C   C107      1.0  0.43197999999999975  0.57129  0.69733  1.0000
  C   C108      1.0  0.47080999999999984  0.45994  0.71411  1.0000
  C   C109      1.0  0.54045  0.37948  0.67071  1.0000
  C   C110      1.0  0.57751  0.27673  0.68606  1.0000
  C   C111      1.0  0.54512  0.25507  0.74577  1.0000
  C   C112      1.0  0.4756899999999999  0.3342500000000001  0.7896999999999998  1.0000
  C   C113      1.0  0.43828999999999996  0.43687  0.77339  1.0000
  C   C114      1.0  0.72886  0.08258000000000001  0.7790899999999998  1.0000
  C   C115      1.0  0.81083  0.006530000000000003  0.73889  1.0000
  C   C116      1.0  0.9160699999999999  0.96854  0.7543  1.0000
  C   C117      1.0  0.9380499999999998  0.007739999999999989  0.8092499999999999  1.0000
  C   C118      1.0  0.8548800000000001  0.08595  0.84832  1.0000
  C   C119      1.0  0.7500699999999998  0.12340000000000002  0.83372  1.0000
  C   C120      1.0  0.04931999999999999  0.96695  0.82797  1.0000
  C   C121      1.0  0.2954799999999999  0.9203400000000003  0.65043  1.0000
  C   C122      1.0  0.21152000000000004  0.030280000000000005  0.65641  1.0000
  C   C123      1.0  0.22473999999999988  0.10336000000000001  0.6188  1.0000
  C   C124      1.0  0.1456599999999999  0.20539000000000004  0.62173  1.0000
  C   C125      1.0  0.053069999999999964  0.23379000000000008  0.66255  1.0000
  C   C126      1.0  0.03858999999999998  0.16217  0.70021  1.0000
  C   C127      1.0  0.11843999999999998  0.06027000000000001  0.69676  1.0000
  C   C128      1.0  0.88256  0.35216  0.59626  1.0000
  C   C129      1.0  0.9114399999999996  0.37752  0.53678  1.0000
  C   C130      1.0  0.8691899999999998  0.35841  0.48346999999999996  1.0000
  C   C131      1.0  0.79836  0.31496000000000013  0.48941999999999997  1.0000
  C   C132      1.0  0.7683799999999997  0.29257  0.54965  1.0000
  C   C133      1.0  0.8105199999999998  0.31031  0.60333  1.0000
  C   C134      1.0  0.7520099999999997  0.2954200000000001  0.43109  1.0000
  C   C135      1.0  0.2214999999999998  0.7402300000000003  0.90557  1.0000
  C   C136      1.0  0.19531999999999988  0.6685500000000001  0.94564  1.0000
  C   C137      1.0  0.19360000000000002  0.58084  0.91789  1.0000
  C   C138      1.0  0.16605000000000003  0.51682  0.95525  1.0000
  C   C139      1.0  0.14024999999999999  0.54119  0.02038  1.0000
  C   C140      1.0  0.14091999999999988  0.6286300000000002  0.04884999999999999  1.0000
  C   C141      1.0  0.16833  0.69215  0.01106  1.0000
  C   C142      1.0  0.24145999999999995  0.37794  0.09426  1.0000
  C   C143      1.0  0.30858  0.28807  0.05724  1.0000
  C   C144      1.0  0.41137  0.22858000000000006  0.07395  1.0000
  C   C145      1.0  0.4471399999999999  0.25908  0.12682  1.0000
  C   C146      1.0  0.37887999999999994  0.34957000000000005  0.16327  1.0000
  C   C147      1.0  0.27509  0.40950000000000003  0.14739  1.0000
  C   C148      1.0  0.5596399999999999  0.19531  0.14216  1.0000
  S   S1        1.0  0.40736  0.87622  0.23493  1.0000
  S   S2        1.0  0.05194000000000003  0.63822  0.33742  1.0000
  S   S3        1.0  0.8870299999999995  0.54485  0.9311900000000001  1.0000
  S   S4        1.0  0.59263  0.12378000000000002  0.76507  1.0000
  S   S5        1.0  0.9480599999999997  0.36179000000000006  0.66258  1.0000
  S   S6        1.0  0.11297  0.45515  0.06881  1.0000
  N   N1        1.0  0.22507  0.07188  0.84625  1.0000
  N   N2        1.0  0.46495  0.31460000000000005  0.46634  1.0000
  N   N3        1.0  0.55587  0.73081  0.66472  1.0000
  N   N4        1.0  0.80413  0.97939  0.01797  1.0000
  N   N5        1.0  0.7749199999999999  0.9281300000000002  0.15375  1.0000
  N   N6        1.0  0.53505  0.6854  0.53366  1.0000
  N   N7        1.0  0.44412999999999986  0.26919  0.33528  1.0000
  N   N8        1.0  0.1958599999999999  0.020610000000000007  0.98204  1.0000
  O   O1        1.0  0.11458999999999996  0.6094500000000002  0.75251  1.0000
  O   O2        1.0  0.53375  0.41577  0.35776  1.0000
  O   O3        1.0  0.6285400000000001  0.36091  0.26041  1.0000
  O   O4        1.0  0.40977  0.93526  0.29118  1.0000
  O   O5        1.0  0.46276999999999985  0.8795300000000003  0.17446  1.0000
  O   O6        1.0  0.87572  0.10281  0.20888  1.0000
  O   O7        1.0  0.9381199999999998  0.99355  0.12113  1.0000
  O   O8        1.0  0.6331799999999999  0.1051  0.39590000000000003  1.0000
  O   O9        1.0  0.7043599999999998  0.14775  0.31107  1.0000
  O   O10       1.0  0.004919999999999916  0.5685900000000002  0.35232  1.0000
  O   O11       1.0  0.12336999999999998  0.6195100000000001  0.2796  1.0000
  O   O12       1.0  0.2136199999999998  0.6914800000000002  0.62237  1.0000
  O   O13       1.0  0.32242999999999994  0.7314  0.55552  1.0000
  O   O14       1.0  0.7519799999999999  0.28746  0.15313  1.0000
  O   O15       1.0  0.78772  0.17779  0.06615  1.0000
  O   O16       1.0  0.9137700000000002  0.61073  0.9715099999999999  1.0000
  O   O17       1.0  0.9583399999999995  0.48516000000000004  0.87589  1.0000
  O   O18       1.0  0.3817199999999999  0.87849  0.89818  1.0000
  O   O19       1.0  0.4125799999999998  0.78178  0.80627  1.0000
  O   O20       1.0  0.8854099999999999  0.39055  0.24749000000000002  1.0000
  O   O21       1.0  0.46625  0.58423  0.64224  1.0000
  O   O22       1.0  0.37146000000000007  0.6391  0.73959  1.0000
  O   O23       1.0  0.59023  0.06474  0.70882  1.0000
  O   O24       1.0  0.53722  0.12047  0.82554  1.0000
  O   O25       1.0  0.12428000000000006  0.8972  0.7911199999999999  1.0000
  O   O26       1.0  0.06188  0.006449999999999995  0.87888  1.0000
  O   O27       1.0  0.36681999999999987  0.8949000000000001  0.60411  1.0000
  O   O28       1.0  0.29563999999999985  0.8522600000000002  0.68893  1.0000
  O   O29       1.0  0.9950799999999999  0.43142  0.64768  1.0000
  O   O30       1.0  0.87662  0.38049000000000005  0.7204  1.0000
  O   O31       1.0  0.7863799999999999  0.30852  0.37764  1.0000
  O   O32       1.0  0.6775699999999998  0.2686  0.44448  1.0000
  O   O33       1.0  0.24801999999999993  0.7125400000000001  0.84688  1.0000
  O   O34       1.0  0.2122799999999999  0.8222200000000002  0.93385  1.0000
  O   O35       1.0  0.08622000000000002  0.38927  0.028490000000000005  1.0000
  O   O36       1.0  0.04165000000000002  0.51485  0.12410999999999998  1.0000
  O   O37       1.0  0.61828  0.12151  0.10182  1.0000
  O   O38       1.0  0.5874199999999999  0.21822000000000003  0.19373999999999997  1.0000
