data_image0
_chemical_formula_structural       Ca8Lu8H96C96O120
_chemical_formula_sum              "Ca8 Lu8 H96 C96 O120"
_cell_length_a       18.73196
_cell_length_b       18.72635
_cell_length_c       18.71742
_cell_angle_alpha    59.53976
_cell_angle_beta     59.59824999999999
_cell_angle_gamma    59.5513

_space_group_name_H-M_alt    "P 1"
_space_group_IT_number       1

loop_
  _space_group_symop_operation_xyz
  'x, y, z'

loop_
  _atom_site_type_symbol
  _atom_site_label
  _atom_site_symmetry_multiplicity
  _atom_site_fract_x
  _atom_site_fract_y
  _atom_site_fract_z
  _atom_site_occupancy
  Ca  Ca1       1.0  0.5  0.5  0.5  1.0000
  Ca  Ca2       1.0  0.5  0.5  0.0  1.0000
  Ca  Ca3       1.0  0.5  0.0  0.0  1.0000
  Ca  Ca4       1.0  0.0  0.5  0.0  1.0000
  Ca  Ca5       1.0  0.0  0.0  0.5  1.0000
  Ca  Ca6       1.0  0.0  0.0  0.0  1.0000
  Ca  Ca7       1.0  0.0  0.5  0.5  1.0000
  Ca  Ca8       1.0  0.5  0.0  0.5  1.0000
  Lu  Lu1       1.0  0.24850999999999993  0.74887  0.25142  1.0000
  Lu  Lu2       1.0  0.7512799999999997  0.24830999999999998  0.24853  1.0000
  Lu  Lu3       1.0  0.7513599999999998  0.7506499999999998  0.24978000000000006  1.0000
  Lu  Lu4       1.0  0.7507500000000001  0.7485799999999999  0.74805  1.0000
  Lu  Lu5       1.0  0.75149  0.2511300000000001  0.74858  1.0000
  Lu  Lu6       1.0  0.24871999999999994  0.7516900000000001  0.75147  1.0000
  Lu  Lu7       1.0  0.24864000000000006  0.24934999999999993  0.75022  1.0000
  Lu  Lu8       1.0  0.24924999999999997  0.25142  0.25195  1.0000
  H   H1        1.0  0.27894  0.6521499999999998  0.4950700000000001  1.0000
  H   H2        1.0  0.35811000000000015  0.7073899999999999  0.41647  1.0000
  H   H3        1.0  0.6528100000000001  0.27889  0.07327  1.0000
  H   H4        1.0  0.70711  0.35831  0.01537  1.0000
  H   H5        1.0  0.5732599999999995  0.9952400000000001  0.15247  1.0000
  H   H6        1.0  0.5163400000000001  0.91805  0.20837000000000003  1.0000
  H   H7        1.0  0.9956800000000001  0.57302  0.77767  1.0000
  H   H8        1.0  0.9186000000000007  0.5156699999999997  0.858  1.0000
  H   H9        1.0  0.57409  0.27786  0.49401  1.0000
  H   H10       1.0  0.51753  0.3580199999999998  0.41652  1.0000
  H   H11       1.0  0.99513  0.65249  0.07332  1.0000
  H   H12       1.0  0.9179799999999999  0.70841  0.01623  1.0000
  H   H13       1.0  0.27886  0.57388  0.15287  1.0000
  H   H14       1.0  0.35847  0.51587  0.20734000000000005  1.0000
  H   H15       1.0  0.6528100000000001  0.99349  0.77903  1.0000
  H   H16       1.0  0.7075100000000001  0.9152199999999999  0.85802  1.0000
  H   H17       1.0  0.65266  0.57339  0.4951700000000001  1.0000
  H   H18       1.0  0.70861  0.51646  0.41775  1.0000
  H   H19       1.0  0.27786000000000005  0.9945799999999999  0.07377  1.0000
  H   H20       1.0  0.35807999999999984  0.91722  0.017  1.0000
  H   H21       1.0  0.99484  0.27902  0.15217000000000006  1.0000
  H   H22       1.0  0.9159999999999999  0.35832  0.20730000000000007  1.0000
  H   H23       1.0  0.5737899999999999  0.65249  0.77906  1.0000
  H   H24       1.0  0.51628  0.7070599999999999  0.85871  1.0000
  H   H25       1.0  0.2212699999999999  0.8471900000000001  0.42489  1.0000
  H   H26       1.0  0.14099999999999993  0.79298  0.48382  1.0000
  H   H27       1.0  0.84849  0.22049  0.003550000000000001  1.0000
  H   H28       1.0  0.79402  0.14133999999999997  0.08053  1.0000
  H   H29       1.0  0.92756  0.50357  0.72154  1.0000
  H   H30       1.0  0.9848399999999998  0.5804599999999998  0.6409500000000002  1.0000
  H   H31       1.0  0.50503  0.92628  0.3478100000000001  1.0000
  H   H32       1.0  0.5815300000000001  0.9841299999999998  0.29223  1.0000
  H   H33       1.0  0.9245699999999999  0.22129  0.34726  1.0000
  H   H34       1.0  0.9836099999999999  0.14082999999999996  0.29298000000000013  1.0000
  H   H35       1.0  0.5049300000000001  0.8479999999999996  0.72095  1.0000
  H   H36       1.0  0.5819800000000002  0.79333  0.64142  1.0000
  H   H37       1.0  0.22151000000000007  0.92642  0.00527  1.0000
  H   H38       1.0  0.14105999999999985  0.98345  0.08213  1.0000
  H   H39       1.0  0.8479099999999999  0.50491  0.42644  1.0000
  H   H40       1.0  0.7924400000000001  0.58151  0.48419  1.0000
  H   H41       1.0  0.8470699999999999  0.9246999999999999  0.7207200000000002  1.0000
  H   H42       1.0  0.7933  0.98269  0.6408  1.0000
  H   H43       1.0  0.22062000000000007  0.5041499999999998  0.34829  1.0000
  H   H44       1.0  0.14144999999999994  0.58153  0.29353  1.0000
  H   H45       1.0  0.50559  0.2215399999999999  0.42622  1.0000
  H   H46       1.0  0.5825400000000001  0.14091999999999993  0.4832300000000001  1.0000
  H   H47       1.0  0.92656  0.8478499999999998  0.00486  1.0000
  H   H48       1.0  0.98415  0.79223  0.08146  1.0000
  H   H49       1.0  0.7210599999999999  0.34785000000000005  0.50493  1.0000
  H   H50       1.0  0.6418900000000001  0.29260999999999987  0.58353  1.0000
  H   H51       1.0  0.34718999999999994  0.72111  0.9267300000000003  1.0000
  H   H52       1.0  0.29288999999999993  0.6417  0.9846300000000001  1.0000
  H   H53       1.0  0.42674  0.004759999999999944  0.8475300000000002  1.0000
  H   H54       1.0  0.4836599999999999  0.08195  0.79163  1.0000
  H   H55       1.0  0.004320000000000021  0.42697999999999997  0.22233  1.0000
  H   H56       1.0  0.08139999999999997  0.4843299999999999  0.14200000000000004  1.0000
  H   H57       1.0  0.4259099999999997  0.72214  0.50599  1.0000
  H   H58       1.0  0.4824700000000001  0.6419799999999998  0.58348  1.0000
  H   H59       1.0  0.004869999999999956  0.34751000000000004  0.92668  1.0000
  H   H60       1.0  0.08201999999999995  0.29159  0.9837700000000003  1.0000
  H   H61       1.0  0.7211399999999997  0.42612  0.8471300000000003  1.0000
  H   H62       1.0  0.64153  0.4841299999999998  0.7926600000000003  1.0000
  H   H63       1.0  0.34719000000000005  0.006510000000000002  0.22097  1.0000
  H   H64       1.0  0.2924899999999999  0.08478  0.14198000000000002  1.0000
  H   H65       1.0  0.34733999999999987  0.42660999999999993  0.50483  1.0000
  H   H66       1.0  0.2913900000000001  0.48353999999999986  0.58225  1.0000
  H   H67       1.0  0.72214  0.00542  0.92623  1.0000
  H   H68       1.0  0.64192  0.08278000000000002  0.983  1.0000
  H   H69       1.0  0.005160000000000115  0.7209799999999998  0.84783  1.0000
  H   H70       1.0  0.084  0.64168  0.7927  1.0000
  H   H71       1.0  0.42621  0.34751  0.22094  1.0000
  H   H72       1.0  0.4837200000000001  0.29294  0.14129  1.0000
  H   H73       1.0  0.77873  0.15281  0.57511  1.0000
  H   H74       1.0  0.8589999999999999  0.20702  0.51618  1.0000
  H   H75       1.0  0.15150999999999987  0.77951  0.99645  1.0000
  H   H76       1.0  0.20598000000000005  0.8586600000000001  0.91947  1.0000
  H   H77       1.0  0.07243999999999996  0.49642999999999987  0.2784600000000001  1.0000
  H   H78       1.0  0.01515999999999992  0.41953999999999997  0.3590500000000001  1.0000
  H   H79       1.0  0.4949699999999999  0.07371999999999994  0.6521900000000003  1.0000
  H   H80       1.0  0.41847  0.015869999999999964  0.70777  1.0000
  H   H81       1.0  0.07542999999999989  0.77871  0.65274  1.0000
  H   H82       1.0  0.01639000000000008  0.8591699999999999  0.7070200000000002  1.0000
  H   H83       1.0  0.4950699999999999  0.152  0.27905  1.0000
  H   H84       1.0  0.41801999999999995  0.20666999999999996  0.35858  1.0000
  H   H85       1.0  0.77849  0.07357999999999992  0.9947300000000002  1.0000
  H   H86       1.0  0.85894  0.016549999999999933  0.9178700000000002  1.0000
  H   H87       1.0  0.15209000000000011  0.49508999999999975  0.5735600000000001  1.0000
  H   H88       1.0  0.20756  0.41849  0.51581  1.0000
  H   H89       1.0  0.15292999999999995  0.07529999999999999  0.27928  1.0000
  H   H90       1.0  0.20669999999999994  0.01731  0.3592  1.0000
  H   H91       1.0  0.7793799999999999  0.4958499999999998  0.6517100000000002  1.0000
  H   H92       1.0  0.8585499999999999  0.41847  0.70647  1.0000
  H   H93       1.0  0.4944100000000002  0.7784599999999999  0.57378  1.0000
  H   H94       1.0  0.41746000000000005  0.8590799999999998  0.51677  1.0000
  H   H95       1.0  0.07343999999999998  0.1521499999999999  0.9951400000000002  1.0000
  H   H96       1.0  0.015850000000000013  0.20777000000000007  0.91854  1.0000
  C   C1        1.0  0.3117600000000002  0.6819099999999999  0.4242900000000001  1.0000
  C   C2        1.0  0.36464  0.6119399999999998  0.37937  1.0000
  C   C3        1.0  0.6825200000000001  0.3117299999999999  0.08045  1.0000
  C   C4        1.0  0.6128500000000001  0.36406  0.14279  1.0000
  C   C5        1.0  0.58106  0.92478  0.18266  1.0000
  C   C6        1.0  0.6433200000000002  0.8797599999999999  0.11284000000000002  1.0000
  C   C7        1.0  0.9253400000000002  0.5804599999999998  0.81105  1.0000
  C   C8        1.0  0.8794399999999998  0.64291  0.8634100000000002  1.0000
  C   C9        1.0  0.5821000000000002  0.3110699999999998  0.4235  1.0000
  C   C10       1.0  0.64414  0.36371  0.37815  1.0000
  C   C11       1.0  0.92475  0.68281  0.08099000000000003  1.0000
  C   C12       1.0  0.8795799999999999  0.61321  0.14336000000000002  1.0000
  C   C13       1.0  0.3118000000000001  0.58092  0.18264  1.0000
  C   C14       1.0  0.36422000000000004  0.64331  0.11282000000000003  1.0000
  C   C15       1.0  0.6825099999999997  0.9227499999999998  0.8115200000000002  1.0000
  C   C16       1.0  0.6126400000000001  0.8779999999999997  0.8646200000000002  1.0000
  C   C17       1.0  0.6828400000000001  0.58113  0.42472  1.0000
  C   C18       1.0  0.6131199999999999  0.6436  0.37942  1.0000
  C   C19       1.0  0.31109000000000003  0.9241  0.08162000000000003  1.0000
  C   C20       1.0  0.36370000000000013  0.87873  0.14383  1.0000
  C   C21       1.0  0.9240900000000001  0.31182999999999994  0.18179000000000006  1.0000
  C   C22       1.0  0.87939  0.3646  0.11158  1.0000
  C   C23       1.0  0.58114  0.68206  0.81202  1.0000
  C   C24       1.0  0.64374  0.6116799999999998  0.8644200000000001  1.0000
  C   C25       1.0  0.18754999999999986  0.8176  0.4185700000000001  1.0000
  C   C26       1.0  0.1345799999999999  0.8875999999999998  0.3562900000000001  1.0000
  C   C27       1.0  0.81863  0.18756  0.07412  1.0000
  C   C28       1.0  0.8883899999999999  0.13449999999999998  0.11902000000000001  1.0000
  C   C29       1.0  0.9200300000000001  0.57401  0.6876800000000002  1.0000
  C   C30       1.0  0.85784  0.6190300000000001  0.63521  1.0000
  C   C31       1.0  0.57528  0.91917  0.31762  1.0000
  C   C32       1.0  0.6204299999999998  0.85694  0.3875  1.0000
  C   C33       1.0  0.91841  0.18755  0.31749  1.0000
  C   C34       1.0  0.8561700000000001  0.13451999999999997  0.38735000000000014  1.0000
  C   C35       1.0  0.5753699999999999  0.8180299999999997  0.6877200000000002  1.0000
  C   C36       1.0  0.6208600000000002  0.8873999999999997  0.6344700000000002  1.0000
  C   C37       1.0  0.1878400000000001  0.9186499999999997  0.07566  1.0000
  C   C38       1.0  0.13520000000000001  0.85675  0.12056000000000003  1.0000
  C   C39       1.0  0.8177599999999999  0.57523  0.41927  1.0000
  C   C40       1.0  0.8874499999999997  0.62038  0.357  1.0000
  C   C41       1.0  0.8178500000000001  0.9174999999999995  0.68738  1.0000
  C   C42       1.0  0.8883500000000001  0.85569  0.63434  1.0000
  C   C43       1.0  0.18756000000000014  0.5747699999999998  0.31854  1.0000
  C   C44       1.0  0.13448000000000004  0.61971  0.38835  1.0000
  C   C45       1.0  0.5759899999999999  0.18775999999999998  0.41837000000000013  1.0000
  C   C46       1.0  0.62062  0.13506  0.35646  1.0000
  C   C47       1.0  0.91922  0.8177399999999998  0.07521000000000001  1.0000
  C   C48       1.0  0.8570500000000002  0.88756  0.12027  1.0000
  C   C49       1.0  0.6882400000000002  0.31808999999999976  0.57571  1.0000
  C   C50       1.0  0.6353600000000004  0.3880599999999998  0.62063  1.0000
  C   C51       1.0  0.31748000000000004  0.6882699999999999  0.91955  1.0000
  C   C52       1.0  0.38714999999999994  0.63594  0.85721  1.0000
  C   C53       1.0  0.4189399999999999  0.07522000000000001  0.81734  1.0000
  C   C54       1.0  0.35668000000000005  0.12024  0.88716  1.0000
  C   C55       1.0  0.07465999999999995  0.41954  0.18895000000000006  1.0000
  C   C56       1.0  0.12056000000000003  0.35709  0.13659  1.0000
  C   C57       1.0  0.4179  0.6889299999999999  0.5765000000000001  1.0000
  C   C58       1.0  0.3558599999999998  0.63629  0.62185  1.0000
  C   C59       1.0  0.07525  0.31718999999999997  0.91901  1.0000
  C   C60       1.0  0.12041999999999989  0.38678999999999997  0.8566400000000002  1.0000
  C   C61       1.0  0.6882000000000001  0.4190799999999999  0.8173600000000002  1.0000
  C   C62       1.0  0.63578  0.35668999999999995  0.8871800000000001  1.0000
  C   C63       1.0  0.31749  0.07725  0.18848  1.0000
  C   C64       1.0  0.38735999999999987  0.12200000000000001  0.13538  1.0000
  C   C65       1.0  0.3171599999999998  0.41886999999999996  0.57528  1.0000
  C   C66       1.0  0.3868799999999999  0.35640000000000005  0.62058  1.0000
  C   C67       1.0  0.68891  0.07589999999999997  0.91838  1.0000
  C   C68       1.0  0.6362999999999999  0.12127000000000002  0.85617  1.0000
  C   C69       1.0  0.07591000000000002  0.6881799999999998  0.8182100000000002  1.0000
  C   C70       1.0  0.12061000000000005  0.6353999999999999  0.8884200000000002  1.0000
  C   C71       1.0  0.4188599999999999  0.31793999999999994  0.18798  1.0000
  C   C72       1.0  0.35625999999999997  0.38832  0.13558  1.0000
  C   C73       1.0  0.81245  0.18239999999999998  0.58143  1.0000
  C   C74       1.0  0.86542  0.11241000000000002  0.64371  1.0000
  C   C75       1.0  0.18137000000000003  0.81244  0.92588  1.0000
  C   C76       1.0  0.11161000000000032  0.8654999999999996  0.88098  1.0000
  C   C77       1.0  0.07996999999999993  0.42599  0.3123200000000001  1.0000
  C   C78       1.0  0.14215999999999993  0.38097  0.3647900000000001  1.0000
  C   C79       1.0  0.4247199999999999  0.08082999999999999  0.68238  1.0000
  C   C80       1.0  0.3795699999999999  0.14306  0.6125  1.0000
  C   C81       1.0  0.08158999999999997  0.81245  0.68251  1.0000
  C   C82       1.0  0.14383000000000015  0.8654799999999997  0.61265  1.0000
  C   C83       1.0  0.42463  0.18197  0.31228000000000006  1.0000
  C   C84       1.0  0.37914000000000003  0.1126  0.36553  1.0000
  C   C85       1.0  0.81216  0.08135  0.92434  1.0000
  C   C86       1.0  0.8647999999999998  0.1432499999999999  0.8794400000000002  1.0000
  C   C87       1.0  0.18223999999999993  0.42477999999999994  0.5807300000000002  1.0000
  C   C88       1.0  0.11255000000000007  0.37961999999999996  0.643  1.0000
  C   C89       1.0  0.18214999999999998  0.08249999999999995  0.3126200000000001  1.0000
  C   C90       1.0  0.11164999999999994  0.14431000000000002  0.36566  1.0000
  C   C91       1.0  0.81244  0.42522999999999994  0.68146  1.0000
  C   C92       1.0  0.8655199999999998  0.38029  0.61165  1.0000
  C   C93       1.0  0.42401000000000016  0.8122399999999999  0.58163  1.0000
  C   C94       1.0  0.3793800000000001  0.8649399999999999  0.64354  1.0000
  C   C95       1.0  0.08077999999999999  0.18226000000000003  0.92479  1.0000
  C   C96       1.0  0.14295000000000002  0.11244  0.87973  1.0000
  O   O1        1.0  0.34935000000000005  0.6259799999999999  0.3141500000000001  1.0000
  O   O2        1.0  0.4195900000000001  0.5434099999999997  0.41341  1.0000
  O   O3        1.0  0.62885  0.34908  0.20799  1.0000
  O   O4        1.0  0.5431799999999999  0.41788  0.12453  1.0000
  O   O5        1.0  0.70969  0.81393  0.12771  1.0000
  O   O6        1.0  0.6235200000000001  0.9140299999999998  0.0441  1.0000
  O   O7        1.0  0.81229  0.7079199999999995  0.8492700000000002  1.0000
  O   O8        1.0  0.9140400000000002  0.6243  0.91671  1.0000
  O   O9        1.0  0.7094  0.34928  0.3113  1.0000
  O   O10       1.0  0.6247799999999999  0.41694  0.4131100000000001  1.0000
  O   O11       1.0  0.81374  0.6281099999999997  0.20966  1.0000
  O   O12       1.0  0.91363  0.54454  0.12365  1.0000
  O   O13       1.0  0.3492799999999999  0.70868  0.12847  1.0000
  O   O14       1.0  0.41811000000000004  0.6246499999999998  0.04343  1.0000
  O   O15       1.0  0.6278099999999998  0.8125000000000001  0.84916  1.0000
  O   O16       1.0  0.54404  0.9124500000000001  0.91914  1.0000
  O   O17       1.0  0.6281799999999998  0.70981  0.31337  1.0000
  O   O18       1.0  0.5444499999999999  0.62384  0.41376  1.0000
  O   O19       1.0  0.3492399999999999  0.8119599999999998  0.20929  1.0000
  O   O20       1.0  0.4170599999999999  0.91358  0.12446  1.0000
  O   O21       1.0  0.81462  0.34899  0.12522  1.0000
  O   O22       1.0  0.9134199999999999  0.41966  0.04330000000000001  1.0000
  O   O23       1.0  0.7099099999999999  0.6262  0.84917  1.0000
  O   O24       1.0  0.62438  0.5427  0.9187  1.0000
  O   O25       1.0  0.14777999999999986  0.87179  0.29179  1.0000
  O   O26       1.0  0.08177000000000005  0.9573799999999999  0.37486000000000014  1.0000
  O   O27       1.0  0.8729699999999999  0.14899  0.18528  1.0000
  O   O28       1.0  0.95791  0.08049  0.08489  1.0000
  O   O29       1.0  0.7922300000000001  0.68608  0.64914  1.0000
  O   O30       1.0  0.8760899999999999  0.58455  0.58223  1.0000
  O   O31       1.0  0.6871600000000003  0.7911599999999995  0.3721000000000001  1.0000
  O   O32       1.0  0.58588  0.8758599999999996  0.45659  1.0000
  O   O33       1.0  0.7919399999999999  0.14744  0.3713  1.0000
  O   O34       1.0  0.8746599999999999  0.08187  0.45725  1.0000
  O   O35       1.0  0.6877399999999999  0.8713700000000001  0.6484  1.0000
  O   O36       1.0  0.5860300000000003  0.9569499999999995  0.5809700000000002  1.0000
  O   O37       1.0  0.14906000000000005  0.7914099999999998  0.18782  1.0000
  O   O38       1.0  0.08252000000000001  0.87549  0.08542  1.0000
  O   O39       1.0  0.8721699999999999  0.6871299999999998  0.2911100000000001  1.0000
  O   O40       1.0  0.95658  0.58582  0.37584  1.0000
  O   O41       1.0  0.87289  0.79095  0.64771  1.0000
  O   O42       1.0  0.9578900000000002  0.8746299999999997  0.58158  1.0000
  O   O43       1.0  0.14891000000000013  0.6859499999999997  0.3731100000000001  1.0000
  O   O44       1.0  0.08048999999999995  0.58544  0.45765000000000006  1.0000
  O   O45       1.0  0.6877599999999998  0.14868  0.29102  1.0000
  O   O46       1.0  0.5853  0.08246  0.37544  1.0000
  O   O47       1.0  0.7911300000000002  0.8723899999999998  0.18682  1.0000
  O   O48       1.0  0.87607  0.95658  0.08579  1.0000
  O   O49       1.0  0.6506500000000001  0.37402  0.68585  1.0000
  O   O50       1.0  0.5804100000000001  0.45659  0.58659  1.0000
  O   O51       1.0  0.37115  0.65092  0.79201  1.0000
  O   O52       1.0  0.45682000000000006  0.5821199999999999  0.87547  1.0000
  O   O53       1.0  0.29030999999999996  0.18607000000000004  0.87229  1.0000
  O   O54       1.0  0.3764799999999998  0.08596999999999996  0.9559000000000002  1.0000
  O   O55       1.0  0.18771000000000002  0.29207999999999995  0.15073000000000006  1.0000
  O   O56       1.0  0.08596  0.3757  0.08329  1.0000
  O   O57       1.0  0.29060000000000014  0.65072  0.6887  1.0000
  O   O58       1.0  0.37522  0.5830599999999999  0.5868900000000002  1.0000
  O   O59       1.0  0.18626000000000012  0.3718899999999998  0.79034  1.0000
  O   O60       1.0  0.08637000000000004  0.45546000000000003  0.87636  1.0000
  O   O61       1.0  0.6507200000000003  0.29132  0.87153  1.0000
  O   O62       1.0  0.5818899999999996  0.37535  0.95657  1.0000
  O   O63       1.0  0.3721900000000001  0.1875  0.15084  1.0000
  O   O64       1.0  0.4559599999999999  0.08755  0.08086  1.0000
  O   O65       1.0  0.37182  0.29019  0.68663  1.0000
  O   O66       1.0  0.4555499999999999  0.37616  0.58624  1.0000
  O   O67       1.0  0.6507599999999999  0.18804000000000004  0.79071  1.0000
  O   O68       1.0  0.5829400000000001  0.08642000000000001  0.87554  1.0000
  O   O69       1.0  0.18537999999999996  0.65101  0.87478  1.0000
  O   O70       1.0  0.08657999999999978  0.58034  0.9567000000000002  1.0000
  O   O71       1.0  0.29009000000000007  0.3738  0.15083  1.0000
  O   O72       1.0  0.37562  0.4573  0.0813  1.0000
  O   O73       1.0  0.8522199999999999  0.12821  0.70821  1.0000
  O   O74       1.0  0.9182299999999999  0.04263000000000001  0.62514  1.0000
  O   O75       1.0  0.12702999999999995  0.8510100000000002  0.81472  1.0000
  O   O76       1.0  0.042090000000000086  0.91951  0.91511  1.0000
  O   O77       1.0  0.20777000000000004  0.31392  0.35086  1.0000
  O   O78       1.0  0.12390999999999999  0.41545  0.41777  1.0000
  O   O79       1.0  0.3128399999999999  0.20883999999999991  0.6279000000000002  1.0000
  O   O80       1.0  0.4141199999999999  0.12414000000000003  0.54341  1.0000
  O   O81       1.0  0.20806000000000005  0.85256  0.6287  1.0000
  O   O82       1.0  0.12534000000000003  0.91813  0.54275  1.0000
  O   O83       1.0  0.31226  0.12863999999999995  0.3516  1.0000
  O   O84       1.0  0.41396999999999995  0.04304999999999997  0.4190300000000001  1.0000
  O   O85       1.0  0.85094  0.20858999999999997  0.81218  1.0000
  O   O86       1.0  0.9174800000000001  0.12451000000000001  0.91458  1.0000
  O   O87       1.0  0.12783000000000003  0.31286999999999976  0.70889  1.0000
  O   O88       1.0  0.043420000000000035  0.4141799999999998  0.62416  1.0000
  O   O89       1.0  0.12711000000000003  0.20905  0.35229  1.0000
  O   O90       1.0  0.04211  0.12537000000000004  0.41842  1.0000
  O   O91       1.0  0.85109  0.3140499999999999  0.6268900000000002  1.0000
  O   O92       1.0  0.91951  0.41456  0.54235  1.0000
  O   O93       1.0  0.31224000000000035  0.8513199999999995  0.70898  1.0000
  O   O94       1.0  0.41470000000000024  0.9175399999999997  0.6245600000000001  1.0000
  O   O95       1.0  0.20886999999999983  0.12761000000000003  0.81318  1.0000
  O   O96       1.0  0.12392999999999989  0.0434199999999999  0.9142100000000002  1.0000
  O   O97       1.0  0.24894999999999998  0.7493  0.38188  1.0000
  O   O98       1.0  0.7506999999999999  0.24953999999999998  0.11738  1.0000
  O   O99       1.0  0.6188699999999999  0.88182  0.24996  1.0000
  O   O100      1.0  0.8825499999999998  0.61788  0.7488800000000002  1.0000
  O   O101      1.0  0.6196500000000001  0.24913999999999994  0.38055  1.0000
  O   O102      1.0  0.8818700000000002  0.7501  0.11869  1.0000
  O   O103      1.0  0.24958999999999992  0.61789  0.25067  1.0000
  O   O104      1.0  0.7498900000000002  0.8803999999999995  0.74877  1.0000
  O   O105      1.0  0.7501000000000002  0.6188199999999997  0.38186  1.0000
  O   O106      1.0  0.24928999999999998  0.88096  0.11929  1.0000
  O   O107      1.0  0.88195  0.24885999999999997  0.24894  1.0000
  O   O108      1.0  0.61852  0.74976  0.74966  1.0000
  O   O109      1.0  0.7510499999999998  0.2507  0.61812  1.0000
  O   O110      1.0  0.24929999999999994  0.75046  0.8826200000000002  1.0000
  O   O111      1.0  0.3811299999999998  0.11817999999999991  0.7500400000000003  1.0000
  O   O112      1.0  0.11745000000000005  0.38212  0.25112  1.0000
  O   O113      1.0  0.3803500000000001  0.7508599999999997  0.61946  1.0000
  O   O114      1.0  0.11813000000000004  0.24989999999999993  0.88131  1.0000
  O   O115      1.0  0.75041  0.38210999999999995  0.74933  1.0000
  O   O116      1.0  0.25011  0.11959999999999998  0.25123  1.0000
  O   O117      1.0  0.24989999999999993  0.3811799999999999  0.6181500000000002  1.0000
  O   O118      1.0  0.75071  0.11903999999999991  0.88071  1.0000
  O   O119      1.0  0.11804999999999986  0.75114  0.75106  1.0000
  O   O120      1.0  0.38148  0.25024  0.25034  1.0000
