data_image0
_chemical_formula_structural       Mn8Co4H96C168S12O72
_chemical_formula_sum              "Mn8 Co4 H96 C168 S12 O72"
_cell_length_a       16.31797
_cell_length_b       17.16318
_cell_length_c       20.481219999999997
_cell_angle_alpha    90.00524
_cell_angle_beta     89.99635000000002
_cell_angle_gamma    102.40986

_symmetry_space_group_name_H-M    'P 1'
_symmetry_Int_Tables_number       1

loop_
  _symmetry_equiv_pos_as_xyz
  'x,y,z'

loop_
  _atom_site_type_symbol
  _atom_site_label
  _atom_site_symmetry_multiplicity
  _atom_site_fract_x
  _atom_site_fract_y
  _atom_site_fract_z
  _atom_site_occupancy
  Mn  Mn1       1.0  0.53649  0.75201  0.1707  1.0000
  Mn  Mn2       1.0  0.63218  0.93862  0.13697  1.0000
  Mn  Mn3       1.0  0.96369  0.74802  0.67071  1.0000
  Mn  Mn4       1.0  0.8678200000000001  0.56158  0.63708  1.0000
  Mn  Mn5       1.0  0.46347  0.24798  0.8293  1.0000
  Mn  Mn6       1.0  0.36782  0.061340000000000006  0.86305  1.0000
  Mn  Mn7       1.0  0.03634  0.25199  0.3293  1.0000
  Mn  Mn8       1.0  0.13217  0.43847  0.36294  1.0000
  Co  Co1       1.0  0.411  0.56862  0.15233  1.0000
  Co  Co2       1.0  0.089  0.93142  0.65232  1.0000
  Co  Co3       1.0  0.58899  0.43138  0.84767  1.0000
  Co  Co4       1.0  0.911  0.06859  0.34768  1.0000
  H   H1        1.0  0.38183  0.5099  0.36384  1.0000
  H   H2        1.0  0.38096  0.52329  0.48525  1.0000
  H   H3        1.0  0.53929  0.75858  0.47025  1.0000
  H   H4        1.0  0.5444  0.74305  0.34908  1.0000
  H   H5        1.0  0.29214  0.58424  0.6202800000000002  1.0000
  H   H6        1.0  0.16728  0.64434  0.64303  1.0000
  H   H7        1.0  0.3073  0.87227  0.57692  1.0000
  H   H8        1.0  0.42892  0.81277  0.55068  1.0000
  H   H9        1.0  0.43368  0.83061  0.33965  1.0000
  H   H10       1.0  0.37921  0.88112  0.4423  1.0000
  H   H11       1.0  0.47302  0.12333999999999999  0.37735  1.0000
  H   H12       1.0  0.53052  0.07299  0.27811  1.0000
  H   H13       1.0  0.22856  0.93544  0.50057  1.0000
  H   H14       1.0  0.08623  0.94925  0.46342000000000005  1.0000
  H   H15       1.0  0.18812  0.19213  0.40624  1.0000
  H   H16       1.0  0.33194  0.17779  0.44001  1.0000
  H   H17       1.0  0.87346  0.93991  0.2186  1.0000
  H   H18       1.0  0.011519999999999992  0.91347  0.25382  1.0000
  H   H19       1.0  0.9080300000000001  0.66043  0.24301  1.0000
  H   H20       1.0  0.76978  0.6877  0.2088  1.0000
  H   H21       1.0  0.03978000000000003  0.60524  0.3259  1.0000
  H   H22       1.0  0.9856700000000002  0.54754  0.43373000000000006  1.0000
  H   H23       1.0  0.97805  0.78221  0.50411  1.0000
  H   H24       1.0  0.030970000000000008  0.8406  0.39548000000000005  1.0000
  H   H25       1.0  0.11825  0.9901  0.86388  1.0000
  H   H26       1.0  0.11907999999999998  0.9767  0.9852800000000002  1.0000
  H   H27       1.0  0.96073  0.74143  0.97023  1.0000
  H   H28       1.0  0.95561  0.75698  0.8490700000000001  1.0000
  H   H29       1.0  0.20785  0.91577  0.12026000000000002  1.0000
  H   H30       1.0  0.3327  0.85569  0.14304  1.0000
  H   H31       1.0  0.19269999999999995  0.62774  0.07693  1.0000
  H   H32       1.0  0.07107999999999998  0.68722  0.05067  1.0000
  H   H33       1.0  0.06628  0.66938  0.8396500000000001  1.0000
  H   H34       1.0  0.12081  0.61893  0.9422700000000002  1.0000
  H   H35       1.0  0.02706000000000001  0.37668  0.8773  1.0000
  H   H36       1.0  0.9695  0.42698  0.7781000000000001  1.0000
  H   H37       1.0  0.27143  0.56454  0.00057  1.0000
  H   H38       1.0  0.41377  0.55072  0.9634100000000001  1.0000
  H   H39       1.0  0.31185  0.30785  0.9062  1.0000
  H   H40       1.0  0.16805  0.32219  0.93998  1.0000
  H   H41       1.0  0.62696  0.56046  0.71855  1.0000
  H   H42       1.0  0.48874  0.58658  0.75378  1.0000
  H   H43       1.0  0.59173  0.83963  0.74307  1.0000
  H   H44       1.0  0.73015  0.81279  0.70886  1.0000
  H   H45       1.0  0.46019  0.89472  0.82592  1.0000
  H   H46       1.0  0.51427  0.95243  0.9337800000000002  1.0000
  H   H47       1.0  0.52193  0.7178  0.00413  1.0000
  H   H48       1.0  0.46903  0.65937  0.8954800000000002  1.0000
  H   H49       1.0  0.6181399999999999  0.4900999999999999  0.63617  1.0000
  H   H50       1.0  0.6190299999999999  0.47672  0.51476  1.0000
  H   H51       1.0  0.4607  0.24141999999999997  0.52975  1.0000
  H   H52       1.0  0.45559  0.25694  0.6509200000000002  1.0000
  H   H53       1.0  0.70785  0.41576  0.37973  1.0000
  H   H54       1.0  0.83271  0.35566  0.35696  1.0000
  H   H55       1.0  0.69268  0.12773  0.42308  1.0000
  H   H56       1.0  0.57107  0.18724  0.44932  1.0000
  H   H57       1.0  0.56632  0.16939  0.66036  1.0000
  H   H58       1.0  0.62077  0.11888  0.55769  1.0000
  H   H59       1.0  0.52694  0.87666  0.62265  1.0000
  H   H60       1.0  0.46947  0.927  0.7219  1.0000
  H   H61       1.0  0.77142  0.06456  0.49944000000000005  1.0000
  H   H62       1.0  0.91376  0.05076  0.53657  1.0000
  H   H63       1.0  0.81188  0.80788  0.59376  1.0000
  H   H64       1.0  0.66806  0.82221  0.56001  1.0000
  H   H65       1.0  0.12639  0.060000000000000005  0.7813900000000001  1.0000
  H   H66       1.0  0.9883900000000001  0.08654  0.74616  1.0000
  H   H67       1.0  0.09201000000000001  0.33956  0.757  1.0000
  H   H68       1.0  0.23021  0.31219  0.79122  1.0000
  H   H69       1.0  0.9602  0.39477  0.67409  1.0000
  H   H70       1.0  0.014329999999999997  0.45247  0.56626  1.0000
  H   H71       1.0  0.021939999999999994  0.21779  0.49589000000000005  1.0000
  H   H72       1.0  0.969  0.15941  0.60453  1.0000
  H   H73       1.0  0.88177  0.0099  0.13613  1.0000
  H   H74       1.0  0.88092  0.0233  0.01472  1.0000
  H   H75       1.0  0.03926  0.25857  0.029770000000000005  1.0000
  H   H76       1.0  0.04439  0.24303  0.15093  1.0000
  H   H77       1.0  0.79215  0.08423  0.8797400000000001  1.0000
  H   H78       1.0  0.66729  0.14431  0.8569600000000002  1.0000
  H   H79       1.0  0.80729  0.37226  0.9230800000000001  1.0000
  H   H80       1.0  0.92891  0.31278  0.94934  1.0000
  H   H81       1.0  0.9336999999999998  0.33061  0.16035  1.0000
  H   H82       1.0  0.87918  0.38108  0.05772  1.0000
  H   H83       1.0  0.97295  0.62332  0.12269  1.0000
  H   H84       1.0  0.030500000000000024  0.57301  0.22189  1.0000
  H   H85       1.0  0.72857  0.43545  0.9994300000000002  1.0000
  H   H86       1.0  0.58623  0.44927  0.03659  1.0000
  H   H87       1.0  0.68813  0.69214  0.09379  1.0000
  H   H88       1.0  0.83194  0.6778  0.06001  1.0000
  H   H89       1.0  0.37313  0.43962  0.28144  1.0000
  H   H90       1.0  0.51131  0.41344  0.24622  1.0000
  H   H91       1.0  0.40821  0.16038  0.25695  1.0000
  H   H92       1.0  0.26982  0.18733  0.29116  1.0000
  H   H93       1.0  0.5398  0.10526  0.17407  1.0000
  H   H94       1.0  0.48571  0.04755  0.06621  1.0000
  H   H95       1.0  0.47806  0.28219  0.99586  1.0000
  H   H96       1.0  0.53097  0.34062  0.10451000000000002  1.0000
  C   C1        1.0  0.46748  0.62194  0.27652  1.0000
  C   C2        1.0  0.46309  0.62619  0.34898  1.0000
  C   C3        1.0  0.4163700000000001  0.56405  0.38702  1.0000
  C   C4        1.0  0.41497  0.57147  0.45484  1.0000
  C   C5        1.0  0.45914  0.64181  0.4839800000000001  1.0000
  C   C6        1.0  0.50577  0.70426  0.44677  1.0000
  C   C7        1.0  0.50822  0.69579  0.37929  1.0000
  C   C8        1.0  0.36665  0.69488  0.58387  1.0000
  C   C9        1.0  0.29361  0.64658  0.6096300000000001  1.0000
  C   C10       1.0  0.22468  0.68013  0.6226  1.0000
  C   C11       1.0  0.22939  0.76152  0.61035  1.0000
  C   C12       1.0  0.30313  0.80899  0.58471  1.0000
  C   C13       1.0  0.3718  0.77579  0.57061  1.0000
  C   C14       1.0  0.15674999999999994  0.79779  0.62652  1.0000
  C   C15       1.0  0.52291  0.91986  0.24345  1.0000
  C   C16       1.0  0.48452999999999996  0.94852  0.30229  1.0000
  C   C17       1.0  0.44125  0.89426  0.3483  1.0000
  C   C18       1.0  0.41024  0.92225  0.40509000000000006  1.0000
  C   C19       1.0  0.42254  0.00468  0.41487000000000007  1.0000
  C   C20       1.0  0.46367  0.05949  0.36878  1.0000
  C   C21       1.0  0.49520999999999993  0.030910000000000003  0.31272  1.0000
  C   C22       1.0  0.28766  0.05532  0.47095  1.0000
  C   C23       1.0  0.21944000000000002  0.9907400000000001  0.47888000000000003  1.0000
  C   C24       1.0  0.14017999999999997  0.99864  0.45863  1.0000
  C   C25       1.0  0.12957  0.07115  0.4318  1.0000
  C   C26       1.0  0.19796999999999995  0.13645  0.42679  1.0000
  C   C27       1.0  0.27786  0.12849  0.44553  1.0000
  C   C28       1.0  0.04718  0.07903  0.40606  1.0000
  C   C29       1.0  0.73225  0.83124  0.18781  1.0000
  C   C30       1.0  0.8139600000000001  0.81545  0.21049  1.0000
  C   C31       1.0  0.88153  0.87906  0.22349000000000002  1.0000
  C   C32       1.0  0.9584  0.86469  0.24382000000000004  1.0000
  C   C33       1.0  0.96687  0.78581  0.24995000000000003  1.0000
  C   C34       1.0  0.89989  0.72135  0.23763000000000004  1.0000
  C   C35       1.0  0.82309  0.7364  0.21828000000000003  1.0000
  C   C36       1.0  0.0377  0.72595  0.35508  1.0000
  C   C37       1.0  0.02631000000000002  0.64369  0.36485  1.0000
  C   C38       1.0  0.9959899999999999  0.61139  0.42485  1.0000
  C   C39       1.0  0.97787  0.66148  0.47451000000000004  1.0000
  C   C40       1.0  0.9921199999999999  0.74448  0.4648  1.0000
  C   C41       1.0  0.02176999999999999  0.77686  0.40476  1.0000
  C   C42       1.0  0.9394500000000001  0.62634  0.5360300000000001  1.0000
  C   C43       1.0  0.032510000000000004  0.87808  0.7765200000000001  1.0000
  C   C44       1.0  0.036929999999999984  0.87383  0.84899  1.0000
  C   C45       1.0  0.08368000000000002  0.93595  0.8870300000000001  1.0000
  C   C46       1.0  0.08507  0.92853  0.95485  1.0000
  C   C47       1.0  0.040879999999999986  0.85819  0.98398  1.0000
  C   C48       1.0  0.9942500000000001  0.79575  0.9467700000000001  1.0000
  C   C49       1.0  0.9918000000000001  0.80423  0.87929  1.0000
  C   C50       1.0  0.13335  0.80512  0.08386  1.0000
  C   C51       1.0  0.20639  0.85343  0.10962  1.0000
  C   C52       1.0  0.27531  0.81988  0.12259  1.0000
  C   C53       1.0  0.27062  0.73849  0.11035  1.0000
  C   C54       1.0  0.19687  0.69102  0.08471  1.0000
  C   C55       1.0  0.12821  0.72421  0.07060000000000001  1.0000
  C   C56       1.0  0.34327  0.70222  0.12652  1.0000
  C   C57       1.0  0.97712  0.58016  0.74345  1.0000
  C   C58       1.0  0.01547  0.55148  0.8022800000000001  1.0000
  C   C59       1.0  0.05872999999999997  0.60574  0.84829  1.0000
  C   C60       1.0  0.08975  0.57777  0.90509  1.0000
  C   C61       1.0  0.07746000000000001  0.49535  0.91487  1.0000
  C   C62       1.0  0.03634999999999999  0.44053  0.8687600000000001  1.0000
  C   C63       1.0  0.0048  0.46909  0.8127  1.0000
  C   C64       1.0  0.21232  0.44467  0.97094  1.0000
  C   C65       1.0  0.28055  0.50924  0.97887  1.0000
  C   C66       1.0  0.35981  0.50134  0.95862  1.0000
  C   C67       1.0  0.37041  0.42882  0.9317900000000001  1.0000
  C   C68       1.0  0.30201  0.36353  0.92677  1.0000
  C   C69       1.0  0.22212  0.3715  0.94552  1.0000
  C   C70       1.0  0.45280000000000004  0.42095  0.90605  1.0000
  C   C71       1.0  0.76777  0.66885  0.68778  1.0000
  C   C72       1.0  0.68618  0.6849  0.71047  1.0000
  C   C73       1.0  0.61869  0.62123  0.7234900000000001  1.0000
  C   C74       1.0  0.54178  0.63544  0.74385  1.0000
  C   C75       1.0  0.5332  0.71426  0.74999  1.0000
  C   C76       1.0  0.60009  0.7788  0.73769  1.0000
  C   C77       1.0  0.67697  0.76393  0.71831  1.0000
  C   C78       1.0  0.46228  0.77402  0.8551000000000001  1.0000
  C   C79       1.0  0.47367  0.85629  0.8648699999999999  1.0000
  C   C80       1.0  0.50397  0.88859  0.9248700000000001  1.0000
  C   C81       1.0  0.52208  0.8385  0.97452  1.0000
  C   C82       1.0  0.5078599999999999  0.7555  0.9648000000000001  1.0000
  C   C83       1.0  0.47823  0.72311  0.90477  1.0000
  C   C84       1.0  0.56051  0.87364  0.03603  1.0000
  C   C85       1.0  0.53252  0.37806  0.72348  1.0000
  C   C86       1.0  0.53689  0.37381  0.65102  1.0000
  C   C87       1.0  0.58361  0.43595  0.61299  1.0000
  C   C88       1.0  0.58502  0.42854  0.54517  1.0000
  C   C89       1.0  0.54085  0.35819  0.51602  1.0000
  C   C90       1.0  0.49421999999999994  0.29574  0.55323  1.0000
  C   C91       1.0  0.49177  0.3042  0.62071  1.0000
  C   C92       1.0  0.63333  0.30512  0.41613  1.0000
  C   C93       1.0  0.70638  0.35342  0.39037  1.0000
  C   C94       1.0  0.77531  0.31987  0.3774  1.0000
  C   C95       1.0  0.7706  0.23848  0.38965  1.0000
  C   C96       1.0  0.69686  0.19101  0.41529000000000005  1.0000
  C   C97       1.0  0.62819  0.22422  0.42939  1.0000
  C   C98       1.0  0.84325  0.20221  0.37348  1.0000
  C   C99       1.0  0.47708  0.08013  0.75655  1.0000
  C   C100      1.0  0.51546  0.05147  0.6977  1.0000
  C   C101      1.0  0.55874  0.10574  0.65171  1.0000
  C   C102      1.0  0.58975  0.07774  0.59491  1.0000
  C   C103      1.0  0.57744  0.9953199999999999  0.58513  1.0000
  C   C104      1.0  0.53631  0.94051  0.63122  1.0000
  C   C105      1.0  0.50478  0.9690799999999999  0.68728  1.0000
  C   C106      1.0  0.71233  0.94469  0.52905  1.0000
  C   C107      1.0  0.78055  0.00927  0.52112  1.0000
  C   C108      1.0  0.85981  0.00137  0.54137  1.0000
  C   C109      1.0  0.87042  0.92886  0.5682  1.0000
  C   C110      1.0  0.80202  0.86357  0.57321  1.0000
  C   C111      1.0  0.72213  0.87152  0.5544700000000001  1.0000
  C   C112      1.0  0.9528099999999999  0.92097  0.59394  1.0000
  C   C113      1.0  0.26772  0.16871  0.81217  1.0000
  C   C114      1.0  0.18598  0.18446  0.78951  1.0000
  C   C115      1.0  0.11838  0.12087  0.77651  1.0000
  C   C116      1.0  0.04153  0.13529  0.75617  1.0000
  C   C117      1.0  0.03309000000000001  0.21418  0.75005  1.0000
  C   C118      1.0  0.1001  0.27862  0.76238  1.0000
  C   C119      1.0  0.17687  0.26351  0.78173  1.0000
  C   C120      1.0  0.96228  0.27406  0.64491  1.0000
  C   C121      1.0  0.9736800000000001  0.35633  0.63514  1.0000
  C   C122      1.0  0.0040000000000000036  0.38862  0.57514  1.0000
  C   C123      1.0  0.02212000000000001  0.33852  0.52548  1.0000
  C   C124      1.0  0.00786  0.25552  0.5352  1.0000
  C   C125      1.0  0.9782100000000001  0.22315  0.59523  1.0000
  C   C126      1.0  0.060540000000000004  0.37366  0.46397  1.0000
  C   C127      1.0  0.96748  0.12193  0.22348  1.0000
  C   C128      1.0  0.96307  0.12618  0.15101  1.0000
  C   C129      1.0  0.91633  0.06405  0.11297000000000001  1.0000
  C   C130      1.0  0.91493  0.07147  0.04515000000000001  1.0000
  C   C131      1.0  0.95911  0.14181  0.01602  1.0000
  C   C132      1.0  0.005740000000000001  0.20425  0.053230000000000006  1.0000
  C   C133      1.0  0.008199999999999999  0.19577  0.12071  1.0000
  C   C134      1.0  0.86664  0.19487  0.9161400000000001  1.0000
  C   C135      1.0  0.79361  0.14657  0.89038  1.0000
  C   C136      1.0  0.72468  0.18012  0.87741  1.0000
  C   C137      1.0  0.72938  0.2615  0.88965  1.0000
  C   C138      1.0  0.80312  0.30898  0.9153000000000001  1.0000
  C   C139      1.0  0.87179  0.27579  0.92941  1.0000
  C   C140      1.0  0.65672  0.29778  0.87348  1.0000
  C   C141      1.0  0.022879999999999998  0.41985  0.25656  1.0000
  C   C142      1.0  0.98452  0.44852  0.19772  1.0000
  C   C143      1.0  0.94126  0.39426  0.15171  1.0000
  C   C144      1.0  0.9102500000000001  0.42223  0.09491  1.0000
  C   C145      1.0  0.92254  0.50465  0.08513  1.0000
  C   C146      1.0  0.96365  0.55947  0.13123  1.0000
  C   C147      1.0  0.99519  0.53091  0.18729  1.0000
  C   C148      1.0  0.78767  0.55532  0.029060000000000002  1.0000
  C   C149      1.0  0.71945  0.49075  0.02113  1.0000
  C   C150      1.0  0.64019  0.49865  0.04138  1.0000
  C   C151      1.0  0.62958  0.57117  0.06821  1.0000
  C   C152      1.0  0.69798  0.63646  0.07323  1.0000
  C   C153      1.0  0.77787  0.6285  0.05448000000000001  1.0000
  C   C154      1.0  0.54719  0.57904  0.09394  1.0000
  C   C155      1.0  0.23223999999999997  0.33118  0.31222  1.0000
  C   C156      1.0  0.31385  0.31519  0.28953  1.0000
  C   C157      1.0  0.38136  0.37884  0.27651000000000003  1.0000
  C   C158      1.0  0.45826  0.3646  0.25616  1.0000
  C   C159      1.0  0.46681  0.28576  0.25001000000000007  1.0000
  C   C160      1.0  0.3998900000000001  0.22124  0.26233  1.0000
  C   C161      1.0  0.32304000000000005  0.23615  0.2817  1.0000
  C   C162      1.0  0.53771  0.22596  0.14489  1.0000
  C   C163      1.0  0.52632  0.1437  0.13513  1.0000
  C   C164      1.0  0.49601999999999996  0.11139  0.07512  1.0000
  C   C165      1.0  0.47792  0.1615  0.025480000000000003  1.0000
  C   C166      1.0  0.4921400000000001  0.24449000000000004  0.03519  1.0000
  C   C167      1.0  0.52177  0.27688  0.09522  1.0000
  C   C168      1.0  0.43949  0.12636  0.9639700000000001  1.0000
  S   S1        1.0  0.45695  0.65348  0.5706  1.0000
  S   S2        1.0  0.39065  0.04216  0.48939  1.0000
  S   S3        1.0  0.06497000000000003  0.76683  0.27556  1.0000
  S   S4        1.0  0.043059999999999994  0.84652  0.07060000000000001  1.0000
  S   S5        1.0  0.10934  0.45785  0.98938  1.0000
  S   S6        1.0  0.43505  0.73314  0.77558  1.0000
  S   S7        1.0  0.54304  0.34652  0.4294  1.0000
  S   S8        1.0  0.60934  0.9578399999999999  0.51061  1.0000
  S   S9        1.0  0.935  0.23318  0.72443  1.0000
  S   S10       1.0  0.95693  0.15348  0.9294  1.0000
  S   S11       1.0  0.89065  0.54215  0.01062  1.0000
  S   S12       1.0  0.56494  0.26685  0.22441000000000003  1.0000
  O   O1        1.0  0.16678  0.87438  0.61695  1.0000
  O   O2        1.0  0.9902900000000001  0.0157  0.39307000000000003  1.0000
  O   O3        1.0  0.4128799999999999  0.56724  0.24630000000000002  1.0000
  O   O4        1.0  0.5242  0.84671  0.23758  1.0000
  O   O5        1.0  0.52374  0.67175  0.24739000000000003  1.0000
  O   O6        1.0  0.0911  0.75361  0.64942  1.0000
  O   O7        1.0  0.92865  0.67171  0.58431  1.0000
  O   O8        1.0  0.66961  0.77322  0.18458  1.0000
  O   O9        1.0  0.031229999999999997  0.14762  0.39538  1.0000
  O   O10       1.0  0.73135  0.90423  0.17204  1.0000
  O   O11       1.0  0.55579  0.97359  0.20097  1.0000
  O   O12       1.0  0.91266  0.55069  0.54207  1.0000
  O   O13       1.0  0.44052  0.57421  0.60037  1.0000
  O   O14       1.0  0.53113  0.71437  0.58804  1.0000
  O   O15       1.0  0.38425  0.9802499999999998  0.53909  1.0000
  O   O16       1.0  0.44415  0.12109999999999999  0.5  1.0000
  O   O17       1.0  0.12400000000000001  0.84333  0.28264  1.0000
  O   O18       1.0  0.08447  0.70349  0.23454000000000003  1.0000
  O   O19       1.0  0.33321  0.62563  0.11695  1.0000
  O   O20       1.0  0.5097  0.48428  0.89309  1.0000
  O   O21       1.0  0.08712  0.93274  0.7463000000000001  1.0000
  O   O22       1.0  0.97579  0.65332  0.73761  1.0000
  O   O23       1.0  0.9762299999999999  0.82828  0.74741  1.0000
  O   O24       1.0  0.40893  0.74639  0.14941  1.0000
  O   O25       1.0  0.57134  0.8283  0.0843  1.0000
  O   O26       1.0  0.83063  0.72666  0.68466  1.0000
  O   O27       1.0  0.46877  0.35236  0.89533  1.0000
  O   O28       1.0  0.76831  0.5958  0.6719000000000002  1.0000
  O   O29       1.0  0.94427  0.52646  0.70094  1.0000
  O   O30       1.0  0.5873  0.94931  0.04206  1.0000
  O   O31       1.0  0.059480000000000005  0.92579  0.10037  1.0000
  O   O32       1.0  0.9688799999999999  0.78563  0.08804  1.0000
  O   O33       1.0  0.11574  0.51976  0.03909  1.0000
  O   O34       1.0  0.05583999999999999  0.3789  0.99999  1.0000
  O   O35       1.0  0.37608  0.6566  0.78264  1.0000
  O   O36       1.0  0.41546  0.79646  0.7346  1.0000
  O   O37       1.0  0.83322  0.12562  0.38305  1.0000
  O   O38       1.0  0.009710000000000015  0.98429  0.60692  1.0000
  O   O39       1.0  0.58711  0.43276  0.75369  1.0000
  O   O40       1.0  0.4758  0.15329  0.76243  1.0000
  O   O41       1.0  0.47625  0.32824  0.75261  1.0000
  O   O42       1.0  0.9089  0.24639000000000003  0.35058  1.0000
  O   O43       1.0  0.07134  0.32829  0.41569000000000006  1.0000
  O   O44       1.0  0.33031  0.22679  0.81543  1.0000
  O   O45       1.0  0.96876  0.85238  0.60465  1.0000
  O   O46       1.0  0.2687  0.09573  0.82792  1.0000
  O   O47       1.0  0.44418  0.0264  0.7990199999999998  1.0000
  O   O48       1.0  0.08733  0.44931  0.45793  1.0000
  O   O49       1.0  0.55948  0.4258  0.39963  1.0000
  O   O50       1.0  0.46886  0.28564  0.41196  1.0000
  O   O51       1.0  0.61574  0.01975  0.46091  1.0000
  O   O52       1.0  0.55584  0.87889  0.5  1.0000
  O   O53       1.0  0.87596  0.15668  0.71735  1.0000
  O   O54       1.0  0.9155  0.29652  0.76546  1.0000
  O   O55       1.0  0.66678  0.37437  0.88304  1.0000
  O   O56       1.0  0.49029  0.51572  0.10691000000000002  1.0000
  O   O57       1.0  0.91287  0.06726  0.2537  1.0000
  O   O58       1.0  0.024200000000000003  0.3467  0.2624  1.0000
  O   O59       1.0  0.02377  0.17173  0.2526  1.0000
  O   O60       1.0  0.59106  0.25361  0.85059  1.0000
  O   O61       1.0  0.42865  0.1717  0.9157  1.0000
  O   O62       1.0  0.16943  0.27333  0.31536  1.0000
  O   O63       1.0  0.53122  0.64763  0.10465  1.0000
  O   O64       1.0  0.23161  0.40423  0.32808  1.0000
  O   O65       1.0  0.05573  0.47356  0.29905  1.0000
  O   O66       1.0  0.4127  0.05069  0.95795  1.0000
  O   O67       1.0  0.94051  0.0742  0.8996300000000002  1.0000
  O   O68       1.0  0.031110000000000006  0.21437  0.91196  1.0000
  O   O69       1.0  0.88425  0.48024  0.9609100000000002  1.0000
  O   O70       1.0  0.94416  0.6211  1e-05  1.0000
  O   O71       1.0  0.62393  0.34338  0.21735  1.0000
  O   O72       1.0  0.58451  0.20352  0.26541  1.0000
