data_image0
_chemical_formula_structural       Zn10H120C150N36O24
_chemical_formula_sum              "Zn10 H120 C150 N36 O24"
_cell_length_a       18.94971
_cell_length_b       20.97276
_cell_length_c       23.89836
_cell_angle_alpha    115.18033999999999
_cell_angle_beta     111.125
_cell_angle_gamma    93.87965999999999

_space_group_name_H-M_alt    "P 1"
_space_group_IT_number       1

loop_
  _space_group_symop_operation_xyz
  'x, y, z'

loop_
  _atom_site_type_symbol
  _atom_site_label
  _atom_site_symmetry_multiplicity
  _atom_site_fract_x
  _atom_site_fract_y
  _atom_site_fract_z
  _atom_site_occupancy
  Zn  Zn1       1.0  0.21808000000000005  0.5841800000000001  0.41729000000000005  1.0000
  Zn  Zn2       1.0  0.01000000000000004  0.5268100000000001  0.32560000000000006  1.0000
  Zn  Zn3       1.0  0.28128  0.51114  0.53353  1.0000
  Zn  Zn4       1.0  0.30465  0.52343  0.30165  1.0000
  Zn  Zn5       1.0  0.28539  0.7812099999999998  0.51964  1.0000
  Zn  Zn6       1.0  0.78192  0.41581000000000007  0.58272  1.0000
  Zn  Zn7       1.0  0.99001  0.47319  0.6744  1.0000
  Zn  Zn8       1.0  0.71872  0.48885000000000006  0.46647  1.0000
  Zn  Zn9       1.0  0.69535  0.47657  0.69836  1.0000
  Zn  Zn10      1.0  0.71461  0.21879000000000004  0.48036  1.0000
  H   H1        1.0  0.91114  0.6574  0.34991  1.0000
  H   H2        1.0  0.89344  0.7829200000000001  0.40610000000000007  1.0000
  H   H3        1.0  0.14392000000000005  0.87507  0.5263600000000002  1.0000
  H   H4        1.0  0.05743000000000001  0.9529200000000001  0.53914  1.0000
  H   H5        1.0  0.97139  0.92677  0.46301999999999993  1.0000
  H   H6        1.0  0.9654600000000001  0.91036  0.52805  1.0000
  H   H7        1.0  0.92932  0.41873  0.14657  1.0000
  H   H8        1.0  0.9353100000000001  0.35484  0.03449  1.0000
  H   H9        1.0  0.18828000000000006  0.42056  0.13114  1.0000
  H   H10       1.0  0.42210000000000003  0.8702  0.49474  1.0000
  H   H11       1.0  0.5121  0.87855  0.44139  1.0000
  H   H12       1.0  0.4318199999999998  0.64636  0.30228  1.0000
  H   H13       1.0  0.56862  0.8280299999999999  0.36461  1.0000
  H   H14       1.0  0.57427  0.73674  0.34304  1.0000
  H   H15       1.0  0.50211  0.7545099999999999  0.28422  1.0000
  H   H16       1.0  0.4182800000000001  0.41281  0.52429  1.0000
  H   H17       1.0  0.51544  0.3581  0.37645  1.0000
  H   H18       1.0  0.43783  0.42483999999999994  0.32325  1.0000
  H   H19       1.0  0.51395  0.34256  0.527  1.0000
  H   H20       1.0  0.50527  0.2812200000000001  0.44433  1.0000
  H   H21       1.0  0.58257  0.36171  0.49786  1.0000
  H   H22       1.0  0.40490000000000004  0.8609100000000001  0.69334  1.0000
  H   H23       1.0  0.47968  0.8603500000000001  0.80276  1.0000
  H   H24       1.0  0.39995  0.62523  0.70417  1.0000
  H   H25       1.0  0.31744  0.5172  0.09212  1.0000
  H   H26       1.0  0.35857999999999995  0.45703  0.99866  1.0000
  H   H27       1.0  0.44919999999999993  0.31847  0.08297  1.0000
  H   H28       1.0  0.40737  0.38059  0.177  1.0000
  H   H29       1.0  0.37034000000000006  0.36678000000000005  0.9064400000000001  1.0000
  H   H30       1.0  0.46130000000000004  0.43268000000000006  0.97022  1.0000
  H   H31       1.0  0.48946000000000006  0.48269  0.71816  1.0000
  H   H32       1.0  0.51705  0.4361  0.80133  1.0000
  H   H33       1.0  0.26963  0.34228  0.72053  1.0000
  H   H34       1.0  0.24265000000000003  0.39154  0.63809  1.0000
  H   H35       1.0  0.78425  0.56223  0.21272000000000002  1.0000
  H   H36       1.0  0.66279  0.53321  0.1087  1.0000
  H   H37       1.0  0.66886  0.30765  0.02052  1.0000
  H   H38       1.0  0.7863100000000001  0.33717  0.12683  1.0000
  H   H39       1.0  0.59002  0.3122100000000001  0.91943  1.0000
  H   H40       1.0  0.5469500000000002  0.30154000000000014  0.9712900000000001  1.0000
  H   H41       1.0  0.5138600000000002  0.33929000000000004  0.8268300000000001  1.0000
  H   H42       1.0  0.51343  0.42527999999999994  0.88923  1.0000
  H   H43       1.0  0.36724  0.25007000000000007  0.81814  1.0000
  H   H44       1.0  0.41886  0.22835000000000003  0.88407  1.0000
  H   H45       1.0  0.4607299999999999  0.0018200000000000028  0.6437  1.0000
  H   H46       1.0  0.5219  0.13296  0.73468  1.0000
  H   H47       1.0  0.32526  0.1313999999999999  0.78495  1.0000
  H   H48       1.0  0.26658  0.0010299999999999867  0.69543  1.0000
  H   H49       1.0  0.14183  0.41283  0.54382  1.0000
  H   H50       1.0  0.005779999999999995  0.34958  0.51239  1.0000
  H   H51       1.0  0.9055000000000001  0.41941000000000006  0.36147  1.0000
  H   H52       1.0  0.82047  0.34975  0.383  1.0000
  H   H53       1.0  0.8612900000000001  0.28058000000000005  0.39594  1.0000
  H   H54       1.0  0.8590900000000001  0.35651  0.4655000000000001  1.0000
  H   H55       1.0  0.5177700000000001  0.80229  0.8704700000000001  1.0000
  H   H56       1.0  0.45624  0.716  0.84089  1.0000
  H   H57       1.0  0.5406  0.72065  0.82548  1.0000
  H   H58       1.0  0.12078  0.35049  0.00946  1.0000
  H   H59       1.0  0.033629999999999924  0.28505  0.98088  1.0000
  H   H60       1.0  0.027459999999999932  0.36417  0.9718499999999999  1.0000
  H   H61       1.0  0.08885999999999998  0.3426  0.65009  1.0000
  H   H62       1.0  0.10657000000000005  0.21706999999999996  0.5939  1.0000
  H   H63       1.0  0.85608  0.12492000000000004  0.47364  1.0000
  H   H64       1.0  0.94258  0.04708000000000002  0.46087000000000006  1.0000
  H   H65       1.0  0.02861000000000003  0.07323000000000005  0.5369800000000001  1.0000
  H   H66       1.0  0.03453999999999995  0.08963999999999996  0.47195  1.0000
  H   H67       1.0  0.07068000000000002  0.58127  0.85343  1.0000
  H   H68       1.0  0.06468999999999983  0.64516  0.96552  1.0000
  H   H69       1.0  0.81172  0.57944  0.86886  1.0000
  H   H70       1.0  0.5779  0.1298  0.50526  1.0000
  H   H71       1.0  0.48790000000000006  0.12143999999999996  0.55861  1.0000
  H   H72       1.0  0.56818  0.35364  0.69773  1.0000
  H   H73       1.0  0.43138  0.17197000000000007  0.63539  1.0000
  H   H74       1.0  0.42573000000000005  0.26326  0.65696  1.0000
  H   H75       1.0  0.4978900000000001  0.24549000000000007  0.7157800000000001  1.0000
  H   H76       1.0  0.58172  0.58719  0.47571  1.0000
  H   H77       1.0  0.48456000000000005  0.6419  0.62355  1.0000
  H   H78       1.0  0.56217  0.57516  0.67676  1.0000
  H   H79       1.0  0.48605  0.6574400000000001  0.473  1.0000
  H   H80       1.0  0.49473000000000006  0.71878  0.55567  1.0000
  H   H81       1.0  0.41743  0.63828  0.50215  1.0000
  H   H82       1.0  0.5951  0.13909000000000002  0.30666000000000004  1.0000
  H   H83       1.0  0.52032  0.13964  0.19724  1.0000
  H   H84       1.0  0.60005  0.37476  0.29583  1.0000
  H   H85       1.0  0.68257  0.48279000000000005  0.90788  1.0000
  H   H86       1.0  0.64142  0.54296  0.00135  1.0000
  H   H87       1.0  0.5508  0.6815300000000001  0.9170400000000001  1.0000
  H   H88       1.0  0.59263  0.61941  0.823  1.0000
  H   H89       1.0  0.62966  0.63322  0.09356  1.0000
  H   H90       1.0  0.5387  0.56732  0.02978  1.0000
  H   H91       1.0  0.51054  0.5173  0.28184  1.0000
  H   H92       1.0  0.48295  0.56389  0.19867  1.0000
  H   H93       1.0  0.73037  0.65772  0.27947  1.0000
  H   H94       1.0  0.75735  0.60845  0.36191  1.0000
  H   H95       1.0  0.21575  0.43777  0.78729  1.0000
  H   H96       1.0  0.33721  0.46679000000000004  0.8913  1.0000
  H   H97       1.0  0.33114000000000016  0.6923400000000001  0.9794900000000001  1.0000
  H   H98       1.0  0.21369999999999992  0.66283  0.87317  1.0000
  H   H99       1.0  0.40998  0.68779  0.08058  1.0000
  H   H100      1.0  0.45305  0.69845  0.02871  1.0000
  H   H101      1.0  0.48614000000000007  0.66071  0.17318  1.0000
  H   H102      1.0  0.48657000000000006  0.57472  0.11077  1.0000
  H   H103      1.0  0.63276  0.74992  0.18186  1.0000
  H   H104      1.0  0.58114  0.7716400000000001  0.11593  1.0000
  H   H105      1.0  0.5392700000000001  0.9981700000000001  0.3563  1.0000
  H   H106      1.0  0.4781  0.86704  0.26532  1.0000
  H   H107      1.0  0.6747400000000001  0.86859  0.21505000000000002  1.0000
  H   H108      1.0  0.73342  0.99896  0.30457  1.0000
  H   H109      1.0  0.8581700000000002  0.58717  0.45618000000000003  1.0000
  H   H110      1.0  0.99423  0.6504200000000001  0.48761000000000004  1.0000
  H   H111      1.0  0.09450000000000003  0.58058  0.63853  1.0000
  H   H112      1.0  0.17953999999999998  0.65024  0.617  1.0000
  H   H113      1.0  0.13871  0.71942  0.60407  1.0000
  H   H114      1.0  0.14091  0.64349  0.5345  1.0000
  H   H115      1.0  0.48223  0.19771000000000002  0.12953  1.0000
  H   H116      1.0  0.54376  0.28399  0.15912  1.0000
  H   H117      1.0  0.45940000000000003  0.27934  0.17453  1.0000
  H   H118      1.0  0.87923  0.6495  0.99055  1.0000
  H   H119      1.0  0.96637  0.71495  0.01913  1.0000
  H   H120      1.0  0.97255  0.63583  0.02816  1.0000
  C   C1        1.0  0.10289000000000004  0.7586900000000001  0.45550000000000007  1.0000
  C   C2        1.0  0.03775999999999999  0.69747  0.40702  1.0000
  C   C3        1.0  0.9605000000000001  0.7048900000000001  0.38771000000000005  1.0000
  C   C4        1.0  0.9521200000000001  0.7746799999999999  0.41916999999999993  1.0000
  C   C5        1.0  0.01726  0.83692  0.46892  1.0000
  C   C6        1.0  0.09328000000000004  0.8292900000000002  0.48728000000000005  1.0000
  C   C7        1.0  0.002330000000000012  0.91068  0.5016  1.0000
  C   C8        1.0  0.12885  0.45655000000000007  0.19748  1.0000
  C   C9        1.0  0.056660000000000016  0.45707000000000003  0.20243  1.0000
  C   C10       1.0  0.98501  0.41995  0.1433  1.0000
  C   C11       1.0  0.9894300000000001  0.3842  0.08134000000000001  1.0000
  C   C12       1.0  0.06198  0.38373000000000007  0.07567  1.0000
  C   C13       1.0  0.13242  0.4199  0.13411  1.0000
  C   C14       1.0  0.38053  0.6905  0.37396  1.0000
  C   C15       1.0  0.3768000000000001  0.7528600000000001  0.42746000000000006  1.0000
  C   C16       1.0  0.42417000000000005  0.82249  0.45296000000000003  1.0000
  C   C17       1.0  0.47378000000000003  0.82596  0.42293000000000003  1.0000
  C   C18       1.0  0.4779300000000001  0.76348  0.36882  1.0000
  C   C19       1.0  0.4306400000000001  0.6949499999999998  0.34376  1.0000
  C   C20       1.0  0.53385  0.77147  0.33901  1.0000
  C   C21       1.0  0.38136000000000003  0.45291  0.39238  1.0000
  C   C22       1.0  0.37588999999999995  0.44913000000000003  0.44845999999999997  1.0000
  C   C23       1.0  0.42094  0.4127700000000001  0.47961  1.0000
  C   C24       1.0  0.47026  0.37952  0.45226  1.0000
  C   C25       1.0  0.47507  0.38381000000000004  0.39558  1.0000
  C   C26       1.0  0.43201999999999985  0.42016000000000003  0.36503  1.0000
  C   C27       1.0  0.5204700000000001  0.33922  0.48217  1.0000
  C   C28       1.0  0.35983  0.74247  0.63738  1.0000
  C   C29       1.0  0.40352999999999994  0.8103399999999998  0.69584  1.0000
  C   C30       1.0  0.4447300000000001  0.8090900000000002  0.7563500000000001  1.0000
  C   C31       1.0  0.44401  0.74334  0.76081  1.0000
  C   C32       1.0  0.4001  0.67645  0.70293  1.0000
  C   C33       1.0  0.35814  0.67691  0.64124  1.0000
  C   C34       1.0  0.33759000000000006  0.49180000000000007  0.19712  1.0000
  C   C35       1.0  0.36013  0.4529  0.14032  1.0000
  C   C36       1.0  0.34643  0.47369  0.08966  1.0000
  C   C37       1.0  0.36974  0.43984  0.03728  1.0000
  C   C38       1.0  0.40686  0.38377  0.03551  1.0000
  C   C39       1.0  0.42016  0.36192  0.0856  1.0000
  C   C40       1.0  0.39689  0.39627999999999997  0.1374  1.0000
  C   C41       1.0  0.43104  0.37413000000000013  0.9407800000000001  1.0000
  C   C42       1.0  0.35047000000000006  0.47131  0.62561  1.0000
  C   C43       1.0  0.36464  0.44003  0.67283  1.0000
  C   C44       1.0  0.44159  0.45173  0.71883  1.0000
  C   C45       1.0  0.45706  0.42517  0.76532  1.0000
  C   C46       1.0  0.3945200000000001  0.3861200000000001  0.7656800000000001  1.0000
  C   C47       1.0  0.31706  0.3731  0.71931  1.0000
  C   C48       1.0  0.30242  0.40026  0.67355  1.0000
  C   C49       1.0  0.7929900000000001  0.45130000000000003  0.17636  1.0000
  C   C50       1.0  0.7580100000000001  0.50665  0.1707  1.0000
  C   C51       1.0  0.69124  0.49091  0.11241  1.0000
  C   C52       1.0  0.65917  0.41924999999999996  0.05743999999999999  1.0000
  C   C53       1.0  0.6929300000000002  0.36327  0.06253  1.0000
  C   C54       1.0  0.75898  0.37969  0.12205000000000002  1.0000
  C   C55       1.0  0.55516  0.33467000000000013  0.94772  1.0000
  C   C56       1.0  0.47407000000000005  0.3321900000000001  0.89924  1.0000
  C   C57       1.0  0.48176000000000013  0.36714000000000013  0.85618  1.0000
  C   C58       1.0  0.42550000000000004  0.25221  0.85267  1.0000
  C   C59       1.0  0.32137  0.9154300000000001  0.6107  1.0000
  C   C60       1.0  0.3590800000000001  0.9935  0.66337  1.0000
  C   C61       1.0  0.43159  0.03087999999999997  0.67476  1.0000
  C   C62       1.0  0.46582  0.10352000000000007  0.7252500000000001  1.0000
  C   C63       1.0  0.42745  0.14046000000000003  0.7649800000000001  1.0000
  C   C64       1.0  0.35526  0.10380999999999993  0.75433  1.0000
  C   C65       1.0  0.32206  0.030739999999999972  0.70399  1.0000
  C   C66       1.0  0.03235999999999996  0.4536999999999999  0.41916999999999993  1.0000
  C   C67       1.0  0.09867999999999999  0.45133  0.46964  1.0000
  C   C68       1.0  0.09057000000000001  0.41372  0.50466  1.0000
  C   C69       1.0  0.014939999999999993  0.3792000000000001  0.48656  1.0000
  C   C70       1.0  0.9473700000000002  0.38029  0.43508  1.0000
  C   C71       1.0  0.95573  0.41794  0.40109  1.0000
  C   C72       1.0  0.8677500000000001  0.3398100000000001  0.4187600000000001  1.0000
  C   C73       1.0  0.86808  0.46791  0.23576  1.0000
  C   C74       1.0  0.49215  0.74607  0.82815  1.0000
  C   C75       1.0  0.061130000000000004  0.34381  0.00588  1.0000
  C   C76       1.0  0.89712  0.24130000000000001  0.54451  1.0000
  C   C77       1.0  0.96225  0.30253  0.59299  1.0000
  C   C78       1.0  0.0395  0.29511  0.61229  1.0000
  C   C79       1.0  0.047889999999999926  0.22531  0.58083  1.0000
  C   C80       1.0  0.98274  0.16308000000000006  0.53108  1.0000
  C   C81       1.0  0.9067200000000001  0.17069999999999994  0.51272  1.0000
  C   C82       1.0  0.9976700000000001  0.08931  0.4984  1.0000
  C   C83       1.0  0.8711600000000002  0.54345  0.80252  1.0000
  C   C84       1.0  0.9433400000000002  0.5429200000000001  0.7975800000000001  1.0000
  C   C85       1.0  0.014999999999999996  0.58004  0.8567  1.0000
  C   C86       1.0  0.010570000000000046  0.6158000000000001  0.9186600000000001  1.0000
  C   C87       1.0  0.9380200000000001  0.61627  0.92433  1.0000
  C   C88       1.0  0.8675800000000001  0.5801  0.86589  1.0000
  C   C89       1.0  0.61946  0.30949000000000004  0.62604  1.0000
  C   C90       1.0  0.6232  0.24713000000000002  0.57254  1.0000
  C   C91       1.0  0.5758300000000001  0.17751  0.54704  1.0000
  C   C92       1.0  0.52622  0.17402999999999996  0.57707  1.0000
  C   C93       1.0  0.52207  0.23651  0.63119  1.0000
  C   C94       1.0  0.56936  0.30505  0.65625  1.0000
  C   C95       1.0  0.46615000000000006  0.22852999999999998  0.661  1.0000
  C   C96       1.0  0.61864  0.54709  0.60762  1.0000
  C   C97       1.0  0.62411  0.55087  0.55154  1.0000
  C   C98       1.0  0.57906  0.58723  0.52039  1.0000
  C   C99       1.0  0.52974  0.62048  0.54775  1.0000
  C   C100      1.0  0.52493  0.61619  0.60443  1.0000
  C   C101      1.0  0.56798  0.57984  0.63497  1.0000
  C   C102      1.0  0.47952999999999996  0.66078  0.51783  1.0000
  C   C103      1.0  0.64017  0.25753  0.36262  1.0000
  C   C104      1.0  0.59647  0.18965  0.30416  1.0000
  C   C105      1.0  0.5552700000000002  0.19091  0.24365  1.0000
  C   C106      1.0  0.55599  0.25666  0.2392  1.0000
  C   C107      1.0  0.5999  0.32354  0.29708  1.0000
  C   C108      1.0  0.64186  0.32308  0.35876  1.0000
  C   C109      1.0  0.66241  0.5082  0.80289  1.0000
  C   C110      1.0  0.63987  0.5471  0.85968  1.0000
  C   C111      1.0  0.65357  0.52631  0.91035  1.0000
  C   C112      1.0  0.63026  0.56016  0.96273  1.0000
  C   C113      1.0  0.5931400000000001  0.6162300000000002  0.9645000000000001  1.0000
  C   C114      1.0  0.5798399999999999  0.63807  0.9144  1.0000
  C   C115      1.0  0.60311  0.60371  0.8626  1.0000
  C   C116      1.0  0.56897  0.62586  0.059230000000000005  1.0000
  C   C117      1.0  0.6495200000000001  0.52869  0.37439  1.0000
  C   C118      1.0  0.63536  0.55996  0.32717  1.0000
  C   C119      1.0  0.55841  0.5482700000000003  0.28117  1.0000
  C   C120      1.0  0.54294  0.5748299999999998  0.23469  1.0000
  C   C121      1.0  0.60548  0.61388  0.23432000000000003  1.0000
  C   C122      1.0  0.68294  0.6269  0.28069  1.0000
  C   C123      1.0  0.69758  0.59974  0.32645  1.0000
  C   C124      1.0  0.20701  0.5487000000000001  0.8236500000000001  1.0000
  C   C125      1.0  0.24199  0.49335  0.8293  1.0000
  C   C126      1.0  0.3087599999999999  0.50909  0.88759  1.0000
  C   C127      1.0  0.34083000000000013  0.58075  0.94256  1.0000
  C   C128      1.0  0.3070800000000001  0.63673  0.9374700000000001  1.0000
  C   C129      1.0  0.24101999999999998  0.6203  0.87796  1.0000
  C   C130      1.0  0.44484  0.66533  0.05228  1.0000
  C   C131      1.0  0.52593  0.66781  0.10077  1.0000
  C   C132      1.0  0.51824  0.63286  0.14382  1.0000
  C   C133      1.0  0.5745  0.74779  0.14733  1.0000
  C   C134      1.0  0.6786299999999998  0.08456000000000002  0.3893  1.0000
  C   C135      1.0  0.64092  0.006500000000000001  0.33663  1.0000
  C   C136      1.0  0.56841  0.96911  0.32524  1.0000
  C   C137      1.0  0.53418  0.89647  0.27475  1.0000
  C   C138      1.0  0.57255  0.85954  0.23502  1.0000
  C   C139      1.0  0.64474  0.89619  0.24568  1.0000
  C   C140      1.0  0.67794  0.96925  0.29601  1.0000
  C   C141      1.0  0.96764  0.5463  0.58083  1.0000
  C   C142      1.0  0.9013200000000001  0.54867  0.53036  1.0000
  C   C143      1.0  0.9094300000000001  0.58628  0.49534  1.0000
  C   C144      1.0  0.98506  0.6208  0.51344  1.0000
  C   C145      1.0  0.05264  0.6197  0.56492  1.0000
  C   C146      1.0  0.04427000000000006  0.5820500000000001  0.5989100000000002  1.0000
  C   C147      1.0  0.13224999999999998  0.66019  0.58125  1.0000
  C   C148      1.0  0.13193  0.53209  0.76424  1.0000
  C   C149      1.0  0.50785  0.25393  0.17185  1.0000
  C   C150      1.0  0.93887  0.6561800000000001  0.9941300000000001  1.0000
  N   N1        1.0  0.16841000000000003  0.73309  0.4628300000000001  1.0000
  N   N2        1.0  0.14457  0.66047  0.42213  1.0000
  N   N3        1.0  0.06665  0.6376000000000001  0.38799  1.0000
  N   N4        1.0  0.07432  0.4975299999999999  0.27054  1.0000
  N   N5        1.0  0.15242  0.5201  0.30526  1.0000
  N   N6        1.0  0.18658000000000002  0.49628000000000005  0.26274  1.0000
  N   N7        1.0  0.33041  0.63192  0.36289  1.0000
  N   N8        1.0  0.29775999999999997  0.6564199999999999  0.40659  1.0000
  N   N9        1.0  0.32397  0.72892  0.44569000000000003  1.0000
  N   N10       1.0  0.32268  0.48649000000000003  0.4624  1.0000
  N   N11       1.0  0.29736  0.51226  0.41805  1.0000
  N   N12       1.0  0.33171  0.49273  0.3755  1.0000
  N   N13       1.0  0.16324  0.49080000000000007  0.47457  1.0000
  N   N14       1.0  0.13846000000000006  0.51635  0.43034  1.0000
  N   N15       1.0  0.05995000000000002  0.495  0.39629  1.0000
  N   N16       1.0  0.31242  0.62135  0.57631  1.0000
  N   N17       1.0  0.28783  0.65061  0.53497  1.0000
  N   N18       1.0  0.31517  0.72324  0.57037  1.0000
  N   N19       1.0  0.83159  0.2669  0.53718  1.0000
  N   N20       1.0  0.85543  0.33953  0.57788  1.0000
  N   N21       1.0  0.9333499999999999  0.36239  0.61201  1.0000
  N   N22       1.0  0.92569  0.50247  0.72947  1.0000
  N   N23       1.0  0.8475799999999997  0.4799  0.69475  1.0000
  N   N24       1.0  0.81343  0.50372  0.73727  1.0000
  N   N25       1.0  0.66959  0.36807  0.63712  1.0000
  N   N26       1.0  0.70224  0.34357  0.59342  1.0000
  N   N27       1.0  0.67603  0.27107  0.55431  1.0000
  N   N28       1.0  0.67732  0.51351  0.53761  1.0000
  N   N29       1.0  0.70263  0.48774  0.58195  1.0000
  N   N30       1.0  0.6682900000000003  0.5072700000000001  0.6245000000000002  1.0000
  N   N31       1.0  0.83677  0.5092  0.52544  1.0000
  N   N32       1.0  0.86154  0.48365000000000014  0.5696600000000002  1.0000
  N   N33       1.0  0.94005  0.50499  0.60371  1.0000
  N   N34       1.0  0.68758  0.37864000000000003  0.42369000000000007  1.0000
  N   N35       1.0  0.71217  0.34938  0.46503000000000005  1.0000
  N   N36       1.0  0.6848300000000002  0.27675000000000005  0.42963  1.0000
  O   O1        1.0  0.27727  0.45994000000000007  0.58479  1.0000
  O   O2        1.0  0.40609  0.50761  0.62571  1.0000
  O   O3        1.0  0.40319  0.35885  0.81018  1.0000
  O   O4        1.0  0.8991300000000001  0.41822  0.24089  1.0000
  O   O5        1.0  0.90357  0.5367  0.27995  1.0000
  O   O6        1.0  0.59513  0.40915  0.00054  1.0000
  O   O7        1.0  0.26104  0.8812799999999998  0.60695  1.0000
  O   O8        1.0  0.35341  0.88319  0.56967  1.0000
  O   O9        1.0  0.4651100000000001  0.21231999999999993  0.81317  1.0000
  O   O10       1.0  0.43193  0.34629  0.98647  1.0000
  O   O11       1.0  0.30790000000000006  0.54441  0.20188  1.0000
  O   O12       1.0  0.35037  0.46733  0.24117  1.0000
  O   O13       1.0  0.7227300000000001  0.54006  0.4152100000000001  1.0000
  O   O14       1.0  0.59391  0.49238  0.3743  1.0000
  O   O15       1.0  0.5968099999999998  0.64115  0.18982  1.0000
  O   O16       1.0  0.10087  0.58177  0.75911  1.0000
  O   O17       1.0  0.09644  0.4633  0.72006  1.0000
  O   O18       1.0  0.40487000000000006  0.59084  0.99947  1.0000
  O   O19       1.0  0.73896  0.11871000000000004  0.39305  1.0000
  O   O20       1.0  0.64659  0.1168  0.43033  1.0000
  O   O21       1.0  0.5348900000000002  0.7876700000000001  0.18683  1.0000
  O   O22       1.0  0.56807  0.6537  0.01353  1.0000
  O   O23       1.0  0.69211  0.45559  0.79812  1.0000
  O   O24       1.0  0.64963  0.53267  0.75884  1.0000
