data_image0
_chemical_formula_structural       Ni8H64C112N16O40
_chemical_formula_sum              "Ni8 H64 C112 N16 O40"
_cell_length_a       10.05511
_cell_length_b       18.73196
_cell_length_c       19.82646
_cell_angle_alpha    90.07131
_cell_angle_beta     89.97911
_cell_angle_gamma    90.01024

_symmetry_space_group_name_H-M    'P 1'
_symmetry_Int_Tables_number       1

loop_
  _symmetry_equiv_pos_as_xyz
  'x,y,z'

loop_
  _atom_site_type_symbol
  _atom_site_label
  _atom_site_symmetry_multiplicity
  _atom_site_fract_x
  _atom_site_fract_y
  _atom_site_fract_z
  _atom_site_occupancy
  Ni  Ni1       1.0  0.33733  0.54149  0.43900000000000006  1.0000
  Ni  Ni2       1.0  0.66314  0.45751  0.561  1.0000
  Ni  Ni3       1.0  0.16275  0.95894  0.94007  1.0000
  Ni  Ni4       1.0  0.83606  0.04061  0.0602  1.0000
  Ni  Ni5       1.0  0.33695  0.4584  0.05967999999999999  1.0000
  Ni  Ni6       1.0  0.66281  0.54184  0.9398800000000002  1.0000
  Ni  Ni7       1.0  0.16339  0.04102  0.56022  1.0000
  Ni  Ni8       1.0  0.83701  0.95897  0.43873  1.0000
  H   H1        1.0  0.11819  0.46475  0.54168  1.0000
  H   H2        1.0  0.95506  0.29743  0.66501  1.0000
  H   H3        1.0  0.37844  0.31113999999999997  0.6354  1.0000
  H   H4        1.0  0.9667400000000002  0.06971  0.9184900000000001  1.0000
  H   H5        1.0  0.94531  0.18048  0.84683  1.0000
  H   H6        1.0  0.31309  0.12020999999999997  0.74974  1.0000
  H   H7        1.0  0.32025  0.01429  0.82487  1.0000
  H   H8        1.0  0.23152  0.19207999999999995  0.67556  1.0000
  H   H9        1.0  0.88179  0.53468  0.4584  1.0000
  H   H10       1.0  0.04608  0.70211  0.33553  1.0000
  H   H11       1.0  0.62246  0.68863  0.36479  1.0000
  H   H12       1.0  0.03387  0.93024  0.08208  1.0000
  H   H13       1.0  0.05530000000000001  0.81913  0.15321  1.0000
  H   H14       1.0  0.68742  0.87887  0.25047  1.0000
  H   H15       1.0  0.67994  0.9849499999999999  0.17571  1.0000
  H   H16       1.0  0.76926  0.80742  0.32447  1.0000
  H   H17       1.0  0.38042  0.03386  0.04236  1.0000
  H   H18       1.0  0.54535  0.20220999999999995  0.16408  1.0000
  H   H19       1.0  0.12155999999999999  0.18892  0.13479  1.0000
  H   H20       1.0  0.53302  0.43057999999999996  0.41812000000000005  1.0000
  H   H21       1.0  0.55453  0.31936  0.3465  1.0000
  H   H22       1.0  0.18704  0.37909999999999994  0.24932  1.0000
  H   H23       1.0  0.17943  0.48533  0.32435  1.0000
  H   H24       1.0  0.26951  0.30799  0.17465  1.0000
  H   H25       1.0  0.61776  0.96547  0.9584599999999999  1.0000
  H   H26       1.0  0.45459  0.79765  0.83538  1.0000
  H   H27       1.0  0.8780399999999999  0.8114299999999999  0.8654  1.0000
  H   H28       1.0  0.46748  0.5690799999999999  0.58184  1.0000
  H   H29       1.0  0.44583  0.68032  0.6533  1.0000
  H   H30       1.0  0.8135400000000002  0.62079  0.75046  1.0000
  H   H31       1.0  0.82101  0.51438  0.67566  1.0000
  H   H32       1.0  0.73101  0.69214  0.82518  1.0000
  H   H33       1.0  0.1186  0.5346899999999999  0.95809  1.0000
  H   H34       1.0  0.9541299999999999  0.70283  0.83632  1.0000
  H   H35       1.0  0.378  0.6884  0.8642200000000001  1.0000
  H   H36       1.0  0.96716  0.9300799999999999  0.58197  1.0000
  H   H37       1.0  0.94519  0.81916  0.65348  1.0000
  H   H38       1.0  0.31317  0.87901  0.75055  1.0000
  H   H39       1.0  0.32081  0.9850499999999999  0.67567  1.0000
  H   H40       1.0  0.23099  0.8078  0.82489  1.0000
  H   H41       1.0  0.8814  0.46575  0.04179  1.0000
  H   H42       1.0  0.04541  0.29729  0.16335  1.0000
  H   H43       1.0  0.62176  0.3116  0.13516  1.0000
  H   H44       1.0  0.03307  0.06987  0.41786000000000006  1.0000
  H   H45       1.0  0.05503  0.18084  0.34644  1.0000
  H   H46       1.0  0.68714  0.12095999999999998  0.24925000000000003  1.0000
  H   H47       1.0  0.67957  0.0149  0.32411  1.0000
  H   H48       1.0  0.76987  0.19206  0.17452  1.0000
  H   H49       1.0  0.38227  0.9652499999999999  0.45824  1.0000
  H   H50       1.0  0.54505  0.7978399999999998  0.33443  1.0000
  H   H51       1.0  0.12172  0.81159  0.36497  1.0000
  H   H52       1.0  0.53283  0.56913  0.08163  1.0000
  H   H53       1.0  0.55444  0.68037  0.1529  1.0000
  H   H54       1.0  0.18682  0.6209  0.25022  1.0000
  H   H55       1.0  0.17884  0.51457  0.17529  1.0000
  H   H56       1.0  0.26949  0.6922099999999999  0.32464  1.0000
  H   H57       1.0  0.61926  0.03429  0.54114  1.0000
  H   H58       1.0  0.45499  0.20162  0.66458  1.0000
  H   H59       1.0  0.87845  0.18822  0.63533  1.0000
  H   H60       1.0  0.46742000000000006  0.43093999999999993  0.91834  1.0000
  H   H61       1.0  0.44549000000000005  0.31975999999999993  0.84701  1.0000
  H   H62       1.0  0.81324  0.37915  0.74965  1.0000
  H   H63       1.0  0.82134  0.48538999999999993  0.8247  1.0000
  H   H64       1.0  0.73099  0.30716  0.67551  1.0000
  C   C1        1.0  0.37902  0.43091999999999997  0.55793  1.0000
  C   C2        1.0  0.26081  0.3913699999999999  0.58519  1.0000
  C   C3        1.0  0.13266  0.41783999999999993  0.57308  1.0000
  C   C4        1.0  0.02267  0.3832899999999999  0.60196  1.0000
  C   C5        1.0  0.04052  0.32334  0.64253  1.0000
  C   C6        1.0  0.168  0.29655  0.65449  1.0000
  C   C7        1.0  0.27825  0.3304  0.62575  1.0000
  C   C8        1.0  0.8864  0.4099899999999999  0.59005  1.0000
  C   C9        1.0  0.11041  0.22801999999999997  0.75455  1.0000
  C   C10       1.0  0.04016  0.08361999999999997  0.88042  1.0000
  C   C11       1.0  0.028470000000000002  0.14396  0.84054  1.0000
  C   C12       1.0  0.12637  0.15901  0.79235  1.0000
  C   C13       1.0  0.23283  0.11136  0.78557  1.0000
  C   C14       1.0  0.23827999999999996  0.05193  0.82753  1.0000
  C   C15       1.0  0.6231  0.5677999999999999  0.44226  1.0000
  C   C16       1.0  0.74004  0.60836  0.41508  1.0000
  C   C17       1.0  0.86806  0.5817599999999999  0.42715000000000003  1.0000
  C   C18       1.0  0.97816  0.6160399999999999  0.39824  1.0000
  C   C19       1.0  0.9604999999999999  0.67621  0.35792  1.0000
  C   C20       1.0  0.83309  0.70311  0.34598  1.0000
  C   C21       1.0  0.72257  0.6693299999999998  0.3746  1.0000
  C   C22       1.0  0.11418  0.5887699999999999  0.40962  1.0000
  C   C23       1.0  0.8902200000000001  0.77107  0.2455  1.0000
  C   C24       1.0  0.96036  0.9161799999999999  0.12006  1.0000
  C   C25       1.0  0.9720299999999998  0.85556  0.15963  1.0000
  C   C26       1.0  0.8741500000000001  0.84016  0.20773  1.0000
  C   C27       1.0  0.76766  0.8878  0.21465999999999996  1.0000
  C   C28       1.0  0.76217  0.94746  0.17299  1.0000
  C   C29       1.0  0.12197000000000001  0.06775  0.05814  1.0000
  C   C30       1.0  0.23900999999999997  0.10811999999999998  0.0853  1.0000
  C   C31       1.0  0.36685  0.08122  0.07333  1.0000
  C   C32       1.0  0.47723  0.11561999999999999  0.10177000000000001  1.0000
  C   C33       1.0  0.45985999999999994  0.1762  0.14174  1.0000
  C   C34       1.0  0.33247  0.20334  0.15367  1.0000
  C   C35       1.0  0.22174  0.16948999999999997  0.12531  1.0000
  C   C36       1.0  0.61269  0.08741999999999998  0.09014  1.0000
  C   C37       1.0  0.39044  0.272  0.2536  1.0000
  C   C38       1.0  0.45992  0.41653999999999997  0.37989  1.0000
  C   C39       1.0  0.47162  0.356  0.34011  1.0000
  C   C40       1.0  0.3741  0.34082  0.29177  1.0000
  C   C41       1.0  0.26738  0.38828  0.28501  1.0000
  C   C42       1.0  0.26174  0.44787  0.32689  1.0000
  C   C43       1.0  0.8772  0.93223  0.942  1.0000
  C   C44       1.0  0.76008  0.89194  0.91491  1.0000
  C   C45       1.0  0.63193  0.9184399999999999  0.92709  1.0000
  C   C46       1.0  0.52188  0.88379  0.8984400000000001  1.0000
  C   C47       1.0  0.53986  0.82356  0.8580699999999999  1.0000
  C   C48       1.0  0.66743  0.79665  0.84621  1.0000
  C   C49       1.0  0.77773  0.8307  0.8747800000000001  1.0000
  C   C50       1.0  0.38574  0.9111599999999999  0.90987  1.0000
  C   C51       1.0  0.61005  0.72789  0.74626  1.0000
  C   C52       1.0  0.54076  0.58317  0.61995  1.0000
  C   C53       1.0  0.52897  0.64378  0.65969  1.0000
  C   C54       1.0  0.6265  0.6590999999999998  0.708  1.0000
  C   C55       1.0  0.73321  0.61159  0.71476  1.0000
  C   C56       1.0  0.73881  0.55189  0.67294  1.0000
  C   C57       1.0  0.37713  0.56759  0.9408  1.0000
  C   C58       1.0  0.2602  0.60818  0.91433  1.0000
  C   C59       1.0  0.13222  0.58186  0.9269999999999999  1.0000
  C   C60       1.0  0.02203  0.61665  0.89886  1.0000
  C   C61       1.0  0.03972  0.6768  0.8585099999999999  1.0000
  C   C62       1.0  0.16733  0.7033799999999998  0.8461600000000001  1.0000
  C   C63       1.0  0.2778  0.66926  0.87419  1.0000
  C   C64       1.0  0.8861100000000001  0.5894899999999997  0.9108  1.0000
  C   C65       1.0  0.11025  0.7713399999999998  0.74602  1.0000
  C   C66       1.0  0.04047  0.9160699999999999  0.62004  1.0000
  C   C67       1.0  0.02863  0.85555  0.65978  1.0000
  C   C68       1.0  0.12638  0.84019  0.70788  1.0000
  C   C69       1.0  0.23298000000000002  0.88788  0.71472  1.0000
  C   C70       1.0  0.23861999999999997  0.94748  0.67292  1.0000
  C   C71       1.0  0.62298  0.43289  0.05795  1.0000
  C   C72       1.0  0.7395  0.3921399999999999  0.08509  1.0000
  C   C73       1.0  0.8676100000000001  0.41856  0.07286  1.0000
  C   C74       1.0  0.9777400000000002  0.38375999999999993  0.10108  1.0000
  C   C75       1.0  0.95991  0.32347  0.14124  1.0000
  C   C76       1.0  0.83232  0.29681  0.15343  1.0000
  C   C77       1.0  0.72183  0.33097  0.12527  1.0000
  C   C78       1.0  0.11375999999999999  0.41084  0.08913  1.0000
  C   C79       1.0  0.88968  0.22866  0.25363  1.0000
  C   C80       1.0  0.95986  0.08396  0.37974  1.0000
  C   C81       1.0  0.97161  0.14449  0.34002  1.0000
  C   C82       1.0  0.8739299999999999  0.15979  0.29182  1.0000
  C   C83       1.0  0.76738  0.11209  0.285  1.0000
  C   C84       1.0  0.7617  0.05251  0.32678  1.0000
  C   C85       1.0  0.12285  0.93228  0.44159  1.0000
  C   C86       1.0  0.24004000000000003  0.89186  0.41456999999999994  1.0000
  C   C87       1.0  0.36824  0.9182599999999999  0.42682  1.0000
  C   C88       1.0  0.4781099999999999  0.8837199999999998  0.39788  1.0000
  C   C89       1.0  0.45995  0.82365  0.35736  1.0000
  C   C90       1.0  0.33238  0.79677  0.34556  1.0000
  C   C91       1.0  0.22217000000000003  0.83076  0.37428  1.0000
  C   C92       1.0  0.61423  0.91115  0.40889  1.0000
  C   C93       1.0  0.39002  0.72799  0.24556  1.0000
  C   C94       1.0  0.45934  0.58328  0.11959  1.0000
  C   C95       1.0  0.4713399999999999  0.6438  0.15936  1.0000
  C   C96       1.0  0.37382  0.6590699999999998  0.20764  1.0000
  C   C97       1.0  0.26704  0.6116  0.21447000000000002  1.0000
  C   C98       1.0  0.26117  0.55201  0.17254  1.0000
  C   C99       1.0  0.87886  0.06782999999999999  0.55772  1.0000
  C   C100      1.0  0.76115  0.10784  0.58495  1.0000
  C   C101      1.0  0.63315  0.08128999999999999  0.57258  1.0000
  C   C102      1.0  0.52294  0.11576  0.60129  1.0000
  C   C103      1.0  0.54045  0.17577  0.64204  1.0000
  C   C104      1.0  0.66782  0.20267999999999994  0.65432  1.0000
  C   C105      1.0  0.77831  0.16884  0.62563  1.0000
  C   C106      1.0  0.3869  0.08866  0.58923  1.0000
  C   C107      1.0  0.60992  0.27175  0.7544  1.0000
  C   C108      1.0  0.54083  0.41669  0.88035  1.0000
  C   C109      1.0  0.52882  0.35616  0.8405799999999999  1.0000
  C   C110      1.0  0.62637  0.34078  0.7923  1.0000
  C   C111      1.0  0.73315  0.38828  0.7855  1.0000
  C   C112      1.0  0.73908  0.44787999999999994  0.8274300000000001  1.0000
  N   N1        1.0  0.18314  0.23541999999999996  0.69629  1.0000
  N   N2        1.0  0.14425  0.03826  0.8744799999999999  1.0000
  N   N3        1.0  0.81827  0.76409  0.30404  1.0000
  N   N4        1.0  0.8561899999999999  0.96148  0.12613  1.0000
  N   N5        1.0  0.31789  0.26467  0.19537  1.0000
  N   N6        1.0  0.35585  0.46186  0.37366  1.0000
  N   N7        1.0  0.68255  0.73545  0.80441  1.0000
  N   N8        1.0  0.6448  0.53776  0.62612  1.0000
  N   N9        1.0  0.18246  0.76437  0.80429  1.0000
  N   N10       1.0  0.14472  0.9614  0.62601  1.0000
  N   N11       1.0  0.81769  0.23562999999999998  0.19523  1.0000
  N   N12       1.0  0.85568  0.03865  0.37363  1.0000
  N   N13       1.0  0.31749  0.7356099999999998  0.30373  1.0000
  N   N14       1.0  0.3551  0.53799  0.12562  1.0000
  N   N15       1.0  0.68246  0.26386  0.69625  1.0000
  N   N16       1.0  0.64517  0.4619  0.8743400000000001  1.0000
  O   O1        1.0  0.49406000000000005  0.40381999999999996  0.56901  1.0000
  O   O2        1.0  0.35968  0.49069  0.52884  1.0000
  O   O3        1.0  0.86714  0.46262  0.55034  1.0000
  O   O4        1.0  0.78466  0.3817799999999999  0.6196  1.0000
  O   O5        1.0  0.035  0.27441  0.77715  1.0000
  O   O6        1.0  0.50693  0.5933899999999999  0.43101000000000006  1.0000
  O   O7        1.0  0.64625  0.5086  0.47146000000000005  1.0000
  O   O8        1.0  0.13314  0.53485  0.4479099999999999  1.0000
  O   O9        1.0  0.21601999999999996  0.6179499999999999  0.38092  1.0000
  O   O10       1.0  0.9649599999999999  0.72434  0.22280000000000003  1.0000
  O   O11       1.0  0.00609  0.09436  0.06741  1.0000
  O   O12       1.0  0.1453  0.007469999999999999  0.030409999999999996  1.0000
  O   O13       1.0  0.62987  0.03299  0.05224999999999999  1.0000
  O   O14       1.0  0.71561  0.11632  0.11809  1.0000
  O   O15       1.0  0.4662  0.22551  0.27592  1.0000
  O   O16       1.0  0.9931199999999999  0.90555  0.93269  1.0000
  O   O17       1.0  0.85421  0.99259  0.96963  1.0000
  O   O18       1.0  0.36699  0.96384  0.94979  1.0000
  O   O19       1.0  0.28396  0.88374  0.8796300000000001  1.0000
  O   O20       1.0  0.53379  0.77437  0.72395  1.0000
  O   O21       1.0  0.49313  0.59335  0.92949  1.0000
  O   O22       1.0  0.35435  0.50813  0.9696499999999999  1.0000
  O   O23       1.0  0.8674500000000002  0.53616  0.9498  1.0000
  O   O24       1.0  0.78406  0.61803  0.8818200000000002  1.0000
  O   O25       1.0  0.03472  0.72439  0.72383  1.0000
  O   O26       1.0  0.50684  0.40631  0.06712  1.0000
  O   O27       1.0  0.64607  0.4932199999999999  0.03062  1.0000
  O   O28       1.0  0.13254  0.46424  0.05021  1.0000
  O   O29       1.0  0.21577999999999997  0.38214  0.11802000000000001  1.0000
  O   O30       1.0  0.96476  0.27573  0.27604  1.0000
  O   O31       1.0  0.00688  0.9058  0.431  1.0000
  O   O32       1.0  0.14547  0.9920699999999999  0.47007000000000004  1.0000
  O   O33       1.0  0.63333  0.96369  0.4489000000000001  1.0000
  O   O34       1.0  0.71558  0.88389  0.37815  1.0000
  O   O35       1.0  0.46592  0.77449  0.22285000000000002  1.0000
  O   O36       1.0  0.9942499999999999  0.09468999999999998  0.56858  1.0000
  O   O37       1.0  0.85897  0.00786  0.529  1.0000
  O   O38       1.0  0.36754  0.03651  0.54877  1.0000
  O   O39       1.0  0.28547  0.11616  0.6197  1.0000
  O   O40       1.0  0.53381  0.22544999999999998  0.77718  1.0000
