data_image0
_chemical_formula_structural       Cu6H78C120N18O30
_chemical_formula_sum              "Cu6 H78 C120 N18 O30"
_cell_length_a       19.55471
_cell_length_b       19.561530000000005
_cell_length_c       19.7348
_cell_angle_alpha    60.52743
_cell_angle_beta     60.518930000000005
_cell_angle_gamma    59.99692

_space_group_name_H-M_alt    "P 1"
_space_group_IT_number       1

loop_
  _space_group_symop_operation_xyz
  'x, y, z'

loop_
  _atom_site_type_symbol
  _atom_site_label
  _atom_site_symmetry_multiplicity
  _atom_site_fract_x
  _atom_site_fract_y
  _atom_site_fract_z
  _atom_site_occupancy
  Cu  Cu1       1.0  0.041139999999999934  0.48713000000000006  0.42989  1.0000
  Cu  Cu2       1.0  0.9588600000000002  0.51287  0.57011  1.0000
  Cu  Cu3       1.0  0.48727000000000004  0.04148000000000006  0.42964999999999987  1.0000
  Cu  Cu4       1.0  0.5127300000000002  0.95852  0.57035  1.0000
  Cu  Cu5       1.0  0.04179999999999999  0.04094  0.43003  1.0000
  Cu  Cu6       1.0  0.9581999999999999  0.95905  0.56997  1.0000
  H   H1        1.0  0.74437  0.006860000000000005  0.51133  1.0000
  H   H2        1.0  0.9982300000000002  0.8500600000000001  0.7336899999999998  1.0000
  H   H3        1.0  0.8972299999999997  0.63124  0.6645  1.0000
  H   H4        1.0  0.6074000000000004  0.6560600000000001  0.84627  1.0000
  H   H5        1.0  0.37023  0.19324999999999998  0.33341  1.0000
  H   H6        1.0  0.24485999999999994  0.2850800000000001  0.0025199999999999992  1.0000
  H   H7        1.0  0.44439000000000006  0.5766900000000003  0.9797099999999997  1.0000
  H   H8        1.0  0.75514  0.7149099999999999  0.99748  1.0000
  H   H9        1.0  0.2291299999999998  0.32347  0.22264  1.0000
  H   H10       1.0  0.7143799999999998  0.5311400000000001  0.99848  1.0000
  H   H11       1.0  0.34337000000000006  0.11084  0.1504  1.0000
  H   H12       1.0  0.19419999999999996  0.10132000000000001  0.33497  1.0000
  H   H13       1.0  0.72019  0.4559  0.84796  1.0000
  H   H14       1.0  0.59262  0.3057  0.14484  1.0000
  H   H15       1.0  0.63162  0.18661000000000008  0.32269  1.0000
  H   H16       1.0  0.2515300000000002  0.58502  0.87725  1.0000
  H   H17       1.0  0.6957800000000001  0.04337999999999997  0.85423  1.0000
  H   H18       1.0  0.7743400000000003  0.7726100000000001  0.77724  1.0000
  H   H19       1.0  0.00022000000000006376  0.44403000000000004  0.9800099999999998  1.0000
  H   H20       1.0  0.7985100000000003  0.36789  0.67959  1.0000
  H   H21       1.0  0.8528300000000001  0.41651  0.73478  1.0000
  H   H22       1.0  0.5814400000000001  3.0000000000003043e-05  0.26567  1.0000
  H   H23       1.0  0.39259999999999984  0.3439400000000001  0.15374  1.0000
  H   H24       1.0  0.9789100000000003  0.7173  0.8458799999999997  1.0000
  H   H25       1.0  0.4678  0.24598000000000006  0.9993  1.0000
  H   H26       1.0  0.2798100000000001  0.54409  0.15205  1.0000
  H   H27       1.0  0.63275  0.84622  0.3196799999999999  1.0000
  H   H28       1.0  0.14119  0.36703  0.67767  1.0000
  H   H29       1.0  0.005959999999999919  0.73713  0.51149  1.0000
  H   H30       1.0  0.9997800000000001  0.55596  0.01999  1.0000
  H   H31       1.0  0.8588099999999997  0.63296  0.32234  1.0000
  H   H32       1.0  0.18453999999999984  0.8587800000000003  0.32291999999999993  1.0000
  H   H33       1.0  0.7484700000000001  0.41497  0.12275  1.0000
  H   H34       1.0  0.04346999999999996  0.40783  0.85492  1.0000
  H   H35       1.0  0.021090000000000015  0.2827  0.15412  1.0000
  H   H36       1.0  0.25563000000000013  0.9931300000000001  0.48867  1.0000
  H   H37       1.0  0.95653  0.59217  0.14508  1.0000
  H   H38       1.0  0.20148999999999995  0.6321100000000001  0.32041  1.0000
  H   H39       1.0  0.30421999999999993  0.95662  0.14577  1.0000
  H   H40       1.0  0.45848  0.97945  0.84791  1.0000
  H   H41       1.0  0.65614  0.6315  0.91463  1.0000
  H   H42       1.0  0.41462  0.7134400000000001  0.12293  1.0000
  H   H43       1.0  0.20174  0.34385  0.08727  1.0000
  H   H44       1.0  0.14716999999999997  0.58348  0.26522  1.0000
  H   H45       1.0  0.2621999999999999  0.2542800000000002  0.48886  1.0000
  H   H46       1.0  0.3683799999999999  0.81339  0.67732  1.0000
  H   H47       1.0  0.84564  0.20082  0.31955  1.0000
  H   H48       1.0  0.10917  0.39287  0.15502  1.0000
  H   H49       1.0  0.79826  0.6561400000000001  0.91273  1.0000
  H   H50       1.0  0.36768999999999996  0.20328000000000004  0.08402  1.0000
  H   H51       1.0  0.15436000000000002  0.79918  0.68045  1.0000
  H   H52       1.0  0.77087  0.67652  0.77736  1.0000
  H   H53       1.0  0.2864099999999999  0.25129  0.87811  1.0000
  H   H54       1.0  0.41855999999999993  0.99996  0.73433  1.0000
  H   H55       1.0  0.54152  0.02055  0.15209  1.0000
  H   H56       1.0  0.36725  0.15378000000000003  0.6803299999999999  1.0000
  H   H57       1.0  0.6566300000000007  0.88915  0.8496  1.0000
  H   H58       1.0  0.9940400000000001  0.26287  0.48851  1.0000
  H   H59       1.0  0.63231  0.7967200000000001  0.91599  1.0000
  H   H60       1.0  0.4073800000000001  0.69429  0.8551699999999998  1.0000
  H   H61       1.0  0.8908299999999998  0.6071200000000001  0.8449899999999998  1.0000
  H   H62       1.0  0.55561  0.4233  0.0203  1.0000
  H   H63       1.0  0.7135899999999998  0.74871  0.1219  1.0000
  H   H64       1.0  0.10276999999999999  0.36876000000000003  0.3355  1.0000
  H   H65       1.0  0.2256600000000002  0.22739  0.22276  1.0000
  H   H66       1.0  0.7378000000000002  0.7457100000000001  0.51115  1.0000
  H   H67       1.0  0.6297699999999999  0.8067400000000001  0.66659  1.0000
  H   H68       1.0  0.8058000000000001  0.8986799999999999  0.66503  1.0000
  H   H69       1.0  0.5767699999999999  0.0012400000000000035  0.97695  1.0000
  H   H70       1.0  0.28562  0.46885  0.00153  1.0000
  H   H71       1.0  0.6747900000000001  0.77385  0.78047  1.0000
  H   H72       1.0  0.32521  0.22615  0.21953  1.0000
  H   H73       1.0  0.34386  0.3684900000000001  0.08537  1.0000
  H   H74       1.0  0.81546  0.14121  0.67708  1.0000
  H   H75       1.0  0.5853799999999999  0.28655  0.87708  1.0000
  H   H76       1.0  0.0017699999999999834  0.14994000000000002  0.26631  1.0000
  H   H77       1.0  0.5321999999999999  0.7540200000000002  0.0007  1.0000
  H   H78       1.0  0.4232299999999999  0.99876  0.02305  1.0000
  C   C1        1.0  0.4167799999999998  0.7757400000000001  0.10016999999999997  1.0000
  C   C2        1.0  0.35201000000000005  0.83316  0.14099  1.0000
  C   C3        1.0  0.29289  0.58287  0.90063  1.0000
  C   C4        1.0  0.5175200000000001  0.20123000000000005  0.9680699999999998  1.0000
  C   C5        1.0  0.38327999999999973  0.9466  0.54513  1.0000
  C   C6        1.0  0.5980099999999999  0.42052  0.04285  1.0000
  C   C7        1.0  0.062239999999999976  0.40180000000000005  0.95721  1.0000
  C   C8        1.0  0.59269  0.84257  0.70901  1.0000
  C   C9        1.0  0.93505  0.38998  0.54553  1.0000
  C   C10       1.0  0.10019999999999993  0.6777200000000002  0.41973  1.0000
  C   C11       1.0  0.7996000000000001  0.17065000000000005  0.34783999999999987  1.0000
  C   C12       1.0  0.6327600000000001  0.48385  0.00226  1.0000
  C   C13       1.0  0.19805000000000023  0.89995  0.5806899999999998  1.0000
  C   C14       1.0  0.6785499999999999  0.8026700000000001  0.41912  1.0000
  C   C15       1.0  0.8330899999999999  0.67287  0.14021  1.0000
  C   C16       1.0  0.3549199999999998  0.9136900000000003  0.11269  1.0000
  C   C17       1.0  0.9492499999999998  0.8300499999999998  0.74592  1.0000
  C   C18       1.0  0.47513999999999984  0.9507200000000002  0.7469699999999998  1.0000
  C   C19       1.0  0.2620100000000001  0.7982  0.68693  1.0000
  C   C20       1.0  0.31895999999999985  0.9073800000000001  0.57934  1.0000
  C   C21       1.0  0.6181099999999999  0.8255800000000001  0.7719  1.0000
  C   C22       1.0  0.15834000000000004  0.14208  0.29258  1.0000
  C   C23       1.0  0.4975799999999999  0.9390000000000001  0.81004  1.0000
  C   C24       1.0  0.8254600000000001  0.7864000000000001  0.7695299999999998  1.0000
  C   C25       1.0  0.05074999999999999  0.16994000000000012  0.25408999999999987  1.0000
  C   C26       1.0  0.17453999999999997  0.21360000000000004  0.23047999999999996  1.0000
  C   C27       1.0  0.5159  0.12057000000000005  0.9953699999999999  1.0000
  C   C28       1.0  0.16819000000000003  0.52623  0.25323  1.0000
  C   C29       1.0  0.25977  0.25667  0.54394  1.0000
  C   C30       1.0  0.2670799999999998  0.42876000000000014  0.17912  1.0000
  C   C31       1.0  0.24196000000000004  0.50398  0.19044  1.0000
  C   C32       1.0  0.60558  0.86348  0.88343  1.0000
  C   C33       1.0  0.06175  0.24382000000000004  0.19176  1.0000
  C   C34       1.0  0.3270899999999998  0.6468400000000002  0.8597  1.0000
  C   C35       1.0  0.91386  0.6180000000000002  0.11149999999999997  1.0000
  C   C36       1.0  0.73292  0.5712299999999999  0.82088  1.0000
  C   C37       1.0  0.2535600000000001  0.26121000000000005  0.68718  1.0000
  C   C38       1.0  0.09115000000000004  0.8055300000000001  0.42067  1.0000
  C   C39       1.0  0.20040000000000002  0.82934  0.65216  1.0000
  C   C40       1.0  0.19420000000000007  0.31758999999999993  0.57975  1.0000
  C   C41       1.0  0.38867999999999997  0.12876000000000004  0.54622  1.0000
  C   C42       1.0  0.051999999999999845  0.8752300000000002  0.45462999999999987  1.0000
  C   C43       1.0  0.20045000000000002  0.31222000000000005  0.97062  1.0000
  C   C44       1.0  0.40731  0.15742  0.29099  1.0000
  C   C45       1.0  0.64962  0.60492  0.88108  1.0000
  C   C46       1.0  0.06062000000000009  0.73969  0.45645  1.0000
  C   C47       1.0  0.7464299999999999  0.7387800000000002  0.31282  1.0000
  C   C48       1.0  0.7759800000000002  0.7071899999999999  0.09874  1.0000
  C   C49       1.0  0.16689999999999994  0.32712  0.8598  1.0000
  C   C50       1.0  0.13525000000000004  0.35052  0.12022  1.0000
  C   C51       1.0  0.64507  0.08631000000000001  0.88732  1.0000
  C   C52       1.0  0.31883  0.19973000000000007  0.6523299999999997  1.0000
  C   C53       1.0  0.40198999999999996  0.57948  0.9571499999999998  1.0000
  C   C54       1.0  0.3503799999999999  0.3950700000000001  0.11892  1.0000
  C   C55       1.0  0.36724  0.51615  0.9977499999999999  1.0000
  C   C56       1.0  0.9088500000000002  0.19447  0.57933  1.0000
  C   C57       1.0  0.14282999999999998  0.40659000000000006  0.2926  1.0000
  C   C58       1.0  0.4841  0.87942  0.00464  1.0000
  C   C59       1.0  0.8058  0.6824  0.42026  1.0000
  C   C60       1.0  0.4201100000000001  0.9369999999999999  0.04517  1.0000
  C   C61       1.0  0.52486  0.049269999999999994  0.25303  1.0000
  C   C62       1.0  0.83902  0.19197  0.6498  1.0000
  C   C63       1.0  0.6875  0.48205  0.03024  1.0000
  C   C64       1.0  0.87563  0.7325200000000001  0.81995  1.0000
  C   C65       1.0  0.7402300000000002  0.74332  0.45607  1.0000
  C   C66       1.0  0.9393799999999998  0.2603000000000001  0.5435499999999998  1.0000
  C   C67       1.0  0.6167200000000002  0.05340000000000002  0.45487  1.0000
  C   C68       1.0  0.3818599999999998  0.6439100000000003  0.8887  1.0000
  C   C69       1.0  0.88042  0.63302  0.00173  1.0000
  C   C70       1.0  0.80826  0.68026  0.34971  1.0000
  C   C71       1.0  0.8647499999999998  0.6494700000000002  0.8797799999999998  1.0000
  C   C72       1.0  0.20143000000000005  0.74611  0.31336  1.0000
  C   C73       1.0  0.50241  0.06099000000000001  0.18997  1.0000
  C   C74       1.0  0.6479899999999998  0.16683999999999996  0.85901  1.0000
  C   C75       1.0  0.67905  0.16231  0.35003  1.0000
  C   C76       1.0  0.7985700000000001  0.25387999999999994  0.68664  1.0000
  C   C77       1.0  0.12955  0.93577  0.54577  1.0000
  C   C78       1.0  0.8998000000000002  0.32227999999999996  0.58027  1.0000
  C   C79       1.0  0.80195  0.10005000000000004  0.4193199999999999  1.0000
  C   C80       1.0  0.93776  0.5982  0.04279  1.0000
  C   C81       1.0  0.8290100000000001  0.31943  0.65166  1.0000
  C   C82       1.0  0.87551  0.6181900000000002  0.45413  1.0000
  C   C83       1.0  0.1709900000000001  0.6805600000000002  0.3483499999999999  1.0000
  C   C84       1.0  0.6729100000000001  0.35315  0.14030999999999993  1.0000
  C   C85       1.0  0.85717  0.5934100000000001  0.7074  1.0000
  C   C86       1.0  0.948  0.12477000000000003  0.54537  1.0000
  C   C87       1.0  0.57989  0.06299000000000002  0.95484  1.0000
  C   C88       1.0  0.6810400000000001  0.09262  0.42067  1.0000
  C   C89       1.0  0.8704400000000001  0.06423  0.45423  1.0000
  C   C90       1.0  0.78562  0.61885  0.76984  1.0000
  C   C91       1.0  0.9382499999999996  0.7561700000000003  0.80824  1.0000
  C   C92       1.0  0.7580400000000002  0.4960099999999999  0.80956  1.0000
  C   C93       1.0  0.19174000000000002  0.31972999999999996  0.65029  1.0000
  C   C94       1.0  0.7071100000000001  0.41712  0.09938  1.0000
  C   C95       1.0  0.06494999999999992  0.6100200000000001  0.45447  1.0000
  C   C96       1.0  0.22402000000000005  0.29281  0.90126  1.0000
  C   C97       1.0  0.32145  0.19732999999999998  0.58089  1.0000
  C   C98       1.0  0.31250000000000006  0.51795  0.96977  1.0000
  C   C99       1.0  0.4824800000000001  0.79876  0.03193  1.0000
  C   C100      1.0  0.21438000000000018  0.38114  0.23016  1.0000
  C   C101      1.0  0.32094999999999996  0.8376800000000001  0.6499699999999998  1.0000
  C   C102      1.0  0.3818900000000003  0.17442  0.2281  1.0000
  C   C103      1.0  0.12448999999999992  0.38181000000000004  0.54587  1.0000
  C   C104      1.0  0.39442  0.13651000000000002  0.11656999999999997  1.0000
  C   C105      1.0  0.12436000000000001  0.26748  0.18006  1.0000
  C   C106      1.0  0.61132  0.87123  0.45378  1.0000
  C   C107      1.0  0.11958  0.3669799999999999  0.9982700000000001  1.0000
  C   C108      1.0  0.16098000000000004  0.80803  0.35021  1.0000
  C   C109      1.0  0.61814  0.35609  0.11129999999999997  1.0000
  C   C110      1.0  0.5717100000000002  0.8756499999999999  0.82241  1.0000
  C   C111      1.0  0.7379900000000001  0.20179  0.31307  1.0000
  C   C112      1.0  0.8318100000000002  0.47377  0.74677  1.0000
  C   C113      1.0  0.42828999999999995  0.12434000000000002  0.17759  1.0000
  C   C114      1.0  0.7422200000000001  0.061460000000000035  0.4562499999999999  1.0000
  C   C115      1.0  0.25778000000000006  0.93853  0.54375  1.0000
  C   C116      1.0  0.58322  0.22424999999999998  0.89984  1.0000
  C   C117      1.0  0.08614  0.38199  0.8885  1.0000
  C   C118      1.0  0.79955  0.68778  0.02938  1.0000
  C   C119      1.0  0.8416499999999999  0.85792  0.70742  1.0000
  C   C120      1.0  0.68117  0.80026  0.34767  1.0000
  N   N1        1.0  0.73676  0.27315000000000006  0.23998999999999995  1.0000
  N   N2        1.0  0.12024000000000001  0.47778  0.30514  1.0000
  N   N3        1.0  0.47758  0.09490000000000001  0.30431  1.0000
  N   N4        1.0  0.68545  0.28417  0.21035  1.0000
  N   N5        1.0  0.71749  0.18025999999999998  0.7896  1.0000
  N   N6        1.0  0.52242  0.9050999999999999  0.6957  1.0000
  N   N7        1.0  0.8193600000000001  0.68577  0.21032  1.0000
  N   N8        1.0  0.26324  0.7268400000000002  0.76002  1.0000
  N   N9        1.0  0.7493699999999999  0.73702  0.23972999999999994  1.0000
  N   N10       1.0  0.18064000000000002  0.31422000000000005  0.78968  1.0000
  N   N11       1.0  0.27310999999999996  0.7491000000000001  0.24053  1.0000
  N   N12       1.0  0.25062  0.26297000000000004  0.76027  1.0000
  N   N13       1.0  0.09646  0.12056000000000003  0.30525  1.0000
  N   N14       1.0  0.28251000000000004  0.81973  0.21039999999999995  1.0000
  N   N15       1.0  0.90353  0.87943  0.69476  1.0000
  N   N16       1.0  0.87976  0.52222  0.69487  1.0000
  N   N17       1.0  0.31454999999999994  0.7158200000000001  0.78965  1.0000
  N   N18       1.0  0.7268800000000001  0.25089999999999996  0.75948  1.0000
  O   O1        1.0  0.86157  0.011959999999999998  0.52717  1.0000
  O   O2        1.0  0.0002999999999999837  0.13381000000000004  0.47253  1.0000
  O   O3        1.0  0.9101900000000008  0.60661  0.936  1.0000
  O   O4        1.0  0.07585999999999994  0.93848  0.4066  1.0000
  O   O5        1.0  0.57811  0.07640000000000001  0.40641  1.0000
  O   O6        1.0  0.9997  0.86618  0.5274799999999997  1.0000
  O   O7        1.0  0.6067000000000001  0.54637  0.93647  1.0000
  O   O8        1.0  0.9875600000000001  0.40143  0.47271  1.0000
  O   O9        1.0  0.4218800000000001  0.9236  0.59359  1.0000
  O   O10       1.0  0.93342  0.08854999999999999  0.40692  1.0000
  O   O11       1.0  0.5468999999999997  0.90866  0.9399  1.0000
  O   O12       1.0  0.08990000000000005  0.56966  0.407  1.0000
  O   O13       1.0  0.13396999999999998  0.39348  0.47266  1.0000
  O   O14       1.0  0.9101000000000001  0.43032999999999993  0.593  1.0000
  O   O15       1.0  0.4531  0.09133000000000002  0.06011  1.0000
  O   O16       1.0  0.86602  0.60651  0.5273399999999998  1.0000
  O   O17       1.0  0.08980999999999996  0.39339000000000013  0.06399999999999997  1.0000
  O   O18       1.0  0.4280600000000001  0.06568000000000003  0.5942499999999998  1.0000
  O   O19       1.0  0.9241399999999999  0.061509999999999995  0.5934  1.0000
  O   O20       1.0  0.40070000000000006  0.13760000000000003  0.4730499999999999  1.0000
  O   O21       1.0  0.012429999999999946  0.5985700000000002  0.5273  1.0000
  O   O22       1.0  0.6051900000000001  0.001710000000000003  0.528  1.0000
  O   O23       1.0  0.3932999999999999  0.4536200000000002  0.06353  1.0000
  O   O24       1.0  0.9393000000000001  0.57967  0.40559  1.0000
  O   O25       1.0  0.06658000000000006  0.91144  0.59309  1.0000
  O   O26       1.0  0.5992999999999999  0.8623900000000001  0.52696  1.0000
  O   O27       1.0  0.5719400000000001  0.93431  0.40575  1.0000
  O   O28       1.0  0.13843000000000033  0.98803  0.47283999999999987  1.0000
  O   O29       1.0  0.06068999999999998  0.42032  0.59442  1.0000
  O   O30       1.0  0.39480999999999977  0.9982900000000001  0.47201  1.0000
