data_image0
_chemical_formula_structural       Cd4H120C144N16Cl8O16
_chemical_formula_sum              "Cd4 H120 C144 N16 Cl8 O16"
_cell_length_a       12.71614
_cell_length_b       12.71611
_cell_length_c       28.22554
_cell_angle_alpha    88.79367
_cell_angle_beta     88.79802
_cell_angle_gamma    86.07184

_space_group_name_H-M_alt    "P 1"
_space_group_IT_number       1

loop_
  _space_group_symop_operation_xyz
  'x, y, z'

loop_
  _atom_site_type_symbol
  _atom_site_label
  _atom_site_symmetry_multiplicity
  _atom_site_fract_x
  _atom_site_fract_y
  _atom_site_fract_z
  _atom_site_occupancy
  Cd  Cd1       1.0  0.17577  0.7081099999999999  0.4762  1.0000
  Cd  Cd2       1.0  0.70811  0.17577  0.9762000000000001  1.0000
  Cd  Cd3       1.0  0.2918900000000001  0.82423  0.0238  1.0000
  Cd  Cd4       1.0  0.8242300000000001  0.29189  0.52379  1.0000
  H   H1        1.0  0.5742800000000002  0.25657  0.8795700000000002  1.0000
  H   H2        1.0  0.56344  0.40908  0.82183  1.0000
  H   H3        1.0  0.83357  0.36396  0.94414  1.0000
  H   H4        1.0  0.8229699999999999  0.53228  0.8949200000000002  1.0000
  H   H5        1.0  0.39375  0.57815  0.4973300000000001  1.0000
  H   H6        1.0  0.55537  0.57374  0.5486  1.0000
  H   H7        1.0  0.39855  0.82771  0.6277300000000001  1.0000
  H   H8        1.0  0.25132  0.83083  0.5687  1.0000
  H   H9        1.0  0.68585  0.70502  0.56209  1.0000
  H   H10       1.0  0.41838  0.57841  0.65465  1.0000
  H   H11       1.0  0.34765  0.61301  0.7082000000000002  1.0000
  H   H12       1.0  0.46751  0.53175  0.71097  1.0000
  H   H13       1.0  0.9252300000000001  0.82835  0.67391  1.0000
  H   H14       1.0  0.9718900000000001  0.77723  0.72995  1.0000
  H   H15       1.0  0.84506  0.84832  0.7266  1.0000
  H   H16       1.0  0.81936  0.8591  0.56129  1.0000
  H   H17       1.0  0.9824  0.86138  0.51018  1.0000
  H   H18       1.0  0.11117  0.5865  0.57257  1.0000
  H   H19       1.0  0.9554600000000001  0.57357  0.62843  1.0000
  H   H20       1.0  0.68438  0.67541  0.88882  1.0000
  H   H21       1.0  0.83414  0.49472000000000005  0.72501  1.0000
  H   H22       1.0  0.76848  0.37403  0.7239100000000003  1.0000
  H   H23       1.0  0.8135400000000003  0.4203  0.7789700000000003  1.0000
  H   H24       1.0  0.48806000000000005  0.86513  0.73837  1.0000
  H   H25       1.0  0.5401499999999999  0.99227  0.7305200000000002  1.0000
  H   H26       1.0  0.51271  0.94289  0.7891100000000002  1.0000
  H   H27       1.0  0.762  0.96537  0.8093600000000001  1.0000
  H   H28       1.0  0.77806  0.10906999999999999  0.8679000000000002  1.0000
  H   H29       1.0  0.59163  0.9597699999999999  0.96732  1.0000
  H   H30       1.0  0.5776000000000001  0.80758  0.9167  1.0000
  H   H31       1.0  0.25658  0.57428  0.3795700000000001  1.0000
  H   H32       1.0  0.40908  0.56344  0.32183  1.0000
  H   H33       1.0  0.36397  0.83357  0.44413  1.0000
  H   H34       1.0  0.53228  0.82297  0.39491  1.0000
  H   H35       1.0  0.57815  0.39376  0.99733  1.0000
  H   H36       1.0  0.57373  0.55538  0.0486  1.0000
  H   H37       1.0  0.82771  0.39855000000000007  0.12774  1.0000
  H   H38       1.0  0.83083  0.25133  0.06871  1.0000
  H   H39       1.0  0.7050200000000001  0.68586  0.06209000000000001  1.0000
  H   H40       1.0  0.5783999999999999  0.41838000000000003  0.15465  1.0000
  H   H41       1.0  0.61301  0.34764000000000006  0.2082  1.0000
  H   H42       1.0  0.53175  0.4675000000000001  0.21097  1.0000
  H   H43       1.0  0.82833  0.92523  0.17391  1.0000
  H   H44       1.0  0.77723  0.9718900000000001  0.22995000000000004  1.0000
  H   H45       1.0  0.84832  0.8450599999999999  0.2266  1.0000
  H   H46       1.0  0.8590900000000001  0.81936  0.06129000000000001  1.0000
  H   H47       1.0  0.86138  0.98241  0.010180000000000003  1.0000
  H   H48       1.0  0.5865  0.11117999999999999  0.07257  1.0000
  H   H49       1.0  0.57357  0.95546  0.12843  1.0000
  H   H50       1.0  0.67542  0.68438  0.38882  1.0000
  H   H51       1.0  0.49471000000000004  0.83414  0.22501000000000004  1.0000
  H   H52       1.0  0.37402  0.7685  0.22391000000000005  1.0000
  H   H53       1.0  0.42029  0.81354  0.27896  1.0000
  H   H54       1.0  0.86513  0.48806  0.23838000000000006  1.0000
  H   H55       1.0  0.99225  0.54017  0.23052000000000006  1.0000
  H   H56       1.0  0.94288  0.51272  0.28911  1.0000
  H   H57       1.0  0.96537  0.762  0.30936  1.0000
  H   H58       1.0  0.10907  0.77806  0.3679000000000001  1.0000
  H   H59       1.0  0.9597800000000002  0.59164  0.46733000000000013  1.0000
  H   H60       1.0  0.80759  0.5776  0.41671  1.0000
  H   H61       1.0  0.7434200000000001  0.42571999999999993  0.62042  1.0000
  H   H62       1.0  0.59092  0.43656  0.67816  1.0000
  H   H63       1.0  0.63602  0.16642999999999997  0.55587  1.0000
  H   H64       1.0  0.46772000000000014  0.17703000000000002  0.60509  1.0000
  H   H65       1.0  0.4218500000000001  0.60624  0.00266  1.0000
  H   H66       1.0  0.42627000000000004  0.44462  0.9514000000000002  1.0000
  H   H67       1.0  0.17229  0.60145  0.8722600000000001  1.0000
  H   H68       1.0  0.16916999999999996  0.74867  0.93128  1.0000
  H   H69       1.0  0.29498  0.31414000000000003  0.9379100000000002  1.0000
  H   H70       1.0  0.4215999999999999  0.58162  0.84534  1.0000
  H   H71       1.0  0.38699000000000006  0.65236  0.7918  1.0000
  H   H72       1.0  0.46824999999999994  0.5325  0.78903  1.0000
  H   H73       1.0  0.17167  0.07477  0.82608  1.0000
  H   H74       1.0  0.22277000000000002  0.02811  0.77005  1.0000
  H   H75       1.0  0.15168  0.15494  0.7734  1.0000
  H   H76       1.0  0.14091  0.18064  0.9387  1.0000
  H   H77       1.0  0.13862  0.01759  0.9898100000000001  1.0000
  H   H78       1.0  0.41350000000000003  0.88882  0.92743  1.0000
  H   H79       1.0  0.42642  0.04453  0.8715700000000001  1.0000
  H   H80       1.0  0.32458  0.31562  0.61118  1.0000
  H   H81       1.0  0.50529  0.16585000000000003  0.77499  1.0000
  H   H82       1.0  0.6259800000000002  0.2315  0.7760900000000002  1.0000
  H   H83       1.0  0.57971  0.18646  0.7210300000000002  1.0000
  H   H84       1.0  0.13487000000000005  0.51194  0.76162  1.0000
  H   H85       1.0  0.007749999999999993  0.45983  0.7694700000000001  1.0000
  H   H86       1.0  0.05711999999999998  0.48728000000000005  0.7108900000000002  1.0000
  H   H87       1.0  0.034629999999999994  0.238  0.69064  1.0000
  H   H88       1.0  0.89093  0.22194  0.6321000000000001  1.0000
  H   H89       1.0  0.04022  0.40836  0.53267  1.0000
  H   H90       1.0  0.19241  0.4224  0.58329  1.0000
  H   H91       1.0  0.42572  0.74342  0.12043000000000002  1.0000
  H   H92       1.0  0.4365500000000001  0.59092  0.17817  1.0000
  H   H93       1.0  0.16643000000000002  0.6360399999999999  0.05586  1.0000
  H   H94       1.0  0.17703  0.46772  0.10508000000000002  1.0000
  H   H95       1.0  0.60625  0.42185  0.50266  1.0000
  H   H96       1.0  0.44462999999999997  0.42626  0.45140000000000013  1.0000
  H   H97       1.0  0.6014500000000002  0.17229  0.37226  1.0000
  H   H98       1.0  0.74868  0.16917000000000001  0.43129  1.0000
  H   H99       1.0  0.31415  0.29497999999999996  0.4379100000000001  1.0000
  H   H100      1.0  0.58162  0.42159  0.34535  1.0000
  H   H101      1.0  0.6523500000000001  0.38699  0.2918000000000001  1.0000
  H   H102      1.0  0.53249  0.46824  0.28903  1.0000
  H   H103      1.0  0.07477000000000002  0.17164999999999994  0.32608  1.0000
  H   H104      1.0  0.02811  0.22277  0.27004  1.0000
  H   H105      1.0  0.15494  0.15168  0.2734  1.0000
  H   H106      1.0  0.18064  0.1409  0.4387100000000001  1.0000
  H   H107      1.0  0.017599999999999998  0.13862  0.4898200000000001  1.0000
  H   H108      1.0  0.88883  0.4135  0.42743  1.0000
  H   H109      1.0  0.04454000000000001  0.42643  0.37157  1.0000
  H   H110      1.0  0.31562  0.32458  0.11118  1.0000
  H   H111      1.0  0.16586  0.50528  0.27499  1.0000
  H   H112      1.0  0.23152000000000006  0.62596  0.27608  1.0000
  H   H113      1.0  0.18646  0.5797  0.22103000000000003  1.0000
  H   H114      1.0  0.51194  0.13487  0.26162  1.0000
  H   H115      1.0  0.45985000000000004  0.007729999999999999  0.26948  1.0000
  H   H116      1.0  0.48729  0.05711  0.21089  1.0000
  H   H117      1.0  0.238  0.03463  0.19064  1.0000
  H   H118      1.0  0.22194  0.89093  0.1321  1.0000
  H   H119      1.0  0.40837  0.04023  0.03267  1.0000
  H   H120      1.0  0.4224  0.19241  0.0833  1.0000
  C   C1        1.0  0.63029  0.31779  0.8801300000000002  1.0000
  C   C2        1.0  0.6232  0.40406  0.84887  1.0000
  C   C3        1.0  0.69168  0.48500000000000004  0.85411  1.0000
  C   C4        1.0  0.7731700000000002  0.38069  0.9175600000000003  1.0000
  C   C5        1.0  0.7679000000000001  0.47198  0.8894900000000001  1.0000
  C   C6        1.0  0.40083  0.63361  0.52583  1.0000
  C   C7        1.0  0.48813000000000006  0.62999  0.5548  1.0000
  C   C8        1.0  0.48850000000000005  0.69988  0.59269  1.0000
  C   C9        1.0  0.4009400000000002  0.7720100000000001  0.5989500000000001  1.0000
  C   C10       1.0  0.31877  0.77308  0.5670400000000001  1.0000
  C   C11       1.0  0.58193  0.69852  0.623  1.0000
  C   C12       1.0  0.68067  0.70322  0.6006  1.0000
  C   C13       1.0  0.77381  0.70479  0.6259  1.0000
  C   C14       1.0  0.76718  0.69821  0.6755900000000002  1.0000
  C   C15       1.0  0.5768199999999999  0.6934900000000002  0.67291  1.0000
  C   C16       1.0  0.66919  0.69286  0.69938  1.0000
  C   C17       1.0  0.42607000000000006  0.59785  0.6920300000000001  1.0000
  C   C18       1.0  0.90201  0.79362  0.70825  1.0000
  C   C19       1.0  0.87338  0.71393  0.5986400000000002  1.0000
  C   C20       1.0  0.8814599999999999  0.79626  0.56507  1.0000
  C   C21       1.0  0.9716100000000001  0.79836  0.53634  1.0000
  C   C22       1.0  0.045009999999999994  0.6455599999999999  0.5723600000000002  1.0000
  C   C23       1.0  0.95868  0.63873  0.60299  1.0000
  C   C24       1.0  0.66639  0.6876999999999999  0.7521  1.0000
  C   C25       1.0  0.65935  0.7812899999999999  0.7780900000000002  1.0000
  C   C26       1.0  0.6673100000000001  0.7785499999999999  0.82789  1.0000
  C   C27       1.0  0.67832  0.67933  0.85046  1.0000
  C   C28       1.0  0.6818400000000002  0.58462  0.82602  1.0000
  C   C29       1.0  0.67653  0.58984  0.77624  1.0000
  C   C30       1.0  0.7804600000000003  0.4443  0.7444100000000002  1.0000
  C   C31       1.0  0.5399899999999999  0.92122  0.75314  1.0000
  C   C32       1.0  0.6685200000000001  0.8728500000000001  0.85767  1.0000
  C   C33       1.0  0.72345  0.96137  0.8440100000000001  1.0000
  C   C34       1.0  0.7314500000000002  0.04193999999999999  0.8761100000000003  1.0000
  C   C35       1.0  0.6298100000000002  0.95865  0.9323500000000002  1.0000
  C   C36       1.0  0.6210500000000002  0.87309  0.9031000000000001  1.0000
  C   C37       1.0  0.3178  0.63029  0.38013  1.0000
  C   C38       1.0  0.40406  0.6232  0.34887  1.0000
  C   C39       1.0  0.48499999999999993  0.69168  0.35411  1.0000
  C   C40       1.0  0.38070000000000004  0.77316  0.4175600000000001  1.0000
  C   C41       1.0  0.47199  0.7679  0.38949  1.0000
  C   C42       1.0  0.6336100000000001  0.40084  0.025840000000000005  1.0000
  C   C43       1.0  0.6299800000000001  0.48814  0.05481  1.0000
  C   C44       1.0  0.69988  0.4885  0.09270000000000002  1.0000
  C   C45       1.0  0.77202  0.40094  0.09896  1.0000
  C   C46       1.0  0.7730800000000001  0.31877  0.06704  1.0000
  C   C47       1.0  0.69852  0.58193  0.12301  1.0000
  C   C48       1.0  0.70322  0.68067  0.1006  1.0000
  C   C49       1.0  0.70479  0.7738099999999999  0.12590000000000004  1.0000
  C   C50       1.0  0.6982000000000003  0.76718  0.17559000000000002  1.0000
  C   C51       1.0  0.6934800000000001  0.57682  0.17292  1.0000
  C   C52       1.0  0.69284  0.6691899999999998  0.19938  1.0000
  C   C53       1.0  0.5978400000000001  0.42607  0.19204000000000002  1.0000
  C   C54       1.0  0.79361  0.90201  0.20825000000000005  1.0000
  C   C55       1.0  0.71393  0.87338  0.09864  1.0000
  C   C56       1.0  0.79625  0.88147  0.06508000000000001  1.0000
  C   C57       1.0  0.79836  0.97162  0.03634000000000001  1.0000
  C   C58       1.0  0.64556  0.04502  0.07236000000000002  1.0000
  C   C59       1.0  0.63873  0.95869  0.10299  1.0000
  C   C60       1.0  0.68768  0.66638  0.2521  1.0000
  C   C61       1.0  0.7812700000000001  0.65935  0.2781  1.0000
  C   C62       1.0  0.7785400000000001  0.6673  0.32789  1.0000
  C   C63       1.0  0.67933  0.67831  0.35046  1.0000
  C   C64       1.0  0.58461  0.68183  0.32602  1.0000
  C   C65       1.0  0.58982  0.67653  0.27624  1.0000
  C   C66       1.0  0.44428999999999996  0.78047  0.24441000000000004  1.0000
  C   C67       1.0  0.92121  0.54  0.25314  1.0000
  C   C68       1.0  0.87284  0.66852  0.35768  1.0000
  C   C69       1.0  0.96136  0.72345  0.34401  1.0000
  C   C70       1.0  0.04194000000000001  0.73146  0.3761100000000001  1.0000
  C   C71       1.0  0.95865  0.62981  0.43236  1.0000
  C   C72       1.0  0.8731000000000001  0.62105  0.4031  1.0000
  C   C73       1.0  0.6822000000000001  0.36971  0.6198700000000003  1.0000
  C   C74       1.0  0.59594  0.3768000000000001  0.65112  1.0000
  C   C75       1.0  0.515  0.3083199999999999  0.64588  1.0000
  C   C76       1.0  0.6193  0.22684  0.58243  1.0000
  C   C77       1.0  0.52801  0.23210000000000003  0.6105000000000002  1.0000
  C   C78       1.0  0.36639000000000005  0.5991599999999999  0.97416  1.0000
  C   C79       1.0  0.37002  0.51186  0.94519  1.0000
  C   C80       1.0  0.30012  0.5115  0.9073  1.0000
  C   C81       1.0  0.22798  0.5990599999999998  0.9010400000000002  1.0000
  C   C82       1.0  0.22692000000000004  0.68122  0.93296  1.0000
  C   C83       1.0  0.30148  0.41806  0.87699  1.0000
  C   C84       1.0  0.29678  0.31933  0.8993900000000002  1.0000
  C   C85       1.0  0.29521  0.22618999999999997  0.8741000000000001  1.0000
  C   C86       1.0  0.3018  0.23282  0.8244100000000002  1.0000
  C   C87       1.0  0.30652000000000007  0.42318  0.82708  1.0000
  C   C88       1.0  0.30716  0.33081  0.80061  1.0000
  C   C89       1.0  0.40216  0.5739300000000002  0.8079600000000001  1.0000
  C   C90       1.0  0.20639000000000005  0.09799000000000001  0.79175  1.0000
  C   C91       1.0  0.28607  0.12661999999999998  0.9013600000000003  1.0000
  C   C92       1.0  0.20375  0.11853  0.93492  1.0000
  C   C93       1.0  0.20164000000000004  0.028379999999999996  0.96365  1.0000
  C   C94       1.0  0.3544399999999999  0.95498  0.9276400000000002  1.0000
  C   C95       1.0  0.36127  0.04131000000000001  0.8970100000000001  1.0000
  C   C96       1.0  0.31232  0.33361  0.74789  1.0000
  C   C97       1.0  0.21872999999999998  0.34064999999999995  0.7219000000000001  1.0000
  C   C98       1.0  0.22146  0.3327  0.67211  1.0000
  C   C99       1.0  0.32067  0.32168  0.64954  1.0000
  C   C100      1.0  0.4153800000000001  0.31816  0.67397  1.0000
  C   C101      1.0  0.41018000000000004  0.32346999999999987  0.7237500000000002  1.0000
  C   C102      1.0  0.55571  0.21953  0.75558  1.0000
  C   C103      1.0  0.07879  0.4599999999999999  0.74686  1.0000
  C   C104      1.0  0.12716000000000005  0.33148  0.64232  1.0000
  C   C105      1.0  0.03864000000000001  0.27655  0.65599  1.0000
  C   C106      1.0  0.9580599999999999  0.26854  0.6238900000000002  1.0000
  C   C107      1.0  0.04135  0.37019  0.56764  1.0000
  C   C108      1.0  0.12690000000000004  0.37895  0.5968900000000001  1.0000
  C   C109      1.0  0.36971  0.6822100000000001  0.11987  1.0000
  C   C110      1.0  0.3768  0.59594  0.15113  1.0000
  C   C111      1.0  0.3083099999999999  0.515  0.14588  1.0000
  C   C112      1.0  0.22683000000000006  0.61931  0.08243  1.0000
  C   C113      1.0  0.23209999999999997  0.52802  0.11050000000000003  1.0000
  C   C114      1.0  0.59917  0.36639  0.47416  1.0000
  C   C115      1.0  0.51187  0.37001  0.44519  1.0000
  C   C116      1.0  0.5115  0.30012  0.40731  1.0000
  C   C117      1.0  0.59906  0.22799  0.40104  1.0000
  C   C118      1.0  0.68123  0.22692  0.43296  1.0000
  C   C119      1.0  0.41807  0.30147  0.37699  1.0000
  C   C120      1.0  0.31933000000000006  0.29678  0.3994  1.0000
  C   C121      1.0  0.22619000000000003  0.29521  0.3741  1.0000
  C   C122      1.0  0.23282000000000005  0.30178  0.32441  1.0000
  C   C123      1.0  0.4231800000000001  0.30649999999999994  0.32708  1.0000
  C   C124      1.0  0.33081  0.30714  0.30061  1.0000
  C   C125      1.0  0.57393  0.40215  0.30796  1.0000
  C   C126      1.0  0.09799  0.20638  0.29175000000000006  1.0000
  C   C127      1.0  0.12662  0.28607  0.4013600000000001  1.0000
  C   C128      1.0  0.11853000000000001  0.20374  0.43492  1.0000
  C   C129      1.0  0.028389999999999985  0.20164  0.46366000000000007  1.0000
  C   C130      1.0  0.95499  0.35444  0.4276400000000001  1.0000
  C   C131      1.0  0.04132000000000001  0.36127  0.39701  1.0000
  C   C132      1.0  0.33361  0.31229  0.24790000000000006  1.0000
  C   C133      1.0  0.34065  0.21871  0.2219  1.0000
  C   C134      1.0  0.33269  0.22144999999999998  0.17211  1.0000
  C   C135      1.0  0.32168  0.32067  0.14954  1.0000
  C   C136      1.0  0.31816000000000005  0.41538  0.17398  1.0000
  C   C137      1.0  0.32347  0.41016  0.22375  1.0000
  C   C138      1.0  0.21954000000000004  0.5557  0.25558  1.0000
  C   C139      1.0  0.46001  0.07877000000000003  0.24686000000000005  1.0000
  C   C140      1.0  0.33148  0.12714999999999999  0.14232  1.0000
  C   C141      1.0  0.27655  0.03863  0.15599  1.0000
  C   C142      1.0  0.2685500000000001  0.9580600000000001  0.12389000000000001  1.0000
  C   C143      1.0  0.3701900000000001  0.04135  0.06764  1.0000
  C   C144      1.0  0.37895  0.12691  0.0969  1.0000
  N   N1        1.0  0.31810000000000005  0.70428  0.53149  1.0000
  N   N2        1.0  0.05111000000000001  0.7230000000000001  0.53935  1.0000
  N   N3        1.0  0.6851  0.041419999999999985  0.9194600000000003  1.0000
  N   N4        1.0  0.70432  0.30579  0.9135000000000002  1.0000
  N   N5        1.0  0.7042800000000002  0.31811  0.0315  1.0000
  N   N6        1.0  0.7230000000000001  0.05112  0.03935  1.0000
  N   N7        1.0  0.041429999999999995  0.6851000000000002  0.41946  1.0000
  N   N8        1.0  0.30579000000000006  0.7043199999999998  0.4135000000000001  1.0000
  N   N9        1.0  0.29571000000000003  0.68189  0.9685000000000002  1.0000
  N   N10       1.0  0.27700000000000014  0.94888  0.96065  1.0000
  N   N11       1.0  0.9585700000000001  0.3149  0.5805400000000002  1.0000
  N   N12       1.0  0.69421  0.29567  0.5865000000000002  1.0000
  N   N13       1.0  0.6819  0.29572000000000004  0.46851  1.0000
  N   N14       1.0  0.94889  0.277  0.4606500000000001  1.0000
  N   N15       1.0  0.3149  0.95857  0.08054  1.0000
  N   N16       1.0  0.29568000000000005  0.6942099999999999  0.08650000000000002  1.0000
  Cl  Cl1       1.0  0.17114  0.91226  0.46849  1.0000
  Cl  Cl2       1.0  0.20421  0.49868  0.4826400000000001  1.0000
  Cl  Cl3       1.0  0.9122600000000002  0.17113  0.9685000000000002  1.0000
  Cl  Cl4       1.0  0.49868  0.20421  0.9826400000000002  1.0000
  Cl  Cl5       1.0  0.08773999999999998  0.82887  0.0315  1.0000
  Cl  Cl6       1.0  0.50132  0.79579  0.01736  1.0000
  Cl  Cl7       1.0  0.8288600000000002  0.08774  0.5315  1.0000
  Cl  Cl8       1.0  0.79579  0.50132  0.51735  1.0000
  O   O1        1.0  0.48126  0.69277  0.69744  1.0000
  O   O2        1.0  0.85748  0.69301  0.70241  1.0000
  O   O3        1.0  0.64785  0.87623  0.7531  1.0000
  O   O4        1.0  0.6775  0.49894  0.75008  1.0000
  O   O5        1.0  0.69276  0.48126  0.19744000000000003  1.0000
  O   O6        1.0  0.693  0.85748  0.20241  1.0000
  O   O7        1.0  0.8762  0.64785  0.2531  1.0000
  O   O8        1.0  0.49892  0.6775  0.25008  1.0000
  O   O9        1.0  0.3072400000000001  0.51874  0.8025600000000002  1.0000
  O   O10       1.0  0.307  0.14252  0.79759  1.0000
  O   O11       1.0  0.12379999999999992  0.35215  0.7469  1.0000
  O   O12       1.0  0.50108  0.3225  0.74992  1.0000
  O   O13       1.0  0.51874  0.30722999999999995  0.30256  1.0000
  O   O14       1.0  0.14252  0.30699  0.29759000000000013  1.0000
  O   O15       1.0  0.35215  0.12376999999999998  0.24690000000000006  1.0000
  O   O16       1.0  0.3225  0.50106  0.24992000000000006  1.0000
