data_image0
_chemical_formula_structural       Cu8H120C128N24O40
_chemical_formula_sum              "Cu8 H120 C128 N24 O40"
_cell_length_a       9.99526
_cell_length_b       20.69158
_cell_length_c       21.36187
_cell_angle_alpha    86.47329
_cell_angle_beta     76.59223999999999
_cell_angle_gamma    75.90213

_symmetry_space_group_name_H-M    'P 1'
_symmetry_Int_Tables_number       1

loop_
  _symmetry_equiv_pos_as_xyz
  'x,y,z'

loop_
  _atom_site_type_symbol
  _atom_site_label
  _atom_site_symmetry_multiplicity
  _atom_site_fract_x
  _atom_site_fract_y
  _atom_site_fract_z
  _atom_site_occupancy
  Cu  Cu1       1.0  0.56754  0.23291999999999996  0.9145  1.0000
  Cu  Cu2       1.0  0.5136100000000001  0.42178  0.76603  1.0000
  Cu  Cu3       1.0  0.7148100000000002  0.26716999999999996  0.58468  1.0000
  Cu  Cu4       1.0  0.70015  0.07832  0.73409  1.0000
  Cu  Cu5       1.0  0.4324500000000001  0.76708  0.0855  1.0000
  Cu  Cu6       1.0  0.4863800000000001  0.5782199999999998  0.23398  1.0000
  Cu  Cu7       1.0  0.28518  0.7328299999999999  0.41533  1.0000
  Cu  Cu8       1.0  0.29983999999999994  0.9216799999999999  0.26591  1.0000
  H   H1        1.0  0.16437000000000002  0.09934  0.02678  1.0000
  H   H2        1.0  0.87835  0.14948999999999998  0.88809  1.0000
  H   H3        1.0  0.05714999999999995  0.08738  0.94754  1.0000
  H   H4        1.0  0.72426  0.11483  0.12032000000000001  1.0000
  H   H5        1.0  0.5581  0.17792999999999995  0.05227  1.0000
  H   H6        1.0  0.27323000000000003  0.6904199999999999  0.03067  1.0000
  H   H7        1.0  0.3244199999999999  0.58852  0.9630700000000001  1.0000
  H   H8        1.0  0.5784200000000002  0.53117  0.91696  1.0000
  H   H9        1.0  0.7010400000000002  0.67928  0.01109  1.0000
  H   H10       1.0  0.8091500000000001  0.5316999999999998  0.90105  1.0000
  H   H11       1.0  0.2331899999999999  0.39183  0.8435500000000001  1.0000
  H   H12       1.0  0.9985200000000003  0.44918  0.9092800000000001  1.0000
  H   H13       1.0  0.14964  0.6296899999999999  0.88885  1.0000
  H   H14       1.0  0.38092000000000004  0.56335  0.82263  1.0000
  H   H15       1.0  0.19667000000000015  0.39222  0.65862  1.0000
  H   H16       1.0  0.19131999999999993  0.32584  0.71517  1.0000
  H   H17       1.0  0.16551  0.31689999999999996  0.63671  1.0000
  H   H18       1.0  0.3659200000000001  0.21199999999999997  0.61271  1.0000
  H   H19       1.0  0.37227  0.21703  0.6951  1.0000
  H   H20       1.0  0.52919  0.20889  0.63469  1.0000
  H   H21       1.0  0.5358300000000003  0.9761899999999998  0.19062000000000004  1.0000
  H   H22       1.0  0.59029  0.03812  0.08673  1.0000
  H   H23       1.0  0.39588999999999996  0.08189  0.02751  1.0000
  H   H24       1.0  0.1198400000000001  0.9959399999999998  0.17801  1.0000
  H   H25       1.0  0.9121700000000001  0.34374  0.8863100000000002  1.0000
  H   H26       1.0  0.015359999999999957  0.36747  0.81326  1.0000
  H   H27       1.0  0.9834199999999998  0.28607999999999995  0.8220100000000001  1.0000
  H   H28       1.0  0.90718  0.3066899999999999  0.71831  1.0000
  H   H29       1.0  0.9167100000000004  0.3919899999999999  0.7122  1.0000
  H   H30       1.0  0.75681  0.36899  0.70977  1.0000
  H   H31       1.0  0.28891999999999995  0.40203999999999995  0.47317000000000004  1.0000
  H   H32       1.0  0.91659  0.35071  0.61036  1.0000
  H   H33       1.0  0.0914200000000002  0.41298999999999997  0.55134  1.0000
  H   H34       1.0  0.95957  0.38534999999999997  0.37803  1.0000
  H   H35       1.0  0.7900299999999999  0.32196  0.44555000000000006  1.0000
  H   H36       1.0  0.9934200000000001  0.8096599999999999  0.46949  1.0000
  H   H37       1.0  0.8752900000000002  0.9119199999999998  0.53683  1.0000
  H   H38       1.0  0.025880000000000104  0.9690399999999999  0.58299  1.0000
  H   H39       1.0  0.39071000000000006  0.8205099999999999  0.48913  1.0000
  H   H40       1.0  0.24201000000000003  0.9677  0.59964  1.0000
  H   H41       1.0  0.46946999999999994  0.10767  0.65624  1.0000
  H   H42       1.0  0.35759  0.050929999999999996  0.59015  1.0000
  H   H43       1.0  0.66846  0.86975  0.61083  1.0000
  H   H44       1.0  0.76709  0.93541  0.67766  1.0000
  H   H45       1.0  0.24492  0.10837999999999999  0.84212  1.0000
  H   H46       1.0  0.22887000000000002  0.17473999999999995  0.78544  1.0000
  H   H47       1.0  0.11708999999999999  0.18395  0.8640800000000001  1.0000
  H   H48       1.0  0.19025999999999993  0.28898999999999997  0.8858000000000001  1.0000
  H   H49       1.0  0.2843600000000001  0.28235999999999994  0.80358  1.0000
  H   H50       1.0  0.37299  0.29105  0.86384  1.0000
  H   H51       1.0  0.7018  0.52321  0.30916  1.0000
  H   H52       1.0  0.7137300000000003  0.46204999999999996  0.41357000000000005  1.0000
  H   H53       1.0  0.5041100000000001  0.4187199999999999  0.4724400000000001  1.0000
  H   H54       1.0  0.2931000000000001  0.50406  0.32091  1.0000
  H   H55       1.0  0.14240999999999998  0.15424  0.61313  1.0000
  H   H56       1.0  0.19721  0.1316  0.6862500000000001  1.0000
  H   H57       1.0  0.09240999999999996  0.21287  0.67655  1.0000
  H   H58       1.0  0.9314800000000001  0.19416999999999998  0.78091  1.0000
  H   H59       1.0  0.02163000000000002  0.10915999999999997  0.78835  1.0000
  H   H60       1.0  0.8362500000000002  0.1315  0.79006  1.0000
  H   H61       1.0  0.83562  0.9006599999999999  0.97323  1.0000
  H   H62       1.0  0.12164000000000001  0.85051  0.11191  1.0000
  H   H63       1.0  0.9428400000000002  0.9126199999999998  0.05247  1.0000
  H   H64       1.0  0.2757300000000001  0.8851699999999999  0.8796800000000001  1.0000
  H   H65       1.0  0.4418900000000002  0.8220699999999997  0.94773  1.0000
  H   H66       1.0  0.72676  0.30958  0.96933  1.0000
  H   H67       1.0  0.67557  0.41147999999999996  0.03694  1.0000
  H   H68       1.0  0.4215700000000001  0.46882999999999997  0.08304  1.0000
  H   H69       1.0  0.29894999999999994  0.3207199999999999  0.98891  1.0000
  H   H70       1.0  0.19084000000000004  0.4683  0.09895000000000001  1.0000
  H   H71       1.0  0.7668000000000001  0.6081799999999999  0.15645  1.0000
  H   H72       1.0  0.0014700000000000735  0.5508299999999999  0.09072  1.0000
  H   H73       1.0  0.8503500000000002  0.3703099999999999  0.11115  1.0000
  H   H74       1.0  0.61907  0.43665  0.17738  1.0000
  H   H75       1.0  0.80332  0.60778  0.34138  1.0000
  H   H76       1.0  0.80867  0.6741699999999999  0.28483  1.0000
  H   H77       1.0  0.83448  0.6831  0.36329000000000006  1.0000
  H   H78       1.0  0.6340699999999999  0.78801  0.38730000000000003  1.0000
  H   H79       1.0  0.62772  0.78297  0.3049  1.0000
  H   H80       1.0  0.4708000000000001  0.79111  0.36531  1.0000
  H   H81       1.0  0.46415999999999985  0.023810000000000005  0.80938  1.0000
  H   H82       1.0  0.4097000000000001  0.9618899999999999  0.9132700000000001  1.0000
  H   H83       1.0  0.6041000000000001  0.9181099999999999  0.9724900000000001  1.0000
  H   H84       1.0  0.8801499999999999  0.0040599999999999985  0.82199  1.0000
  H   H85       1.0  0.08781999999999998  0.65626  0.11370000000000001  1.0000
  H   H86       1.0  0.98463  0.63253  0.18675  1.0000
  H   H87       1.0  0.016570000000000085  0.7139199999999999  0.178  1.0000
  H   H88       1.0  0.09281000000000009  0.6933099999999999  0.28169  1.0000
  H   H89       1.0  0.08328000000000019  0.6080199999999998  0.28781  1.0000
  H   H90       1.0  0.24318  0.63101  0.29023  1.0000
  H   H91       1.0  0.7110700000000001  0.5979699999999999  0.52683  1.0000
  H   H92       1.0  0.08340000000000004  0.64929  0.38965  1.0000
  H   H93       1.0  0.90857  0.5870099999999999  0.44866  1.0000
  H   H94       1.0  0.040429999999999966  0.61465  0.62198  1.0000
  H   H95       1.0  0.2099600000000001  0.67804  0.55445  1.0000
  H   H96       1.0  0.0065699999999999795  0.19034  0.53051  1.0000
  H   H97       1.0  0.12470000000000002  0.08808  0.46316999999999997  1.0000
  H   H98       1.0  0.9741099999999998  0.03096  0.41702000000000006  1.0000
  H   H99       1.0  0.60928  0.17949  0.51088  1.0000
  H   H100      1.0  0.7579799999999999  0.03230999999999999  0.40036000000000005  1.0000
  H   H101      1.0  0.53052  0.8923299999999998  0.3437700000000001  1.0000
  H   H102      1.0  0.6423999999999997  0.94907  0.40986  1.0000
  H   H103      1.0  0.3315300000000001  0.13026  0.38917  1.0000
  H   H104      1.0  0.23290000000000005  0.06459  0.32235  1.0000
  H   H105      1.0  0.75507  0.89162  0.15788  1.0000
  H   H106      1.0  0.77113  0.82526  0.21456000000000003  1.0000
  H   H107      1.0  0.8828999999999999  0.81605  0.13593  1.0000
  H   H108      1.0  0.80973  0.71101  0.11421  1.0000
  H   H109      1.0  0.71563  0.7176399999999998  0.19642  1.0000
  H   H110      1.0  0.627  0.7089499999999999  0.13616  1.0000
  H   H111      1.0  0.2981899999999999  0.47678999999999994  0.69084  1.0000
  H   H112      1.0  0.2862600000000004  0.5379499999999999  0.58643  1.0000
  H   H113      1.0  0.49588000000000004  0.58128  0.52756  1.0000
  H   H114      1.0  0.7068900000000001  0.49594  0.67909  1.0000
  H   H115      1.0  0.8575800000000003  0.8457599999999998  0.38688000000000006  1.0000
  H   H116      1.0  0.8027799999999999  0.8684  0.31376  1.0000
  H   H117      1.0  0.90758  0.7871299999999999  0.32346  1.0000
  H   H118      1.0  0.06851000000000006  0.80584  0.2191  1.0000
  H   H119      1.0  0.9783600000000001  0.89084  0.21165000000000003  1.0000
  H   H120      1.0  0.16374000000000005  0.8684999999999999  0.20995  1.0000
  C   C1        1.0  0.43130999999999997  0.32598  0.5673200000000002  1.0000
  C   C2        1.0  0.3837000000000001  0.30864  0.63974  1.0000
  C   C3        1.0  0.47092  0.33533  0.67838  1.0000
  C   C4        1.0  0.8486999999999999  0.14083  0.93955  1.0000
  C   C5        1.0  0.94821  0.10613  0.97322  1.0000
  C   C6        1.0  0.9040100000000001  0.09692999999999999  0.03951  1.0000
  C   C7        1.0  0.99951  0.05981999999999999  0.08128  1.0000
  C   C8        1.0  0.24277999999999997  0.04219  0.09816000000000001  1.0000
  C   C9        1.0  0.7611  0.12216999999999999  0.0689  1.0000
  C   C10       1.0  0.66959  0.15678  0.03161  1.0000
  C   C11       1.0  0.38092000000000004  0.6636099999999999  0.01006  1.0000
  C   C12       1.0  0.41076999999999997  0.60701  0.97253  1.0000
  C   C13       1.0  0.55087  0.5749299999999999  0.94744  1.0000
  C   C14       1.0  0.6592000000000002  0.6006799999999999  0.96084  1.0000
  C   C15       1.0  0.6212599999999999  0.6576  0.99971  1.0000
  C   C16       1.0  0.6925800000000002  0.32446  0.8325100000000001  1.0000
  C   C17       1.0  0.21028999999999984  0.44442  0.8546900000000001  1.0000
  C   C18       1.0  0.07915000000000001  0.47691999999999996  0.8912800000000001  1.0000
  C   C19       1.0  0.055409999999999994  0.54488  0.90342  1.0000
  C   C20       1.0  0.9192000000000001  0.5852599999999999  0.94235  1.0000
  C   C21       1.0  0.16549000000000003  0.57698  0.8792900000000001  1.0000
  C   C22       1.0  0.29264  0.54063  0.84284  1.0000
  C   C23       1.0  0.22480000000000003  0.3379  0.66415  1.0000
  C   C24       1.0  0.41517999999999994  0.23184  0.64577  1.0000
  C   C25       1.0  0.45581000000000016  0.9957499999999999  0.16312  1.0000
  C   C26       1.0  0.48464000000000007  0.03012  0.1054  1.0000
  C   C27       1.0  0.37784999999999996  0.05378999999999999  0.07228  1.0000
  C   C28       1.0  0.22179  0.00621  0.15625  1.0000
  C   C29       1.0  0.7386100000000001  0.43910999999999994  0.8228500000000001  1.0000
  C   C30       1.0  0.8052500000000001  0.36426  0.8060000000000002  1.0000
  C   C31       1.0  0.9366600000000003  0.3387299999999999  0.83387  1.0000
  C   C32       1.0  0.8486499999999999  0.35782  0.7319200000000001  1.0000
  C   C33       1.0  0.3253700000000001  0.17469  0.93262  1.0000
  C   C34       1.0  0.33092000000000016  0.19157  0.86012  1.0000
  C   C35       1.0  0.48275  0.16481999999999997  0.8208700000000001  1.0000
  C   C36       1.0  0.92955  0.35931  0.55887  1.0000
  C   C37       1.0  0.02729000000000003  0.39421  0.52543  1.0000
  C   C38       1.0  0.04013000000000013  0.4034699999999999  0.4591  1.0000
  C   C39       1.0  0.13997  0.44058  0.41753000000000007  1.0000
  C   C40       1.0  0.3820000000000002  0.45822999999999997  0.40133  1.0000
  C   C41       1.0  0.9525100000000001  0.378  0.42947  1.0000
  C   C42       1.0  0.8590599999999999  0.34318  0.46657000000000004  1.0000
  C   C43       1.0  0.053729999999999986  0.83644  0.49011  1.0000
  C   C44       1.0  0.9896100000000002  0.8932099999999997  0.52745  1.0000
  C   C45       1.0  0.07259999999999994  0.92525  0.55254  1.0000
  C   C46       1.0  0.2201  0.89939  0.53921  1.0000
  C   C47       1.0  0.2778500000000001  0.8422999999999999  0.50053  1.0000
  C   C48       1.0  0.8495600000000001  0.17511999999999997  0.66739  1.0000
  C   C49       1.0  0.51004  0.055049999999999995  0.64512  1.0000
  C   C50       1.0  0.44784  0.02287  0.6083100000000001  1.0000
  C   C51       1.0  0.50404  0.9548999999999997  0.59606  1.0000
  C   C52       1.0  0.44664000000000004  0.91485  0.55699  1.0000
  C   C53       1.0  0.6220300000000003  0.9224699999999999  0.62044  1.0000
  C   C54       1.0  0.67641  0.95846  0.65722  1.0000
  C   C55       1.0  0.22442  0.16265999999999997  0.83643  1.0000
  C   C56       1.0  0.29239000000000004  0.26831  0.8531700000000001  1.0000
  C   C57       1.0  0.6138199999999999  0.50391  0.33658  1.0000
  C   C58       1.0  0.619  0.46993  0.3945600000000001  1.0000
  C   C59       1.0  0.5027  0.44661  0.42754000000000003  1.0000
  C   C60       1.0  0.3834200000000003  0.49378  0.34297  1.0000
  C   C61       1.0  0.0006300000000000085  0.059759999999999994  0.67891  1.0000
  C   C62       1.0  0.9758900000000001  0.13505  0.69399  1.0000
  C   C63       1.0  0.10985999999999999  0.16003  0.66553  1.0000
  C   C64       1.0  0.9388200000000001  0.14271  0.768  1.0000
  C   C65       1.0  0.5686800000000002  0.6740199999999997  0.43268  1.0000
  C   C66       1.0  0.6162899999999998  0.69137  0.36026  1.0000
  C   C67       1.0  0.5290700000000002  0.66467  0.32162  1.0000
  C   C68       1.0  0.15129000000000006  0.8591699999999999  0.06046000000000001  1.0000
  C   C69       1.0  0.05178000000000009  0.8938699999999998  0.026790000000000005  1.0000
  C   C70       1.0  0.09598000000000009  0.9030699999999998  0.9605000000000001  1.0000
  C   C71       1.0  0.00047999999999995144  0.9401899999999999  0.9187200000000001  1.0000
  C   C72       1.0  0.7572100000000002  0.95781  0.9018400000000001  1.0000
  C   C73       1.0  0.23889  0.87783  0.9311  1.0000
  C   C74       1.0  0.33040000000000036  0.84322  0.96839  1.0000
  C   C75       1.0  0.61907  0.3364  0.98995  1.0000
  C   C76       1.0  0.58922  0.39299  0.02747  1.0000
  C   C77       1.0  0.44912  0.42508  0.05256  1.0000
  C   C78       1.0  0.34079  0.39932  0.03917  1.0000
  C   C79       1.0  0.37873000000000007  0.34239999999999987  0.00029  1.0000
  C   C80       1.0  0.30741  0.67554  0.16749  1.0000
  C   C81       1.0  0.7897000000000001  0.5555799999999999  0.14531  1.0000
  C   C82       1.0  0.92084  0.52308  0.10873000000000001  1.0000
  C   C83       1.0  0.94458  0.45512  0.09659  1.0000
  C   C84       1.0  0.08079000000000004  0.41474999999999995  0.05765  1.0000
  C   C85       1.0  0.8345  0.42302  0.12072  1.0000
  C   C86       1.0  0.70735  0.45937  0.15716  1.0000
  C   C87       1.0  0.77519  0.6620999999999998  0.33585000000000004  1.0000
  C   C88       1.0  0.58481  0.76816  0.35423  1.0000
  C   C89       1.0  0.54418  0.00426  0.8368800000000001  1.0000
  C   C90       1.0  0.51535  0.96988  0.8946100000000001  1.0000
  C   C91       1.0  0.6221399999999999  0.9462099999999998  0.92773  1.0000
  C   C92       1.0  0.7781999999999999  0.9937899999999998  0.8437500000000001  1.0000
  C   C93       1.0  0.2613800000000001  0.56089  0.17716  1.0000
  C   C94       1.0  0.19474000000000005  0.6357399999999999  0.194  1.0000
  C   C95       1.0  0.06333000000000004  0.66127  0.16614  1.0000
  C   C96       1.0  0.15134000000000003  0.64218  0.26808  1.0000
  C   C97       1.0  0.67462  0.8253099999999999  0.06739  1.0000
  C   C98       1.0  0.66907  0.80843  0.13988000000000003  1.0000
  C   C99       1.0  0.51724  0.8351899999999999  0.17913  1.0000
  C   C100      1.0  0.07044000000000003  0.6406999999999998  0.4411300000000001  1.0000
  C   C101      1.0  0.9727000000000001  0.60579  0.47457  1.0000
  C   C102      1.0  0.9598599999999998  0.59653  0.5409  1.0000
  C   C103      1.0  0.86002  0.55942  0.58248  1.0000
  C   C104      1.0  0.61799  0.54177  0.59867  1.0000
  C   C105      1.0  0.04748000000000001  0.622  0.57053  1.0000
  C   C106      1.0  0.14092999999999992  0.65682  0.53344  1.0000
  C   C107      1.0  0.94626  0.16355999999999998  0.50989  1.0000
  C   C108      1.0  0.010380000000000006  0.10679  0.47256  1.0000
  C   C109      1.0  0.9273900000000002  0.07475  0.4474600000000001  1.0000
  C   C110      1.0  0.77989  0.10061  0.46079  1.0000
  C   C111      1.0  0.7221300000000006  0.1577  0.49948  1.0000
  C   C112      1.0  0.1504300000000001  0.8248799999999998  0.33261  1.0000
  C   C113      1.0  0.48995  0.94495  0.35488  1.0000
  C   C114      1.0  0.5521500000000003  0.9771299999999998  0.3917  1.0000
  C   C115      1.0  0.49595000000000006  0.04510999999999999  0.40394  1.0000
  C   C116      1.0  0.5533500000000001  0.08515  0.44301  1.0000
  C   C117      1.0  0.37796  0.07753  0.37957  1.0000
  C   C118      1.0  0.32358  0.04153999999999999  0.34278  1.0000
  C   C119      1.0  0.77557  0.8373399999999999  0.16357  1.0000
  C   C120      1.0  0.7076000000000001  0.73169  0.14683  1.0000
  C   C121      1.0  0.38617000000000007  0.4961  0.66343  1.0000
  C   C122      1.0  0.3809900000000001  0.53007  0.60545  1.0000
  C   C123      1.0  0.49729000000000007  0.55339  0.57247  1.0000
  C   C124      1.0  0.61657  0.50622  0.65704  1.0000
  C   C125      1.0  0.9993599999999998  0.94024  0.3211  1.0000
  C   C126      1.0  0.02410000000000008  0.86495  0.30601  1.0000
  C   C127      1.0  0.89013  0.83997  0.33448  1.0000
  C   C128      1.0  0.06117000000000003  0.85729  0.232  1.0000
  N   N1        1.0  0.13569000000000003  0.06799  0.06496  1.0000
  N   N2        1.0  0.3270100000000001  0.98364  0.18732  1.0000
  N   N3        1.0  0.71239  0.16630999999999999  0.9677900000000002  1.0000
  N   N4        1.0  0.48482000000000003  0.6877299999999998  0.023540000000000002  1.0000
  N   N5        1.0  0.7996100000000002  0.56869  0.93374  1.0000
  N   N6        1.0  0.31504  0.4753  0.83032  1.0000
  N   N7        1.0  0.26735000000000025  0.43291  0.43457  1.0000
  N   N8        1.0  0.49727999999999994  0.51597  0.31203  1.0000
  N   N9        1.0  0.8475600000000001  0.33358  0.53043  1.0000
  N   N10       1.0  0.19529999999999997  0.81212  0.47684  1.0000
  N   N11       1.0  0.30166  0.93138  0.56614  1.0000
  N   N12       1.0  0.62113  0.02383  0.66977  1.0000
  N   N13       1.0  0.8642999999999998  0.9320099999999999  0.93505  1.0000
  N   N14       1.0  0.67298  0.01637  0.8126900000000001  1.0000
  N   N15       1.0  0.2876000000000001  0.83369  0.03221  1.0000
  N   N16       1.0  0.51517  0.31227  0.9764700000000001  1.0000
  N   N17       1.0  0.20038  0.43131  0.06626  1.0000
  N   N18       1.0  0.6849499999999998  0.5247  0.16968  1.0000
  N   N19       1.0  0.7326400000000001  0.5670899999999999  0.56544  1.0000
  N   N20       1.0  0.5027100000000001  0.48403  0.68797  1.0000
  N   N21       1.0  0.1524299999999999  0.66642  0.46957000000000004  1.0000
  N   N22       1.0  0.80469  0.18787999999999996  0.52317  1.0000
  N   N23       1.0  0.6983300000000001  0.06861999999999999  0.4338600000000001  1.0000
  N   N24       1.0  0.37886000000000003  0.9761699999999999  0.33023  1.0000
  O   O1        1.0  0.5612100000000002  0.30229  0.53799  1.0000
  O   O2        1.0  0.6052099999999999  0.32423  0.66002  1.0000
  O   O3        1.0  0.9529500000000001  0.02583999999999999  0.12717  1.0000
  O   O4        1.0  0.7276000000000002  0.27243  0.86596  1.0000
  O   O5        1.0  0.56839  0.344  0.82217  1.0000
  O   O6        1.0  0.4031100000000002  0.36979999999999996  0.72833  1.0000
  O   O7        1.0  0.7937900000000002  0.467  0.8572  1.0000
  O   O8        1.0  0.33991999999999994  0.36062  0.53979  1.0000
  O   O9        1.0  0.92015  0.63013  0.97794  1.0000
  O   O10       1.0  0.6316  0.46995999999999993  0.79968  1.0000
  O   O11       1.0  0.4046799999999999  0.19757  0.9612700000000001  1.0000
  O   O12       1.0  0.5876300000000001  0.17686999999999997  0.83837  1.0000
  O   O13       1.0  0.10599000000000003  0.4739999999999999  0.37109  1.0000
  O   O14       1.0  0.86581  0.22749999999999998  0.63465  1.0000
  O   O15       1.0  0.7345700000000002  0.15582999999999997  0.67734  1.0000
  O   O16       1.0  0.49905000000000005  0.13006  0.7711  1.0000
  O   O17       1.0  0.11977000000000002  0.030489999999999993  0.64704  1.0000
  O   O18       1.0  0.24021999999999993  0.14111  0.96107  1.0000
  O   O19       1.0  0.5275200000000001  0.8702399999999999  0.5209  1.0000
  O   O20       1.0  0.9000200000000004  0.029739999999999996  0.70152  1.0000
  O   O21       1.0  0.43878  0.6977099999999999  0.46201  1.0000
  O   O22       1.0  0.3947799999999999  0.67577  0.33998  1.0000
  O   O23       1.0  0.04704000000000013  0.97416  0.87283  1.0000
  O   O24       1.0  0.27239  0.7275699999999999  0.13405  1.0000
  O   O25       1.0  0.4316000000000001  0.6559999999999998  0.17783  1.0000
  O   O26       1.0  0.5968800000000001  0.6301999999999999  0.27167  1.0000
  O   O27       1.0  0.20619999999999997  0.533  0.14281  1.0000
  O   O28       1.0  0.6600699999999999  0.63939  0.46021  1.0000
  O   O29       1.0  0.07984  0.36988  0.02207  1.0000
  O   O30       1.0  0.36838999999999994  0.53004  0.20033000000000004  1.0000
  O   O31       1.0  0.5953100000000001  0.80243  0.03874  1.0000
  O   O32       1.0  0.4123599999999998  0.82314  0.16163  1.0000
  O   O33       1.0  0.894  0.526  0.62891  1.0000
  O   O34       1.0  0.13418  0.7725  0.36535  1.0000
  O   O35       1.0  0.26541999999999993  0.84417  0.32267  1.0000
  O   O36       1.0  0.5009399999999998  0.86994  0.22890000000000002  1.0000
  O   O37       1.0  0.88022  0.96951  0.35297  1.0000
  O   O38       1.0  0.7597700000000002  0.8588899999999999  0.03894  1.0000
  O   O39       1.0  0.47247  0.12976  0.4791  1.0000
  O   O40       1.0  0.09997000000000013  0.9702599999999998  0.29849  1.0000
