data_image0
_chemical_formula_structural       Zn12H60C132N6O48F6
_chemical_formula_sum              "Zn12 H60 C132 N6 O48 F6"
_cell_length_a       18.81473
_cell_length_b       18.81467
_cell_length_c       24.44554
_cell_angle_alpha    90.0
_cell_angle_beta     90.0
_cell_angle_gamma    120.03736

_space_group_name_H-M_alt    "P 1"
_space_group_IT_number       1

loop_
  _space_group_symop_operation_xyz
  'x, y, z'

loop_
  _atom_site_type_symbol
  _atom_site_label
  _atom_site_symmetry_multiplicity
  _atom_site_fract_x
  _atom_site_fract_y
  _atom_site_fract_z
  _atom_site_occupancy
  Zn  Zn1       1.0  0.04551999999999998  0.52284  0.5431099999999999  1.0000
  Zn  Zn2       1.0  0.47717999999999994  0.9545  0.5431099999999999  1.0000
  Zn  Zn3       1.0  0.47729999999999995  0.52273  0.54312  1.0000
  Zn  Zn4       1.0  0.95449  0.47717  0.04310999999999999  1.0000
  Zn  Zn5       1.0  0.52282  0.04551  0.04310999999999999  1.0000
  Zn  Zn6       1.0  0.52271  0.47728  0.04311999999999999  1.0000
  Zn  Zn7       1.0  0.52271  0.47728  0.45688  1.0000
  Zn  Zn8       1.0  0.52282  0.04551  0.45689  1.0000
  Zn  Zn9       1.0  0.95449  0.47717  0.45689  1.0000
  Zn  Zn10      1.0  0.47729999999999995  0.52273  0.95688  1.0000
  Zn  Zn11      1.0  0.47717999999999994  0.9545  0.95689  1.0000
  Zn  Zn12      1.0  0.04551999999999998  0.52284  0.95689  1.0000
  H   H1        1.0  0.06899000000000001  0.70169  0.35887  1.0000
  H   H2        1.0  0.63272  0.93097  0.35885  1.0000
  H   H3        1.0  0.2982  0.36731  0.35888  1.0000
  H   H4        1.0  0.93102  0.29831  0.8588699999999998  1.0000
  H   H5        1.0  0.36728  0.06904  0.8588499999999999  1.0000
  H   H6        1.0  0.7018  0.63269  0.85888  1.0000
  H   H7        1.0  0.36730999999999997  0.2982  0.64112  1.0000
  H   H8        1.0  0.70169  0.06899  0.64113  1.0000
  H   H9        1.0  0.9309699999999999  0.63272  0.6411499999999999  1.0000
  H   H10       1.0  0.63269  0.7018  0.14111999999999997  1.0000
  H   H11       1.0  0.29831  0.93102  0.14112999999999998  1.0000
  H   H12       1.0  0.06904  0.36728  0.14115  1.0000
  H   H13       1.0  0.93102  0.29831  0.64113  1.0000
  H   H14       1.0  0.36728  0.06904  0.6411499999999999  1.0000
  H   H15       1.0  0.7018  0.63269  0.64112  1.0000
  H   H16       1.0  0.06899000000000001  0.70169  0.14112999999999998  1.0000
  H   H17       1.0  0.63272  0.93097  0.14115  1.0000
  H   H18       1.0  0.2982  0.36731  0.14111999999999997  1.0000
  H   H19       1.0  0.63269  0.7018  0.35888  1.0000
  H   H20       1.0  0.29831  0.93102  0.35887  1.0000
  H   H21       1.0  0.06904  0.36728  0.35885  1.0000
  H   H22       1.0  0.36730999999999997  0.2982  0.85888  1.0000
  H   H23       1.0  0.70169  0.06899  0.8588699999999998  1.0000
  H   H24       1.0  0.9309699999999999  0.63272  0.8588499999999999  1.0000
  H   H25       1.0  0.09802999999999984  0.9019699999999998  0.33774999999999994  1.0000
  H   H26       1.0  0.23743999999999996  0.76256  0.49318  1.0000
  H   H27       1.0  0.23829  0.76171  0.21437999999999996  1.0000
  H   H28       1.0  0.80404  0.90203  0.33774999999999994  1.0000
  H   H29       1.0  0.52509  0.76252  0.4932199999999999  1.0000
  H   H30       1.0  0.52329  0.76165  0.21439  1.0000
  H   H31       1.0  0.09798  0.19597  0.33774999999999994  1.0000
  H   H32       1.0  0.23747999999999997  0.47492  0.4932199999999999  1.0000
  H   H33       1.0  0.23836  0.47671  0.21439  1.0000
  H   H34       1.0  0.90197  0.09803  0.83775  1.0000
  H   H35       1.0  0.76256  0.23744  0.9931799999999997  1.0000
  H   H36       1.0  0.76171  0.23829  0.71438  1.0000
  H   H37       1.0  0.19597  0.09798  0.83775  1.0000
  H   H38       1.0  0.47491999999999995  0.23748  0.99322  1.0000
  H   H39       1.0  0.47670999999999997  0.23836  0.7143899999999999  1.0000
  H   H40       1.0  0.9020299999999999  0.8040399999999998  0.83775  1.0000
  H   H41       1.0  0.76252  0.52508  0.99322  1.0000
  H   H42       1.0  0.76165  0.52329  0.7143899999999999  1.0000
  H   H43       1.0  0.19597  0.09798  0.6622499999999999  1.0000
  H   H44       1.0  0.47491999999999995  0.23748  0.50678  1.0000
  H   H45       1.0  0.47670999999999997  0.23836  0.78561  1.0000
  H   H46       1.0  0.90197  0.09803  0.6622499999999999  1.0000
  H   H47       1.0  0.76256  0.23744  0.50682  1.0000
  H   H48       1.0  0.76171  0.23829  0.78562  1.0000
  H   H49       1.0  0.9020299999999999  0.8040399999999998  0.6622499999999999  1.0000
  H   H50       1.0  0.76252  0.52508  0.50678  1.0000
  H   H51       1.0  0.76165  0.52329  0.78561  1.0000
  H   H52       1.0  0.80404  0.90203  0.16224999999999998  1.0000
  H   H53       1.0  0.52509  0.76252  0.00678  1.0000
  H   H54       1.0  0.52329  0.76165  0.2856099999999999  1.0000
  H   H55       1.0  0.09802999999999984  0.9019699999999998  0.16224999999999998  1.0000
  H   H56       1.0  0.23743999999999996  0.76256  0.006819999999999999  1.0000
  H   H57       1.0  0.23829  0.76171  0.28562  1.0000
  H   H58       1.0  0.09798  0.19597  0.16224999999999998  1.0000
  H   H59       1.0  0.23747999999999997  0.47492  0.00678  1.0000
  H   H60       1.0  0.23836  0.47671  0.2856099999999999  1.0000
  C   C1        1.0  0.09129999999999999  0.64252  0.45452  1.0000
  C   C2        1.0  0.14734  0.72379  0.42865  1.0000
  C   C3        1.0  0.127  0.74449  0.3782099999999999  1.0000
  C   C4        1.0  0.55122  0.90865  0.45452999999999993  1.0000
  C   C5        1.0  0.57641  0.85262  0.42866  1.0000
  C   C6        1.0  0.61747  0.87298  0.3781999999999999  1.0000
  C   C7        1.0  0.35741  0.44877  0.45455  1.0000
  C   C8        1.0  0.27618  0.42359  0.4286799999999999  1.0000
  C   C9        1.0  0.25546  0.38254  0.37822  1.0000
  C   C10       1.0  0.90871  0.3574799999999999  0.95452  1.0000
  C   C11       1.0  0.85266  0.27621  0.92865  1.0000
  C   C12       1.0  0.87301  0.25552  0.8782  1.0000
  C   C13       1.0  0.44878999999999997  0.09136  0.9545299999999998  1.0000
  C   C14       1.0  0.42359  0.14739  0.9286599999999998  1.0000
  C   C15       1.0  0.38253  0.12702  0.8782  1.0000
  C   C16       1.0  0.64259  0.55124  0.95455  1.0000
  C   C17       1.0  0.72383  0.57641  0.9286799999999997  1.0000
  C   C18       1.0  0.7445400000000001  0.61746  0.8782199999999999  1.0000
  C   C19       1.0  0.44876  0.35741  0.54545  1.0000
  C   C20       1.0  0.42358999999999997  0.27617999999999987  0.57132  1.0000
  C   C21       1.0  0.38254000000000005  0.25546  0.62179  1.0000
  C   C22       1.0  0.64252  0.09129  0.54549  1.0000
  C   C23       1.0  0.72379  0.14734  0.57135  1.0000
  C   C24       1.0  0.74449  0.127  0.62179  1.0000
  C   C25       1.0  0.90865  0.55122  0.54547  1.0000
  C   C26       1.0  0.8526199999999999  0.57641  0.57133  1.0000
  C   C27       1.0  0.87298  0.61747  0.6218  1.0000
  C   C28       1.0  0.55124  0.6426  0.045439999999999994  1.0000
  C   C29       1.0  0.57642  0.72383  0.07132  1.0000
  C   C30       1.0  0.61746  0.74454  0.12177999999999999  1.0000
  C   C31       1.0  0.35748999999999986  0.90871  0.04548  1.0000
  C   C32       1.0  0.2762199999999999  0.85266  0.07135  1.0000
  C   C33       1.0  0.25551999999999997  0.87301  0.12179  1.0000
  C   C34       1.0  0.09136  0.44879  0.04547  1.0000
  C   C35       1.0  0.14739  0.42359  0.07134  1.0000
  C   C36       1.0  0.12703  0.38253  0.12179999999999999  1.0000
  C   C37       1.0  0.90871  0.3574799999999999  0.54548  1.0000
  C   C38       1.0  0.85266  0.27621  0.57135  1.0000
  C   C39       1.0  0.87301  0.25552  0.62179  1.0000
  C   C40       1.0  0.44878  0.09136  0.54547  1.0000
  C   C41       1.0  0.42359  0.14739  0.57134  1.0000
  C   C42       1.0  0.38253  0.12702  0.6218  1.0000
  C   C43       1.0  0.64259  0.55124  0.54545  1.0000
  C   C44       1.0  0.72383  0.57641  0.57132  1.0000
  C   C45       1.0  0.7445400000000001  0.61746  0.62178  1.0000
  C   C46       1.0  0.09129999999999999  0.64252  0.04548  1.0000
  C   C47       1.0  0.14734  0.72379  0.07135  1.0000
  C   C48       1.0  0.127  0.74449  0.12179  1.0000
  C   C49       1.0  0.5512199999999999  0.9086399999999998  0.04547  1.0000
  C   C50       1.0  0.57641  0.85262  0.07134  1.0000
  C   C51       1.0  0.61747  0.87298  0.12179999999999999  1.0000
  C   C52       1.0  0.35741  0.44877  0.04545  1.0000
  C   C53       1.0  0.27618  0.42359  0.07132  1.0000
  C   C54       1.0  0.25546  0.38254  0.12177999999999999  1.0000
  C   C55       1.0  0.55124  0.6426  0.45455999999999996  1.0000
  C   C56       1.0  0.57641  0.72383  0.4286799999999999  1.0000
  C   C57       1.0  0.61746  0.74454  0.37822  1.0000
  C   C58       1.0  0.35748999999999986  0.90871  0.45452  1.0000
  C   C59       1.0  0.2762199999999999  0.85266  0.42865  1.0000
  C   C60       1.0  0.25551999999999997  0.87301  0.3781999999999999  1.0000
  C   C61       1.0  0.09136  0.44879  0.45452999999999993  1.0000
  C   C62       1.0  0.14739  0.42359  0.42866  1.0000
  C   C63       1.0  0.12703  0.38253  0.3781999999999999  1.0000
  C   C64       1.0  0.44876  0.35741  0.95455  1.0000
  C   C65       1.0  0.42358999999999997  0.27617999999999987  0.9286799999999997  1.0000
  C   C66       1.0  0.38254000000000005  0.25546  0.87821  1.0000
  C   C67       1.0  0.64252  0.09129  0.9545099999999999  1.0000
  C   C68       1.0  0.72379  0.14734  0.92865  1.0000
  C   C69       1.0  0.74449  0.127  0.8782  1.0000
  C   C70       1.0  0.90865  0.55122  0.9545299999999998  1.0000
  C   C71       1.0  0.8526199999999999  0.57641  0.92867  1.0000
  C   C72       1.0  0.87298  0.61747  0.8782  1.0000
  C   C73       1.0  0.11507999999999986  0.8849299999999998  0.29954  1.0000
  C   C74       1.0  0.22163  0.77837  0.4540999999999999  1.0000
  C   C75       1.0  0.15800999999999998  0.842  0.29986999999999997  1.0000
  C   C76       1.0  0.18039  0.81961  0.35297  1.0000
  C   C77       1.0  0.76996  0.88499  0.29953  1.0000
  C   C78       1.0  0.55671  0.77836  0.45412  1.0000
  C   C79       1.0  0.68403  0.84205  0.29986  1.0000
  C   C80       1.0  0.6392199999999999  0.8196399999999998  0.35297  1.0000
  C   C81       1.0  0.11501  0.23005  0.29953  1.0000
  C   C82       1.0  0.22165  0.4433  0.45412  1.0000
  C   C83       1.0  0.15796  0.31597  0.29986  1.0000
  C   C84       1.0  0.18036  0.36079  0.35297  1.0000
  C   C85       1.0  0.88493  0.11507  0.79954  1.0000
  C   C86       1.0  0.77837  0.22163  0.9541  1.0000
  C   C87       1.0  0.842  0.158  0.7998699999999999  1.0000
  C   C88       1.0  0.81961  0.18039  0.8529699999999999  1.0000
  C   C89       1.0  0.23004  0.11501  0.7995299999999999  1.0000
  C   C90       1.0  0.4433  0.22164  0.9541199999999999  1.0000
  C   C91       1.0  0.31597  0.15796  0.79986  1.0000
  C   C92       1.0  0.36079  0.18036  0.8529699999999999  1.0000
  C   C93       1.0  0.8849899999999999  0.76996  0.7995299999999999  1.0000
  C   C94       1.0  0.77836  0.5567  0.9541199999999999  1.0000
  C   C95       1.0  0.8420399999999998  0.6840299999999998  0.79986  1.0000
  C   C96       1.0  0.81964  0.63922  0.8529699999999999  1.0000
  C   C97       1.0  0.23005  0.11501  0.7004599999999999  1.0000
  C   C98       1.0  0.4433  0.22164  0.54588  1.0000
  C   C99       1.0  0.3159799999999999  0.15796  0.70014  1.0000
  C   C100      1.0  0.36079  0.18036  0.6470299999999999  1.0000
  C   C101      1.0  0.88493  0.11508  0.70045  1.0000
  C   C102      1.0  0.77837  0.22163  0.5459  1.0000
  C   C103      1.0  0.842  0.15801  0.70013  1.0000
  C   C104      1.0  0.81961  0.18039  0.6470299999999999  1.0000
  C   C105      1.0  0.8849899999999999  0.76996  0.70047  1.0000
  C   C106      1.0  0.77836  0.5567  0.54588  1.0000
  C   C107      1.0  0.8420399999999998  0.6840299999999998  0.70014  1.0000
  C   C108      1.0  0.81964  0.63922  0.6470299999999999  1.0000
  C   C109      1.0  0.76995  0.88499  0.20045999999999994  1.0000
  C   C110      1.0  0.55671  0.77836  0.04588  1.0000
  C   C111      1.0  0.68403  0.84204  0.20014  1.0000
  C   C112      1.0  0.6392199999999999  0.8196399999999998  0.14703  1.0000
  C   C113      1.0  0.11507999999999986  0.8849299999999998  0.20045999999999994  1.0000
  C   C114      1.0  0.22163  0.77837  0.04589999999999999  1.0000
  C   C115      1.0  0.15800999999999998  0.842  0.20012999999999997  1.0000
  C   C116      1.0  0.18039  0.81961  0.14703  1.0000
  C   C117      1.0  0.11501  0.23005  0.20047  1.0000
  C   C118      1.0  0.22165  0.4433  0.04588  1.0000
  C   C119      1.0  0.15796  0.31597  0.20014  1.0000
  C   C120      1.0  0.18036  0.36079  0.14703  1.0000
  C   C121      1.0  0.09422  0.90578  0.24999999999999994  1.0000
  C   C122      1.0  0.18014  0.81986  0.24999999999999994  1.0000
  C   C123      1.0  0.8117299999999998  0.90589  0.24999999999999994  1.0000
  C   C124      1.0  0.63971  0.81989  0.24999999999999994  1.0000
  C   C125      1.0  0.09411  0.18828  0.24999999999999994  1.0000
  C   C126      1.0  0.18012  0.36029  0.24999999999999994  1.0000
  C   C127      1.0  0.90578  0.09422  0.75  1.0000
  C   C128      1.0  0.81986  0.18014  0.75  1.0000
  C   C129      1.0  0.18827999999999998  0.09411  0.74999  1.0000
  C   C130      1.0  0.36029  0.18012  0.75  1.0000
  C   C131      1.0  0.90589  0.81173  0.75  1.0000
  C   C132      1.0  0.81989  0.63971  0.75  1.0000
  N   N1        1.0  0.22256999999999985  0.7774399999999998  0.24999999999999994  1.0000
  N   N2        1.0  0.5548  0.77741  0.24999999999999994  1.0000
  N   N3        1.0  0.2226  0.44521  0.24999999999999994  1.0000
  N   N4        1.0  0.77744  0.22256  0.75  1.0000
  N   N5        1.0  0.44520999999999994  0.22259  0.75  1.0000
  N   N6        1.0  0.77741  0.5548  0.75  1.0000
  O   O1        1.0  0.11004  0.63069  0.50269  1.0000
  O   O2        1.0  0.02957  0.59065  0.42628999999999995  1.0000
  O   O3        1.0  0.5206199999999997  0.8899199999999998  0.50271  1.0000
  O   O4        1.0  0.56113  0.97036  0.42628999999999995  1.0000
  O   O5        1.0  0.3693  0.47935  0.50273  1.0000
  O   O6        1.0  0.4092099999999999  0.43886  0.42631  1.0000
  O   O7        1.0  0.8899699999999999  0.36932  0.0026999999999999997  1.0000
  O   O8        1.0  0.97044  0.40935  0.9262899999999998  1.0000
  O   O9        1.0  0.4793899999999999  0.11007999999999998  0.00271  1.0000
  O   O10       1.0  0.43887  0.02965  0.9262899999999998  1.0000
  O   O11       1.0  0.6307  0.52065  0.00274  1.0000
  O   O12       1.0  0.5908  0.56114  0.9263099999999997  1.0000
  O   O13       1.0  0.47934  0.36929  0.49726  1.0000
  O   O14       1.0  0.43887  0.40921  0.5736799999999999  1.0000
  O   O15       1.0  0.63067  0.11003  0.4973099999999999  1.0000
  O   O16       1.0  0.59066  0.029569999999999992  0.5737199999999999  1.0000
  O   O17       1.0  0.88992  0.52061  0.49729  1.0000
  O   O18       1.0  0.97036  0.56113  0.5737099999999999  1.0000
  O   O19       1.0  0.52067  0.63072  0.99726  1.0000
  O   O20       1.0  0.56113  0.59079  0.07369  1.0000
  O   O21       1.0  0.36933  0.88997  0.99731  1.0000
  O   O22       1.0  0.40935  0.97044  0.07372  1.0000
  O   O23       1.0  0.11008999999999991  0.47939999999999994  0.99729  1.0000
  O   O24       1.0  0.029650000000000044  0.43887  0.07371  1.0000
  O   O25       1.0  0.8899699999999999  0.36932  0.49729999999999996  1.0000
  O   O26       1.0  0.97044  0.40935  0.5737099999999999  1.0000
  O   O27       1.0  0.4793899999999999  0.11009  0.49729  1.0000
  O   O28       1.0  0.43887999999999994  0.02965  0.5737099999999999  1.0000
  O   O29       1.0  0.6307  0.52065  0.49726  1.0000
  O   O30       1.0  0.5908  0.56114  0.57369  1.0000
  O   O31       1.0  0.11004  0.63069  0.9972999999999999  1.0000
  O   O32       1.0  0.02957  0.59065  0.07371  1.0000
  O   O33       1.0  0.5206199999999997  0.8899199999999998  0.99729  1.0000
  O   O34       1.0  0.56113  0.97036  0.07371  1.0000
  O   O35       1.0  0.3693  0.47935  0.9972699999999998  1.0000
  O   O36       1.0  0.4092099999999999  0.43886  0.07369  1.0000
  O   O37       1.0  0.52067  0.63072  0.50274  1.0000
  O   O38       1.0  0.56113  0.59079  0.42631  1.0000
  O   O39       1.0  0.36933  0.88997  0.50269  1.0000
  O   O40       1.0  0.40935  0.97044  0.42628  1.0000
  O   O41       1.0  0.11008999999999991  0.47939999999999994  0.50271  1.0000
  O   O42       1.0  0.029650000000000044  0.43887  0.42628999999999995  1.0000
  O   O43       1.0  0.47934  0.36929  0.00274  1.0000
  O   O44       1.0  0.43887  0.40921  0.9263199999999999  1.0000
  O   O45       1.0  0.63068  0.11003  0.0026899999999999992  1.0000
  O   O46       1.0  0.59066  0.029569999999999992  0.92628  1.0000
  O   O47       1.0  0.88992  0.52061  0.00271  1.0000
  O   O48       1.0  0.97036  0.56113  0.9262899999999998  1.0000
  F   F1        1.0  0.05236000000000008  0.94765  0.25000999999999995  1.0000
  F   F2        1.0  0.89554  0.94795  0.24995999999999993  1.0000
  F   F3        1.0  0.05205  0.10446  0.24999999999999994  1.0000
  F   F4        1.0  0.94765  0.05235  0.7499699999999999  1.0000
  F   F5        1.0  0.10445999999999997  0.05205  0.74996  1.0000
  F   F6        1.0  0.94795  0.89554  0.75  1.0000
