data_image0
_chemical_formula_structural       Cd6H78C108N18O24
_chemical_formula_sum              "Cd6 H78 C108 N18 O24"
_cell_length_a       11.80421
_cell_length_b       25.82866
_cell_length_c       25.82755
_cell_angle_alpha    120.23463
_cell_angle_beta     90.0
_cell_angle_gamma    90.0

_symmetry_space_group_name_H-M    'P 1'
_symmetry_Int_Tables_number       1

loop_
  _symmetry_equiv_pos_as_xyz
  'x,y,z'

loop_
  _atom_site_type_symbol
  _atom_site_label
  _atom_site_symmetry_multiplicity
  _atom_site_fract_x
  _atom_site_fract_y
  _atom_site_fract_z
  _atom_site_occupancy
  Cd  Cd1       1.0  0.0  0.93598  0.52737  1.0000
  Cd  Cd2       1.0  0.0  0.59082  0.06334  1.0000
  Cd  Cd3       1.0  0.0  0.4721  0.40852  1.0000
  Cd  Cd4       1.0  0.0  0.06402  0.47263  1.0000
  Cd  Cd5       1.0  0.0  0.4091800000000001  0.93666  1.0000
  Cd  Cd6       1.0  0.0  0.5279  0.59149  1.0000
  H   H1        1.0  0.20712000000000005  0.99525  0.61218  1.0000
  H   H2        1.0  0.41686  0.99679  0.61583  1.0000
  H   H3        1.0  0.4139900000000001  0.8763099999999999  0.42357999999999996  1.0000
  H   H4        1.0  0.20429000000000003  0.8806  0.42882  1.0000
  H   H5        1.0  0.20722000000000004  0.61671  0.00489  1.0000
  H   H6        1.0  0.41691000000000006  0.61899  0.00353  1.0000
  H   H7        1.0  0.41391  0.54752  0.12350999999999997  1.0000
  H   H8        1.0  0.20419000000000004  0.5483  0.11903999999999999  1.0000
  H   H9        1.0  0.20731  0.38783  0.38314  1.0000
  H   H10       1.0  0.41699000000000014  0.38427000000000006  0.38099999999999995  1.0000
  H   H11       1.0  0.41381  0.57626  0.45262999999999987  1.0000
  H   H12       1.0  0.20407  0.57092  0.45162999999999986  1.0000
  H   H13       1.0  0.20712000000000005  0.00474999999999998  0.38782  1.0000
  H   H14       1.0  0.41686  0.003209999999999997  0.38417  1.0000
  H   H15       1.0  0.4139900000000001  0.12368999999999995  0.5764199999999999  1.0000
  H   H16       1.0  0.20429000000000003  0.11939999999999996  0.5711799999999999  1.0000
  H   H17       1.0  0.20722000000000004  0.3832900000000001  0.99512  1.0000
  H   H18       1.0  0.41691000000000006  0.38100999999999996  0.9964699999999999  1.0000
  H   H19       1.0  0.41391  0.45248  0.8764999999999998  1.0000
  H   H20       1.0  0.20419000000000004  0.4517  0.88096  1.0000
  H   H21       1.0  0.20731  0.61217  0.6168599999999999  1.0000
  H   H22       1.0  0.41699000000000014  0.61573  0.61901  1.0000
  H   H23       1.0  0.41381  0.42374  0.54737  1.0000
  H   H24       1.0  0.20407  0.42908000000000013  0.54837  1.0000
  H   H25       1.0  0.79288  0.00474999999999998  0.38782  1.0000
  H   H26       1.0  0.58314  0.003209999999999997  0.38417  1.0000
  H   H27       1.0  0.58601  0.12368999999999995  0.5764199999999999  1.0000
  H   H28       1.0  0.7957100000000003  0.11939999999999996  0.5711799999999999  1.0000
  H   H29       1.0  0.79278  0.3832900000000001  0.99512  1.0000
  H   H30       1.0  0.58309  0.38100999999999996  0.9964699999999999  1.0000
  H   H31       1.0  0.58609  0.45248  0.8764999999999998  1.0000
  H   H32       1.0  0.7958  0.4517  0.88096  1.0000
  H   H33       1.0  0.7926800000000002  0.61217  0.6168599999999999  1.0000
  H   H34       1.0  0.58301  0.61573  0.61901  1.0000
  H   H35       1.0  0.58619  0.42374  0.54737  1.0000
  H   H36       1.0  0.79593  0.42908000000000013  0.54837  1.0000
  H   H37       1.0  0.79288  0.99525  0.61218  1.0000
  H   H38       1.0  0.58314  0.99679  0.61583  1.0000
  H   H39       1.0  0.58601  0.8763099999999999  0.42357999999999996  1.0000
  H   H40       1.0  0.7957100000000003  0.8806  0.42882  1.0000
  H   H41       1.0  0.79278  0.61671  0.00489  1.0000
  H   H42       1.0  0.58309  0.61899  0.00353  1.0000
  H   H43       1.0  0.58609  0.54752  0.12350999999999997  1.0000
  H   H44       1.0  0.7958  0.5483  0.11903999999999999  1.0000
  H   H45       1.0  0.7926800000000002  0.38783  0.38314  1.0000
  H   H46       1.0  0.58301  0.38427000000000006  0.38099999999999995  1.0000
  H   H47       1.0  0.58619  0.57626  0.45262999999999987  1.0000
  H   H48       1.0  0.79593  0.57092  0.45162999999999986  1.0000
  H   H49       1.0  0.0  0.1718299999999999  0.6178999999999999  1.0000
  H   H50       1.0  0.0  0.32496000000000014  0.7466399999999997  1.0000
  H   H51       1.0  0.0  0.27986  0.66555  1.0000
  H   H52       1.0  0.0  0.19691  0.82163  1.0000
  H   H53       1.0  0.0  0.09325999999999993  0.73042  1.0000
  H   H54       1.0  0.0  0.44596  0.8276  1.0000
  H   H55       1.0  0.0  0.42142999999999997  0.6747899999999999  1.0000
  H   H56       1.0  0.0  0.38533000000000006  0.71953  1.0000
  H   H57       1.0  0.0  0.62518  0.8037999999999998  1.0000
  H   H58       1.0  0.0  0.6377199999999998  0.9071799999999999  1.0000
  H   H59       1.0  0.0  0.38215999999999994  0.5541599999999999  1.0000
  H   H60       1.0  0.0  0.25390000000000007  0.57837  1.0000
  H   H61       1.0  0.0  0.33495  0.61465  1.0000
  H   H62       1.0  0.0  0.17801  0.3746099999999999  1.0000
  H   H63       1.0  0.0  0.26893000000000006  0.36232  1.0000
  H   H64       1.0  0.0  0.82817  0.3821  1.0000
  H   H65       1.0  0.0  0.6750400000000001  0.25336  1.0000
  H   H66       1.0  0.0  0.72014  0.33445  1.0000
  H   H67       1.0  0.0  0.8030900000000002  0.17837  1.0000
  H   H68       1.0  0.0  0.90674  0.26958  1.0000
  H   H69       1.0  0.0  0.55404  0.17239999999999997  1.0000
  H   H70       1.0  0.0  0.57857  0.32521  1.0000
  H   H71       1.0  0.0  0.61467  0.28047  1.0000
  H   H72       1.0  0.0  0.37482000000000004  0.19619999999999999  1.0000
  H   H73       1.0  0.0  0.36228  0.09282  1.0000
  H   H74       1.0  0.0  0.61784  0.44585  1.0000
  H   H75       1.0  0.0  0.7461000000000002  0.4216299999999999  1.0000
  H   H76       1.0  0.0  0.66505  0.3853499999999999  1.0000
  H   H77       1.0  0.0  0.8219900000000002  0.62539  1.0000
  H   H78       1.0  0.0  0.73107  0.63768  1.0000
  C   C1        1.0  0.25730000000000003  0.9698000000000002  0.5715699999999999  1.0000
  C   C2        1.0  0.37505  0.9702000000000001  0.57286  1.0000
  C   C3        1.0  0.43703000000000003  0.93675  0.51959  1.0000
  C   C4        1.0  0.37341  0.90376  0.4668  1.0000
  C   C5        1.0  0.25553  0.9056500000000001  0.4690799999999999  1.0000
  C   C6        1.0  0.25736  0.6016200000000002  0.030239999999999993  1.0000
  C   C7        1.0  0.37508  0.60262  0.029959999999999994  1.0000
  C   C8        1.0  0.43704  0.5829  0.06328999999999999  1.0000
  C   C9        1.0  0.37337000000000004  0.56316  0.09611999999999997  1.0000
  C   C10       1.0  0.25549  0.5634300000000001  0.09411  1.0000
  C   C11       1.0  0.2574  0.42841  0.39825  1.0000
  C   C12       1.0  0.3751300000000001  0.4271700000000001  0.39735  1.0000
  C   C13       1.0  0.43703000000000003  0.48039  0.41712999999999995  1.0000
  C   C14       1.0  0.3733000000000001  0.5330899999999998  0.4368899999999999  1.0000
  C   C15       1.0  0.25541  0.53075  0.4364999999999999  1.0000
  C   C16       1.0  0.25730000000000003  0.03020000000000003  0.42843  1.0000
  C   C17       1.0  0.37505  0.029799999999999924  0.4271399999999999  1.0000
  C   C18       1.0  0.43703000000000003  0.06324999999999999  0.48040999999999995  1.0000
  C   C19       1.0  0.37341  0.09624000000000006  0.53321  1.0000
  C   C20       1.0  0.25553  0.09435000000000006  0.53092  1.0000
  C   C21       1.0  0.25736  0.39837999999999996  0.9697599999999998  1.0000
  C   C22       1.0  0.37508  0.39737999999999996  0.9700399999999998  1.0000
  C   C23       1.0  0.43704  0.41709999999999997  0.9367099999999999  1.0000
  C   C24       1.0  0.37337000000000004  0.43684000000000006  0.90388  1.0000
  C   C25       1.0  0.25549  0.43657  0.90589  1.0000
  C   C26       1.0  0.2574  0.57159  0.6017499999999999  1.0000
  C   C27       1.0  0.3751300000000001  0.5728299999999998  0.6026499999999999  1.0000
  C   C28       1.0  0.43703000000000003  0.51961  0.58287  1.0000
  C   C29       1.0  0.3733000000000001  0.4669100000000001  0.56311  1.0000
  C   C30       1.0  0.25541  0.4692500000000001  0.5635  1.0000
  C   C31       1.0  0.74269  0.03020000000000003  0.42843  1.0000
  C   C32       1.0  0.62495  0.029799999999999924  0.4271399999999999  1.0000
  C   C33       1.0  0.5629600000000001  0.06324999999999999  0.48040999999999995  1.0000
  C   C34       1.0  0.6265900000000001  0.09624000000000006  0.53321  1.0000
  C   C35       1.0  0.7444700000000001  0.09435000000000006  0.53092  1.0000
  C   C36       1.0  0.7426400000000001  0.39837999999999996  0.9697599999999998  1.0000
  C   C37       1.0  0.62491  0.39737999999999996  0.9700399999999998  1.0000
  C   C38       1.0  0.56295  0.41709999999999997  0.9367099999999999  1.0000
  C   C39       1.0  0.62663  0.43684000000000006  0.90388  1.0000
  C   C40       1.0  0.74451  0.43657  0.90589  1.0000
  C   C41       1.0  0.7426  0.57159  0.6017499999999999  1.0000
  C   C42       1.0  0.62487  0.5728299999999998  0.6026499999999999  1.0000
  C   C43       1.0  0.5629600000000001  0.51961  0.58287  1.0000
  C   C44       1.0  0.6267  0.4669100000000001  0.56311  1.0000
  C   C45       1.0  0.7445900000000001  0.4692500000000001  0.5635  1.0000
  C   C46       1.0  0.74269  0.9698000000000002  0.5715699999999999  1.0000
  C   C47       1.0  0.62495  0.9702000000000001  0.57286  1.0000
  C   C48       1.0  0.5629600000000001  0.93675  0.51959  1.0000
  C   C49       1.0  0.6265900000000001  0.90376  0.4668  1.0000
  C   C50       1.0  0.7444700000000001  0.9056500000000001  0.4690799999999999  1.0000
  C   C51       1.0  0.7426400000000001  0.6016200000000002  0.030239999999999993  1.0000
  C   C52       1.0  0.62491  0.60262  0.029959999999999994  1.0000
  C   C53       1.0  0.56295  0.5829  0.06328999999999999  1.0000
  C   C54       1.0  0.62663  0.56316  0.09611999999999997  1.0000
  C   C55       1.0  0.74451  0.5634300000000001  0.09411  1.0000
  C   C56       1.0  0.7426  0.42841  0.39825  1.0000
  C   C57       1.0  0.62487  0.4271700000000001  0.39735  1.0000
  C   C58       1.0  0.5629600000000001  0.48039  0.41712999999999995  1.0000
  C   C59       1.0  0.6267  0.5330899999999998  0.4368899999999999  1.0000
  C   C60       1.0  0.7445900000000001  0.53075  0.4364999999999999  1.0000
  C   C61       1.0  0.0  0.06539000000000005  0.61447  1.0000
  C   C62       1.0  0.0  0.12676  0.66898  1.0000
  C   C63       1.0  0.0  0.17722  0.66256  1.0000
  C   C64       1.0  0.0  0.23544999999999994  0.7133299999999998  1.0000
  C   C65       1.0  0.0  0.24215  0.77161  1.0000
  C   C66       1.0  0.0  0.19034000000000004  0.7766  1.0000
  C   C67       1.0  0.0  0.13319999999999996  0.72652  1.0000
  C   C68       1.0  0.0  0.3021299999999999  0.8273299999999998  1.0000
  C   C69       1.0  0.0  0.54918  0.93444  1.0000
  C   C70       1.0  0.0  0.54238  0.8732099999999999  1.0000
  C   C71       1.0  0.0  0.48533000000000004  0.8224599999999999  1.0000
  C   C72       1.0  0.0  0.47782999999999987  0.7643699999999998  1.0000
  C   C73       1.0  0.0  0.52959  0.75803  1.0000
  C   C74       1.0  0.0  0.58658  0.81009  1.0000
  C   C75       1.0  0.0  0.59367  0.8670999999999999  1.0000
  C   C76       1.0  0.0  0.5252299999999999  0.69817  1.0000
  C   C77       1.0  0.0  0.38538  0.45114  1.0000
  C   C78       1.0  0.0  0.33081999999999995  0.4577099999999999  1.0000
  C   C79       1.0  0.0  0.33742  0.51471  1.0000
  C   C80       1.0  0.0  0.2868  0.52209  1.0000
  C   C81       1.0  0.0  0.22839  0.4702199999999999  1.0000
  C   C82       1.0  0.0  0.22315999999999997  0.41326999999999997  1.0000
  C   C83       1.0  0.0  0.27312  0.4063299999999999  1.0000
  C   C84       1.0  0.0  0.17284  0.47439999999999993  1.0000
  C   C85       1.0  0.0  0.9346100000000002  0.38552999999999993  1.0000
  C   C86       1.0  0.0  0.8732400000000002  0.33102  1.0000
  C   C87       1.0  0.0  0.8227800000000002  0.33744  1.0000
  C   C88       1.0  0.0  0.76455  0.28667  1.0000
  C   C89       1.0  0.0  0.7578500000000001  0.22839  1.0000
  C   C90       1.0  0.0  0.8096600000000002  0.22339999999999993  1.0000
  C   C91       1.0  0.0  0.8668000000000001  0.27348  1.0000
  C   C92       1.0  0.0  0.6978700000000001  0.17266999999999993  1.0000
  C   C93       1.0  0.0  0.45082  0.06556  1.0000
  C   C94       1.0  0.0  0.45762  0.12679  1.0000
  C   C95       1.0  0.0  0.51467  0.17754  1.0000
  C   C96       1.0  0.0  0.52217  0.23562999999999998  1.0000
  C   C97       1.0  0.0  0.47041  0.24196999999999994  1.0000
  C   C98       1.0  0.0  0.41342  0.18990999999999997  1.0000
  C   C99       1.0  0.0  0.40633  0.13289999999999996  1.0000
  C   C100      1.0  0.0  0.47477000000000014  0.30183  1.0000
  C   C101      1.0  0.0  0.6146199999999999  0.5488599999999999  1.0000
  C   C102      1.0  0.0  0.6691800000000001  0.54229  1.0000
  C   C103      1.0  0.0  0.66258  0.48528999999999994  1.0000
  C   C104      1.0  0.0  0.7132  0.47791  1.0000
  C   C105      1.0  0.0  0.7716100000000002  0.52978  1.0000
  C   C106      1.0  0.0  0.77684  0.58673  1.0000
  C   C107      1.0  0.0  0.72688  0.59367  1.0000
  C   C108      1.0  0.0  0.8271600000000001  0.5256  1.0000
  N   N1        1.0  0.19801000000000002  0.9383400000000002  0.52051  1.0000
  N   N2        1.0  0.19801000000000002  0.58199  0.06145  1.0000
  N   N3        1.0  0.19799000000000005  0.4793600000000001  0.41780999999999996  1.0000
  N   N4        1.0  0.19801000000000002  0.06165999999999996  0.4794899999999999  1.0000
  N   N5        1.0  0.19801000000000002  0.41801  0.93855  1.0000
  N   N6        1.0  0.19799000000000005  0.52064  0.58219  1.0000
  N   N7        1.0  0.80198  0.06165999999999996  0.4794899999999999  1.0000
  N   N8        1.0  0.8019900000000002  0.41801  0.93855  1.0000
  N   N9        1.0  0.8020100000000001  0.52064  0.58219  1.0000
  N   N10       1.0  0.80198  0.9383400000000002  0.52051  1.0000
  N   N11       1.0  0.8019900000000002  0.58199  0.06145  1.0000
  N   N12       1.0  0.8020100000000001  0.4793600000000001  0.41780999999999996  1.0000
  N   N13       1.0  0.0  0.28480999999999995  0.7068499999999999  1.0000
  N   N14       1.0  0.0  0.42178000000000004  0.7148099999999998  1.0000
  N   N15       1.0  0.0  0.29358  0.5781  1.0000
  N   N16       1.0  0.0  0.71519  0.29314999999999997  1.0000
  N   N17       1.0  0.0  0.5782200000000001  0.28518999999999994  1.0000
  N   N18       1.0  0.0  0.7064200000000003  0.4218999999999999  1.0000
  O   O1        1.0  0.0  0.020349999999999948  0.6225799999999999  1.0000
  O   O2        1.0  0.0  0.059369999999999985  0.56239  1.0000
  O   O3        1.0  0.0  0.30455  0.8779199999999999  1.0000
  O   O4        1.0  0.0  0.35050000000000003  0.82399  1.0000
  O   O5        1.0  0.0  0.60249  0.97969  1.0000
  O   O6        1.0  0.0  0.50299  0.9402399999999999  1.0000
  O   O7        1.0  0.0  0.5735200000000001  0.6959599999999999  1.0000
  O   O8        1.0  0.0  0.47329000000000004  0.64972  1.0000
  O   O9        1.0  0.0  0.3771700000000001  0.39788999999999997  1.0000
  O   O10       1.0  0.0  0.43756000000000006  0.49740999999999996  1.0000
  O   O11       1.0  0.0  0.12205000000000003  0.42613  1.0000
  O   O12       1.0  0.0  0.17665000000000003  0.52636  1.0000
  O   O13       1.0  0.0  0.9796500000000001  0.37742  1.0000
  O   O14       1.0  0.0  0.94063  0.4376099999999999  1.0000
  O   O15       1.0  0.0  0.6954500000000001  0.12207999999999997  1.0000
  O   O16       1.0  0.0  0.6495000000000002  0.17601  1.0000
  O   O17       1.0  0.0  0.39751  0.020309999999999998  1.0000
  O   O18       1.0  0.0  0.4970100000000001  0.05976  1.0000
  O   O19       1.0  0.0  0.42648  0.30404  1.0000
  O   O20       1.0  0.0  0.5267099999999999  0.3502799999999999  1.0000
  O   O21       1.0  0.0  0.62283  0.6021099999999999  1.0000
  O   O22       1.0  0.0  0.56243  0.50259  1.0000
  O   O23       1.0  0.0  0.8779500000000001  0.57387  1.0000
  O   O24       1.0  0.0  0.8233500000000002  0.4736399999999999  1.0000
