data_image0
_chemical_formula_structural       Mg12H104C128N16O72
_chemical_formula_sum              "Mg12 H104 C128 N16 O72"
_cell_length_a       15.08154
_cell_length_b       19.68926
_cell_length_c       20.01884
_cell_angle_alpha    89.67647
_cell_angle_beta     89.91948
_cell_angle_gamma    89.92408

_symmetry_space_group_name_H-M    'P 1'
_symmetry_Int_Tables_number       1

loop_
  _symmetry_equiv_pos_as_xyz
  'x,y,z'

loop_
  _atom_site_type_symbol
  _atom_site_label
  _atom_site_symmetry_multiplicity
  _atom_site_fract_x
  _atom_site_fract_y
  _atom_site_fract_z
  _atom_site_occupancy
  Mg  Mg1       1.0  0.71621  0.5236800000000001  0.97999  1.0000
  Mg  Mg2       1.0  0.28394  0.9775900000000001  0.47986999999999996  1.0000
  Mg  Mg3       1.0  0.2173  0.4762100000000001  0.52034  1.0000
  Mg  Mg4       1.0  0.78356  0.02215  0.01994  1.0000
  Mg  Mg5       1.0  0.28379  0.47632  0.02001  1.0000
  Mg  Mg6       1.0  0.71606  0.022409999999999996  0.52013  1.0000
  Mg  Mg7       1.0  0.7827  0.5238000000000002  0.47966  1.0000
  Mg  Mg8       1.0  0.21644  0.97786  0.9800599999999999  1.0000
  Mg  Mg9       1.0  0.5  0.5  0.0  1.0000
  Mg  Mg10      1.0  0.5  0.0  0.5  1.0000
  Mg  Mg11      1.0  1.1502296688380676e-19  0.5  0.5  1.0000
  Mg  Mg12      1.0  0.0  0.0  0.0  1.0000
  H   H1        1.0  0.83895  0.53557  0.62219  1.0000
  H   H2        1.0  0.34596  0.79311  0.03907  1.0000
  H   H3        1.0  0.37959  0.8751000000000001  0.04793  1.0000
  H   H4        1.0  0.34279  0.5312  0.69835  1.0000
  H   H5        1.0  0.38162  0.53495  0.61901  1.0000
  H   H6        1.0  0.44846  0.6988000000000002  0.02341  1.0000
  H   H7        1.0  0.72551  0.74415  0.006519999999999999  1.0000
  H   H8        1.0  0.5380300000000002  0.9067000000000002  0.03478  1.0000
  H   H9        1.0  0.54485  0.52076  0.59608  1.0000
  H   H10       1.0  0.7188  0.5287300000000001  0.76723  1.0000
  H   H11       1.0  0.43709  0.52028  0.79568  1.0000
  H   H12       1.0  0.61489  0.4495100000000001  0.06977  1.0000
  H   H13       1.0  0.66498  0.4021700000000001  0.00077  1.0000
  H   H14       1.0  0.16123000000000004  0.9626700000000002  0.12383999999999999  1.0000
  H   H15       1.0  0.65435  0.70864  0.54043  1.0000
  H   H16       1.0  0.62128  0.6262  0.54882  1.0000
  H   H17       1.0  0.65776  0.9699400000000001  0.19727  1.0000
  H   H18       1.0  0.6186500000000001  0.9639000000000001  0.11802  1.0000
  H   H19       1.0  0.55093  0.80238  0.52168  1.0000
  H   H20       1.0  0.2742900000000001  0.75517  0.50492  1.0000
  H   H21       1.0  0.46363  0.59398  0.53576  1.0000
  H   H22       1.0  0.45509  0.9784100000000001  0.09547  1.0000
  H   H23       1.0  0.28222  0.9745600000000002  0.26789  1.0000
  H   H24       1.0  0.56395  0.98374  0.29433  1.0000
  H   H25       1.0  0.38452  0.051930000000000004  0.56907  1.0000
  H   H26       1.0  0.33531000000000005  0.09764  0.49968999999999997  1.0000
  H   H27       1.0  0.33879  0.4613400000000001  0.8773500000000001  1.0000
  H   H28       1.0  0.84585  0.20797000000000002  0.45939  1.0000
  H   H29       1.0  0.8794  0.12563  0.45164  1.0000
  H   H30       1.0  0.8430300000000001  0.46953  0.80224  1.0000
  H   H31       1.0  0.88163  0.46407  0.88153  1.0000
  H   H32       1.0  0.94856  0.30197  0.4754999999999999  1.0000
  H   H33       1.0  0.22541  0.25563  0.49382999999999994  1.0000
  H   H34       1.0  0.03802  0.09375  0.4646700000000001  1.0000
  H   H35       1.0  0.04478  0.47825000000000006  0.90448  1.0000
  H   H36       1.0  0.21877  0.47203  0.73267  1.0000
  H   H37       1.0  0.93729  0.48075  0.70515  1.0000
  H   H38       1.0  0.11624  0.55154  0.43133  1.0000
  H   H39       1.0  0.16575  0.5962500000000001  0.50063  1.0000
  H   H40       1.0  0.6608  0.03657  0.37786  1.0000
  H   H41       1.0  0.15396  0.29184  0.96102  1.0000
  H   H42       1.0  0.12047  0.37415  0.95279  1.0000
  H   H43       1.0  0.15702  0.03097  0.30117  1.0000
  H   H44       1.0  0.11845  0.03605  0.38047  1.0000
  H   H45       1.0  0.0512  0.19768  0.97626  1.0000
  H   H46       1.0  0.77401  0.24355  0.99319  1.0000
  H   H47       1.0  0.962  0.40593000000000007  0.9653  1.0000
  H   H48       1.0  0.9551400000000001  0.02142  0.404  1.0000
  H   H49       1.0  0.78101  0.026310000000000004  0.23272  1.0000
  H   H50       1.0  0.0627  0.01821  0.20437999999999998  1.0000
  H   H51       1.0  0.88561  0.9489100000000001  0.92999  1.0000
  H   H52       1.0  0.83543  0.90258  0.9985499999999999  1.0000
  H   H53       1.0  0.16105  0.46443000000000006  0.37781  1.0000
  H   H54       1.0  0.65404  0.2069  0.9609399999999999  1.0000
  H   H55       1.0  0.6204100000000001  0.12490000000000001  0.95207  1.0000
  H   H56       1.0  0.65721  0.46881  0.30165  1.0000
  H   H57       1.0  0.61838  0.46506000000000003  0.38099  1.0000
  H   H58       1.0  0.55154  0.30121  0.97659  1.0000
  H   H59       1.0  0.27449  0.2558500000000001  0.9934800000000001  1.0000
  H   H60       1.0  0.46197  0.09331000000000002  0.96522  1.0000
  H   H61       1.0  0.4551500000000001  0.47925  0.40392999999999996  1.0000
  H   H62       1.0  0.2812  0.47128  0.23277  1.0000
  H   H63       1.0  0.56291  0.47972  0.20433000000000004  1.0000
  H   H64       1.0  0.38511  0.55049  0.93023  1.0000
  H   H65       1.0  0.33502  0.5978400000000001  0.99924  1.0000
  H   H66       1.0  0.83877  0.03733  0.87616  1.0000
  H   H67       1.0  0.34565  0.29136  0.45957  1.0000
  H   H68       1.0  0.37872  0.37381000000000003  0.45119  1.0000
  H   H69       1.0  0.34224000000000004  0.030070000000000006  0.80273  1.0000
  H   H70       1.0  0.38135  0.03611  0.88198  1.0000
  H   H71       1.0  0.44908  0.19762000000000005  0.47833  1.0000
  H   H72       1.0  0.72572  0.24484  0.49508  1.0000
  H   H73       1.0  0.5363800000000001  0.4060300000000001  0.46424999999999994  1.0000
  H   H74       1.0  0.5449100000000001  0.021600000000000005  0.9045299999999998  1.0000
  H   H75       1.0  0.7177800000000002  0.02545  0.73211  1.0000
  H   H76       1.0  0.43605  0.016260000000000007  0.70567  1.0000
  H   H77       1.0  0.61549  0.9480800000000003  0.43093000000000004  1.0000
  H   H78       1.0  0.66469  0.9023600000000002  0.50031  1.0000
  H   H79       1.0  0.6612100000000001  0.53867  0.12265  1.0000
  H   H80       1.0  0.15415  0.79203  0.54061  1.0000
  H   H81       1.0  0.1206  0.8743700000000001  0.54836  1.0000
  H   H82       1.0  0.15698  0.53048  0.19776  1.0000
  H   H83       1.0  0.11837  0.53594  0.11847999999999999  1.0000
  H   H84       1.0  0.05145  0.69803  0.5245  1.0000
  H   H85       1.0  0.7746  0.74438  0.50617  1.0000
  H   H86       1.0  0.96198  0.9062500000000001  0.53533  1.0000
  H   H87       1.0  0.95523  0.52176  0.09552  1.0000
  H   H88       1.0  0.7812300000000002  0.52798  0.26734  1.0000
  H   H89       1.0  0.06271  0.51926  0.29485  1.0000
  H   H90       1.0  0.88376  0.44847000000000004  0.56868  1.0000
  H   H91       1.0  0.83425  0.40375999999999995  0.49937  1.0000
  H   H92       1.0  0.3392  0.96344  0.62215  1.0000
  H   H93       1.0  0.84604  0.70816  0.03899  1.0000
  H   H94       1.0  0.87953  0.6258600000000001  0.04721  1.0000
  H   H95       1.0  0.84298  0.9690300000000001  0.69883  1.0000
  H   H96       1.0  0.8815500000000002  0.96396  0.61953  1.0000
  H   H97       1.0  0.9488  0.80233  0.02375  1.0000
  H   H98       1.0  0.22599  0.75645  0.00681  1.0000
  H   H99       1.0  0.038000000000000006  0.59408  0.0347  1.0000
  H   H100      1.0  0.04487  0.97859  0.596  1.0000
  H   H101      1.0  0.21899  0.9737000000000001  0.76728  1.0000
  H   H102      1.0  0.9373  0.9817900000000002  0.79563  1.0000
  H   H103      1.0  0.11439  0.05110000000000001  0.07001  1.0000
  H   H104      1.0  0.16457  0.09743  0.00146  1.0000
  C   C1        1.0  0.5789  0.5220600000000001  0.7884  1.0000
  C   C2        1.0  0.5887100000000001  0.71464  0.01561  1.0000
  C   C3        1.0  0.48068  0.8061400000000002  0.029280000000000004  1.0000
  C   C4        1.0  0.50109  0.7365300000000002  0.02319  1.0000
  C   C5        1.0  0.63868  0.52576  0.67679  1.0000
  C   C6        1.0  0.7126600000000002  0.52955  0.62933  1.0000
  C   C7        1.0  0.63917  0.8304  0.02411  1.0000
  C   C8        1.0  0.47805  0.5225800000000002  0.6921  1.0000
  C   C9        1.0  0.60772  0.64032  0.00797  1.0000
  C   C10       1.0  0.6582600000000002  0.7614500000000001  0.01505  1.0000
  C   C11       1.0  0.55131  0.8526400000000002  0.03076  1.0000
  C   C12       1.0  0.55265  0.52318  0.64996  1.0000
  C   C13       1.0  0.65272  0.52547  0.74608  1.0000
  C   C14       1.0  0.49329000000000006  0.52172  0.76168  1.0000
  C   C15       1.0  0.59117  0.5175300000000002  0.8629299999999999  1.0000
  C   C16       1.0  0.71149  0.88085  0.02444  1.0000
  C   C17       1.0  0.4222  0.9817500000000001  0.28806  1.0000
  C   C18       1.0  0.41079  0.7857500000000002  0.51373  1.0000
  C   C19       1.0  0.51982  0.6949500000000001  0.52926  1.0000
  C   C20       1.0  0.49862  0.76439  0.52188  1.0000
  C   C21       1.0  0.36166  0.9754000000000003  0.17684  1.0000
  C   C22       1.0  0.28748  0.9708400000000001  0.12979  1.0000
  C   C23       1.0  0.3616300000000001  0.6694200000000001  0.52354  1.0000
  C   C24       1.0  0.52241  0.97861  0.19115  1.0000
  C   C25       1.0  0.39157  0.8601700000000001  0.50529  1.0000
  C   C26       1.0  0.34174  0.73837  0.51371  1.0000
  C   C27       1.0  0.44973  0.6479300000000001  0.53078  1.0000
  C   C28       1.0  0.44754  0.97731  0.14946  1.0000
  C   C29       1.0  0.34811000000000003  0.9772800000000001  0.24623999999999996  1.0000
  C   C30       1.0  0.50755  0.9814300000000001  0.26074  1.0000
  C   C31       1.0  0.41126  0.9872000000000001  0.36267  1.0000
  C   C32       1.0  0.29035  0.6178600000000001  0.52427  1.0000
  C   C33       1.0  0.07894  0.47895  0.71206  1.0000
  C   C34       1.0  0.08873  0.28567000000000004  0.48425  1.0000
  C   C35       1.0  0.98062  0.19454000000000002  0.46982999999999997  1.0000
  C   C36       1.0  0.0011499999999999998  0.26409000000000005  0.47603999999999996  1.0000
  C   C37       1.0  0.13880000000000003  0.47380000000000005  0.8234800000000001  1.0000
  C   C38       1.0  0.21275  0.46937  0.8707  1.0000
  C   C39       1.0  0.13904  0.16976  0.47574  1.0000
  C   C40       1.0  0.9782000000000002  0.47753  0.8085800000000001  1.0000
  C   C41       1.0  0.10773  0.35994  0.49205  1.0000
  C   C42       1.0  0.15819  0.23864  0.48495000000000005  1.0000
  C   C43       1.0  0.05121  0.1478  0.46878  1.0000
  C   C44       1.0  0.05277000000000001  0.47626  0.85055  1.0000
  C   C45       1.0  0.15278  0.47490000000000004  0.75413  1.0000
  C   C46       1.0  0.99345  0.4791300000000001  0.73902  1.0000
  C   C47       1.0  0.09087  0.48385  0.63757  1.0000
  C   C48       1.0  0.21126000000000006  0.11909000000000003  0.47540000000000004  1.0000
  C   C49       1.0  0.92078  0.019670000000000003  0.21156999999999998  1.0000
  C   C50       1.0  0.9108200000000002  0.21372000000000002  0.98421  1.0000
  C   C51       1.0  0.01904  0.30512  0.97067  1.0000
  C   C52       1.0  0.9985  0.23547  0.97666  1.0000
  C   C53       1.0  0.8611  0.02503  0.32316  1.0000
  C   C54       1.0  0.78719  0.02931  0.37061  1.0000
  C   C55       1.0  0.86044  0.3299  0.97572  1.0000
  C   C56       1.0  0.02165  0.02202  0.30782  1.0000
  C   C57       1.0  0.89192  0.13923000000000002  0.99184  1.0000
  C   C58       1.0  0.8413  0.26080000000000003  0.98473  1.0000
  C   C59       1.0  0.94844  0.35187  0.96921  1.0000
  C   C60       1.0  0.94714  0.02294  0.35005  1.0000
  C   C61       1.0  0.84707  0.02358  0.25391  1.0000
  C   C62       1.0  0.0064  0.01996  0.23827000000000004  1.0000
  C   C63       1.0  0.90866  0.01464  0.13713  1.0000
  C   C64       1.0  0.78832  0.38086  0.97552  1.0000
  C   C65       1.0  0.4211000000000001  0.47795000000000004  0.2116  1.0000
  C   C66       1.0  0.41129  0.28537  0.9843900000000001  1.0000
  C   C67       1.0  0.51932  0.19387  0.9707299999999999  1.0000
  C   C68       1.0  0.49891  0.26348000000000005  0.9768199999999999  1.0000
  C   C69       1.0  0.36132  0.47425000000000006  0.32321  1.0000
  C   C70       1.0  0.28734  0.47046  0.37067  1.0000
  C   C71       1.0  0.36083000000000004  0.16961000000000004  0.9759  1.0000
  C   C72       1.0  0.52195  0.4774300000000001  0.3079  1.0000
  C   C73       1.0  0.39228  0.35969  0.9920299999999999  1.0000
  C   C74       1.0  0.34174  0.23856  0.98495  1.0000
  C   C75       1.0  0.44869  0.14737  0.9692500000000001  1.0000
  C   C76       1.0  0.44735  0.47683  0.35004  1.0000
  C   C77       1.0  0.34728  0.47453000000000006  0.25392  1.0000
  C   C78       1.0  0.50671  0.47829  0.23833  1.0000
  C   C79       1.0  0.40883  0.48248000000000013  0.13708  1.0000
  C   C80       1.0  0.28851  0.11916  0.97557  1.0000
  C   C81       1.0  0.5778000000000001  0.018249999999999995  0.71195  1.0000
  C   C82       1.0  0.58921  0.21426  0.48627999999999993  1.0000
  C   C83       1.0  0.48019  0.30506  0.47074  1.0000
  C   C84       1.0  0.50138  0.23561  0.47811999999999993  1.0000
  C   C85       1.0  0.63834  0.024600000000000007  0.82316  1.0000
  C   C86       1.0  0.71252  0.029170000000000005  0.87022  1.0000
  C   C87       1.0  0.63837  0.33059  0.47646  1.0000
  C   C88       1.0  0.47759  0.021400000000000002  0.80885  1.0000
  C   C89       1.0  0.60843  0.13984000000000002  0.4947099999999999  1.0000
  C   C90       1.0  0.65827  0.26164000000000004  0.48628999999999994  1.0000
  C   C91       1.0  0.55027  0.35208  0.46921999999999997  1.0000
  C   C92       1.0  0.5524600000000001  0.022700000000000012  0.85054  1.0000
  C   C93       1.0  0.65189  0.022719999999999997  0.75377  1.0000
  C   C94       1.0  0.49245  0.01857  0.73927  1.0000
  C   C95       1.0  0.58874  0.012810000000000002  0.63733  1.0000
  C   C96       1.0  0.70965  0.38214  0.47574  1.0000
  C   C97       1.0  0.9210600000000001  0.52106  0.28794  1.0000
  C   C98       1.0  0.91127  0.71434  0.51575  1.0000
  C   C99       1.0  0.01938  0.8054700000000002  0.53017  1.0000
  C   C100      1.0  0.99885  0.73591  0.52396  1.0000
  C   C101      1.0  0.86121  0.5262100000000001  0.17653  1.0000
  C   C102      1.0  0.78725  0.53063  0.12931  1.0000
  C   C103      1.0  0.86096  0.8302400000000001  0.52427  1.0000
  C   C104      1.0  0.021799999999999996  0.52248  0.19142  1.0000
  C   C105      1.0  0.89227  0.64006  0.50795  1.0000
  C   C106      1.0  0.84181  0.76137  0.51505  1.0000
  C   C107      1.0  0.9488  0.8522100000000001  0.53122  1.0000
  C   C108      1.0  0.94723  0.52375  0.14946  1.0000
  C   C109      1.0  0.84722  0.5251100000000001  0.24587  1.0000
  C   C110      1.0  0.00656  0.52088  0.26098  1.0000
  C   C111      1.0  0.90913  0.51616  0.36244  1.0000
  C   C112      1.0  0.78874  0.8809200000000001  0.5246  1.0000
  C   C113      1.0  0.07922  0.98034  0.78843  1.0000
  C   C114      1.0  0.08918000000000002  0.78629  0.01579  1.0000
  C   C115      1.0  0.98097  0.6948900000000001  0.02933  1.0000
  C   C116      1.0  0.0015  0.76454  0.02334  1.0000
  C   C117      1.0  0.13891  0.9749800000000001  0.67685  1.0000
  C   C118      1.0  0.21281000000000003  0.9707  0.62939  1.0000
  C   C119      1.0  0.13957  0.6701  0.02428  1.0000
  C   C120      1.0  0.97835  0.9779800000000001  0.69218  1.0000
  C   C121      1.0  0.10808000000000002  0.86078  0.00816  1.0000
  C   C122      1.0  0.1587  0.73921  0.01527  1.0000
  C   C123      1.0  0.05156  0.64814  0.030789999999999998  1.0000
  C   C124      1.0  0.052870000000000014  0.97707  0.64996  1.0000
  C   C125      1.0  0.15293000000000004  0.97643  0.74609  1.0000
  C   C126      1.0  0.9936  0.9800500000000001  0.76174  1.0000
  C   C127      1.0  0.09134  0.98537  0.86287  1.0000
  C   C128      1.0  0.21168  0.61915  0.02449  1.0000
  N   N1        1.0  0.39377000000000006  0.8281200000000001  0.030210000000000004  1.0000
  N   N2        1.0  0.39306  0.51911  0.66685  1.0000
  N   N3        1.0  0.60685  0.6735400000000001  0.5316  1.0000
  N   N4        1.0  0.60729  0.98067  0.16544  1.0000
  N   N5        1.0  0.8937000000000003  0.17295  0.46831  1.0000
  N   N6        1.0  0.89316  0.48093  0.834  1.0000
  N   N7        1.0  0.10599  0.32676  0.9697499999999999  1.0000
  N   N8        1.0  0.10678  0.01963  0.33305  1.0000
  N   N9        1.0  0.6062400000000001  0.17189  0.9698  1.0000
  N   N10       1.0  0.60694  0.4809  0.33315  1.0000
  N   N11       1.0  0.39315000000000005  0.32647  0.46841  1.0000
  N   N12       1.0  0.39271000000000006  0.01934  0.83457  1.0000
  N   N13       1.0  0.1063  0.82706  0.5317  1.0000
  N   N14       1.0  0.10684  0.51908  0.166  1.0000
  N   N15       1.0  0.89401  0.6732500000000001  0.03025  1.0000
  N   N16       1.0  0.89322  0.9803800000000001  0.66695  1.0000
  O   O1        1.0  0.54431  0.5991  0.01713  1.0000
  O   O2        1.0  0.68756  0.62277  0.99359  1.0000
  O   O3        1.0  0.52171  0.51175  0.8985800000000002  1.0000
  O   O4        1.0  0.67044  0.51863  0.8852499999999999  1.0000
  O   O5        1.0  0.69566  0.9428500000000001  0.03706  1.0000
  O   O6        1.0  0.7908500000000002  0.85847  0.01015  1.0000
  O   O7        1.0  0.79445  0.52562  0.65681  1.0000
  O   O8        1.0  0.7017500000000002  0.5361200000000003  0.56805  1.0000
  O   O9        1.0  0.62566  0.46094  0.02312  1.0000
  O   O10       1.0  0.45535  0.90131  0.51259  1.0000
  O   O11       1.0  0.31154  0.8782000000000001  0.49221  1.0000
  O   O12       1.0  0.48167  0.9932300000000001  0.39719  1.0000
  O   O13       1.0  0.3323  0.9863000000000001  0.38592  1.0000
  O   O14       1.0  0.30781  0.55566  0.53545  1.0000
  O   O15       1.0  0.21002000000000004  0.6398400000000001  0.51189  1.0000
  O   O16       1.0  0.20584  0.9726300000000001  0.15811  1.0000
  O   O17       1.0  0.29817  0.9654900000000002  0.06837  1.0000
  O   O18       1.0  0.3746100000000001  0.04013  0.52253  1.0000
  O   O19       1.0  0.04464  0.40119  0.48138  1.0000
  O   O20       1.0  0.18704  0.3773000000000001  0.50801  1.0000
  O   O21       1.0  0.02105  0.4880500000000001  0.6022  1.0000
  O   O22       1.0  0.17025  0.4845100000000001  0.61524  1.0000
  O   O23       1.0  0.19527  0.05693999999999999  0.46404  1.0000
  O   O24       1.0  0.29097  0.14155000000000004  0.48828999999999995  1.0000
  O   O25       1.0  0.29446  0.47084  0.84258  1.0000
  O   O26       1.0  0.20177  0.46444  0.93221  1.0000
  O   O27       1.0  0.12577  0.53901  0.47787  1.0000
  O   O28       1.0  0.95543  0.09806000000000001  0.98269  1.0000
  O   O29       1.0  0.81228  0.12131  0.00629  1.0000
  O   O30       1.0  0.9784  0.010210000000000002  0.10158  1.0000
  O   O31       1.0  0.82946  0.01418  0.11470000000000001  1.0000
  O   O32       1.0  0.80406  0.443  0.9631100000000001  1.0000
  O   O33       1.0  0.70875  0.3583900000000001  0.98974  1.0000
  O   O34       1.0  0.70533  0.027210000000000005  0.34318  1.0000
  O   O35       1.0  0.79839  0.03475  0.43188  1.0000
  O   O36       1.0  0.87462  0.95976  0.97664  1.0000
  O   O37       1.0  0.4557  0.40091000000000004  0.9828699999999999  1.0000
  O   O38       1.0  0.31244  0.37723000000000007  0.006410000000000001  1.0000
  O   O39       1.0  0.47829  0.48825  0.10142  1.0000
  O   O40       1.0  0.32956  0.48138  0.11475  1.0000
  O   O41       1.0  0.30434  0.05716  0.96295  1.0000
  O   O42       1.0  0.20915  0.14154  0.9898500000000001  1.0000
  O   O43       1.0  0.20556000000000002  0.4743800000000001  0.34319  1.0000
  O   O44       1.0  0.29825  0.46389000000000014  0.43195  1.0000
  O   O45       1.0  0.37434  0.53907  0.97688  1.0000
  O   O46       1.0  0.5446500000000002  0.0987  0.48740999999999995  1.0000
  O   O47       1.0  0.6884600000000002  0.12180999999999999  0.50779  1.0000
  O   O48       1.0  0.51833  0.00678  0.60281  1.0000
  O   O49       1.0  0.6677  0.01371  0.61409  1.0000
  O   O50       1.0  0.69219  0.44434  0.46455  1.0000
  O   O51       1.0  0.78998  0.36017  0.48811  1.0000
  O   O52       1.0  0.7941600000000001  0.02737  0.8418899999999999  1.0000
  O   O53       1.0  0.70183  0.03452  0.93164  1.0000
  O   O54       1.0  0.62539  0.9598800000000001  0.47748  1.0000
  O   O55       1.0  0.95536  0.59881  0.51862  1.0000
  O   O56       1.0  0.81296  0.62271  0.4919899999999999  1.0000
  O   O57       1.0  0.97896  0.51196  0.3978  1.0000
  O   O58       1.0  0.82975  0.5155  0.38476  1.0000
  O   O59       1.0  0.80473  0.94306  0.53596  1.0000
  O   O60       1.0  0.70903  0.85845  0.51171  1.0000
  O   O61       1.0  0.70554  0.52917  0.15742  1.0000
  O   O62       1.0  0.79824  0.53557  0.0678  1.0000
  O   O63       1.0  0.87423  0.4610000000000001  0.52213  1.0000
  O   O64       1.0  0.04457  0.9019500000000001  0.01732  1.0000
  O   O65       1.0  0.18772  0.8787000000000001  0.9937199999999999  1.0000
  O   O66       1.0  0.02161  0.9898  0.89842  1.0000
  O   O67       1.0  0.17054  0.9858300000000001  0.8853  1.0000
  O   O68       1.0  0.19594  0.557  0.03689  1.0000
  O   O69       1.0  0.29125  0.64162  0.01026  1.0000
  O   O70       1.0  0.29467  0.9728000000000001  0.65682  1.0000
  O   O71       1.0  0.20161  0.96525  0.56812  1.0000
  O   O72       1.0  0.12538  0.04024000000000001  0.02337  1.0000
