data_image0
_chemical_formula_structural       Cd8H88C136O48
_chemical_formula_sum              "Cd8 H88 C136 O48"
_cell_length_a       13.38056
_cell_length_b       15.707959999999998
_cell_length_c       27.28007
_cell_angle_alpha    103.57603
_cell_angle_beta     89.98179
_cell_angle_gamma    90.02051

_space_group_name_H-M_alt    "P 1"
_space_group_IT_number       1

loop_
  _space_group_symop_operation_xyz
  'x, y, z'

loop_
  _atom_site_type_symbol
  _atom_site_label
  _atom_site_symmetry_multiplicity
  _atom_site_fract_x
  _atom_site_fract_y
  _atom_site_fract_z
  _atom_site_occupancy
  Cd  Cd1       1.0  0.16364  0.73579  0.7621799999999997  1.0000
  Cd  Cd2       1.0  0.3220999999999999  0.781  0.67894  1.0000
  Cd  Cd3       1.0  0.66303  0.26389  0.73772  1.0000
  Cd  Cd4       1.0  0.82086  0.22131999999999993  0.8207299999999997  1.0000
  Cd  Cd5       1.0  0.83508  0.26353  0.23742999999999997  1.0000
  Cd  Cd6       1.0  0.6779399999999998  0.21990000000000004  0.32151  1.0000
  Cd  Cd7       1.0  0.33635  0.7358500000000002  0.2621  1.0000
  Cd  Cd8       1.0  0.17779999999999999  0.7809700000000003  0.17900999999999995  1.0000
  H   H1        1.0  0.04620999999999999  0.6307  0.8999499999999998  1.0000
  H   H2        1.0  0.40468  0.88419  0.86604  1.0000
  H   H3        1.0  0.8507599999999997  0.40839  0.88393  1.0000
  H   H4        1.0  0.90245  0.5239999999999999  0.7578099999999998  1.0000
  H   H5        1.0  0.51472  0.010209999999999985  0.75232  1.0000
  H   H6        1.0  0.61966  0.86497  0.89488  1.0000
  H   H7        1.0  0.60249  0.10582  0.9071  1.0000
  H   H8        1.0  0.3888199999999999  0.12020000000000003  0.92091  1.0000
  H   H9        1.0  0.22226999999999994  0.4659700000000001  0.06219  1.0000
  H   H10       1.0  0.13837  0.49051000000000006  0.8889299999999998  1.0000
  H   H11       1.0  0.28029999999999994  0.5312999999999999  0.8524299999999998  1.0000
  H   H12       1.0  0.25888  0.41520000000000007  0.8392799999999999  1.0000
  H   H13       1.0  0.3830199999999999  0.45627  0.83581  1.0000
  H   H14       1.0  0.38157  0.5181600000000002  0.07809  1.0000
  H   H15       1.0  0.48903  0.45907  0.04919999999999999  1.0000
  H   H16       1.0  0.37635  0.40047000000000016  0.057969999999999994  1.0000
  H   H17       1.0  0.7500899999999999  0.8110800000000002  0.09792999999999998  1.0000
  H   H18       1.0  0.7674199999999998  0.6944900000000003  0.07855  1.0000
  H   H19       1.0  0.6436099999999998  0.73906  0.08712999999999999  1.0000
  H   H20       1.0  0.77353  0.80273  0.86885  1.0000
  H   H21       1.0  0.67292  0.7249700000000002  0.85438  1.0000
  H   H22       1.0  0.79816  0.68798  0.8611999999999997  1.0000
  H   H23       1.0  0.54614  0.36857  0.59975  1.0000
  H   H24       1.0  0.9045  0.11578000000000001  0.63407  1.0000
  H   H25       1.0  0.3520199999999999  0.5917400000000003  0.61618  1.0000
  H   H26       1.0  0.40364  0.47561  0.7421399999999998  1.0000
  H   H27       1.0  0.014589999999999997  0.9900500000000002  0.74793  1.0000
  H   H28       1.0  0.1198  0.13503  0.60517  1.0000
  H   H29       1.0  0.10241  0.8944100000000001  0.5931199999999998  1.0000
  H   H30       1.0  0.88885  0.8796600000000003  0.57912  1.0000
  H   H31       1.0  0.7225199999999999  0.53408  0.43774999999999986  1.0000
  H   H32       1.0  0.63828  0.50931  0.6109399999999998  1.0000
  H   H33       1.0  0.78019  0.46869000000000016  0.64755  1.0000
  H   H34       1.0  0.7588299999999999  0.58477  0.6606899999999998  1.0000
  H   H35       1.0  0.8829399999999998  0.5437400000000002  0.66416  1.0000
  H   H36       1.0  0.8816499999999998  0.48183000000000004  0.42189  1.0000
  H   H37       1.0  0.9891199999999999  0.5409400000000002  0.45076  1.0000
  H   H38       1.0  0.8764799999999998  0.59953  0.44202  1.0000
  H   H39       1.0  0.25008  0.18897  0.40209  1.0000
  H   H40       1.0  0.26753  0.30556000000000005  0.4214599999999999  1.0000
  H   H41       1.0  0.14368  0.26101  0.41291  1.0000
  H   H42       1.0  0.27361  0.19737  0.6311299999999997  1.0000
  H   H43       1.0  0.17297  0.27505999999999997  0.6456199999999999  1.0000
  H   H44       1.0  0.29817999999999995  0.31215  0.63877  1.0000
  H   H45       1.0  0.95374  0.36859  0.0996  1.0000
  H   H46       1.0  0.59536  0.11592000000000002  0.13401  1.0000
  H   H47       1.0  0.14814  0.5917700000000002  0.11628  1.0000
  H   H48       1.0  0.09566999999999998  0.47562  0.24217999999999995  1.0000
  H   H49       1.0  0.48526  0.9901600000000002  0.24788999999999994  1.0000
  H   H50       1.0  0.38012  0.13503  0.10515999999999999  1.0000
  H   H51       1.0  0.3976099999999999  0.8943400000000002  0.09307999999999998  1.0000
  H   H52       1.0  0.6110499999999998  0.87967  0.07912  1.0000
  H   H53       1.0  0.7774499999999998  0.53394  0.93777  1.0000
  H   H54       1.0  0.86165  0.5093700000000002  0.11095  1.0000
  H   H55       1.0  0.71965  0.4686900000000001  0.14757  1.0000
  H   H56       1.0  0.7411399999999998  0.58477  0.16069999999999995  1.0000
  H   H57       1.0  0.61699  0.54375  0.16419  1.0000
  H   H58       1.0  0.61838  0.4818200000000001  0.9218899999999998  1.0000
  H   H59       1.0  0.51094  0.5409199999999998  0.9507499999999998  1.0000
  H   H60       1.0  0.62362  0.5995099999999999  0.9420299999999998  1.0000
  H   H61       1.0  0.24985999999999997  0.18891  0.9020499999999999  1.0000
  H   H62       1.0  0.23263  0.30549000000000004  0.9214299999999997  1.0000
  H   H63       1.0  0.3564  0.26086  0.91286  1.0000
  H   H64       1.0  0.22636999999999996  0.19731  0.13115  1.0000
  H   H65       1.0  0.32704  0.27501  0.14562  1.0000
  H   H66       1.0  0.20182  0.31207  0.13881  1.0000
  H   H67       1.0  0.4536799999999999  0.6314200000000002  0.40009  1.0000
  H   H68       1.0  0.09523  0.8843800000000003  0.36603  1.0000
  H   H69       1.0  0.64824  0.4084900000000001  0.3837399999999999  1.0000
  H   H70       1.0  0.5966199999999999  0.52461  0.2578  1.0000
  H   H71       1.0  0.98538  0.010379999999999992  0.25231  1.0000
  H   H72       1.0  0.88021  0.8649900000000003  0.39489  1.0000
  H   H73       1.0  0.89748  0.10597000000000001  0.40707  1.0000
  H   H74       1.0  0.11114999999999998  0.12029000000000005  0.42093  1.0000
  H   H75       1.0  0.27759  0.46598999999999996  0.5622299999999999  1.0000
  H   H76       1.0  0.36167  0.49069  0.3889999999999999  1.0000
  H   H77       1.0  0.21981999999999996  0.5313300000000001  0.3524599999999999  1.0000
  H   H78       1.0  0.24112999999999998  0.41523999999999994  0.33929999999999993  1.0000
  H   H79       1.0  0.11702  0.45634  0.33584999999999987  1.0000
  H   H80       1.0  0.11836  0.5181600000000002  0.57811  1.0000
  H   H81       1.0  0.010899999999999998  0.45907999999999993  0.5492399999999998  1.0000
  H   H82       1.0  0.12349999999999997  0.4004600000000001  0.55797  1.0000
  H   H83       1.0  0.7498799999999998  0.8110100000000005  0.59797  1.0000
  H   H84       1.0  0.7325099999999998  0.6944200000000003  0.5785999999999999  1.0000
  H   H85       1.0  0.8563299999999998  0.73903  0.5871399999999999  1.0000
  H   H86       1.0  0.7264599999999998  0.8027200000000001  0.3688799999999999  1.0000
  H   H87       1.0  0.8270799999999998  0.72503  0.3543899999999999  1.0000
  H   H88       1.0  0.7018299999999997  0.6879400000000002  0.36119  1.0000
  C   C1        1.0  0.79896  0.39631000000000005  0.78636  1.0000
  C   C2        1.0  0.0353  0.64661  0.80345  1.0000
  C   C3        1.0  0.5036899999999999  0.9944800000000001  0.8930899999999998  1.0000
  C   C4        1.0  0.99631  0.5821499999999998  0.8774899999999998  1.0000
  C   C5        1.0  0.45042  0.9348700000000002  0.85599  1.0000
  C   C6        1.0  0.8679299999999998  0.4603899999999999  0.8179199999999998  1.0000
  C   C7        1.0  0.62617  0.13590999999999992  0.8151199999999997  1.0000
  C   C8        1.0  0.97935  0.5840400000000002  0.8269799999999999  1.0000
  C   C9        1.0  0.88754  0.45756000000000013  0.86804  1.0000
  C   C10       1.0  0.9524799999999998  0.5175  0.89854  1.0000
  C   C11       1.0  0.56336  0.06642000000000003  0.82853  1.0000
  C   C12       1.0  0.91511  0.5230900000000003  0.7970299999999999  1.0000
  C   C13       1.0  0.50025  0.9945899999999999  0.9475399999999998  1.0000
  C   C14       1.0  0.97625  0.50961  0.95053  1.0000
  C   C15       1.0  0.55652  0.9335200000000001  0.9666199999999998  1.0000
  C   C16       1.0  0.51134  0.006309999999999913  0.7915099999999998  1.0000
  C   C17       1.0  0.44447  0.0611899999999999  0.9799699999999998  1.0000
  C   C18       1.0  0.6167999999999998  0.8675399999999999  0.9349399999999999  1.0000
  C   C19       1.0  0.56062  0.05932000000000006  0.8787199999999998  1.0000
  C   C20       1.0  0.25437  0.4783000000000001  0.94001  1.0000
  C   C21       1.0  0.2792  0.4741800000000001  0.99078  1.0000
  C   C22       1.0  0.45568  0.9400900000000004  0.8053  1.0000
  C   C23       1.0  0.67124  0.8086500000000002  0.9543299999999998  1.0000
  C   C24       1.0  0.07697  0.4968799999999999  0.9634399999999997  1.0000
  C   C25       1.0  0.38785  0.12379999999999995  0.9610599999999999  1.0000
  C   C26       1.0  0.20365  0.47561000000000003  0.02524  1.0000
  C   C27       1.0  0.15633  0.48884000000000005  0.9274199999999998  1.0000
  C   C28       1.0  0.89868  0.51194  0.9862899999999998  1.0000
  C   C29       1.0  0.31141  0.4680900000000001  0.85575  1.0000
  C   C30       1.0  0.66745  0.81211  0.007559999999999998  1.0000
  C   C31       1.0  0.40188999999999997  0.8756500000000004  0.7653999999999999  1.0000
  C   C32       1.0  0.4071899999999999  0.46047  0.049659999999999996  1.0000
  C   C33       1.0  0.7200199999999999  0.74943  0.07482999999999998  1.0000
  C   C34       1.0  0.7439999999999998  0.74054  0.8747799999999998  1.0000
  C   C35       1.0  0.3010099999999999  0.60453  0.71394  1.0000
  C   C36       1.0  0.53534  0.35308  0.6963899999999997  1.0000
  C   C37       1.0  0.0034699999999999996  0.005580000000000022  0.60707  1.0000
  C   C38       1.0  0.49647  0.4173100000000001  0.62225  1.0000
  C   C39       1.0  0.95024  0.06523  0.6441899999999999  1.0000
  C   C40       1.0  0.3691799999999999  0.5398700000000002  0.6821999999999999  1.0000
  C   C41       1.0  0.12596  0.8642000000000001  0.68501  1.0000
  C   C42       1.0  0.47967999999999994  0.41562  0.6728  1.0000
  C   C43       1.0  0.38853999999999994  0.54243  0.632  1.0000
  C   C44       1.0  0.45276  0.4820800000000001  0.6013  1.0000
  C   C45       1.0  0.06312  0.9338400000000001  0.6716999999999997  1.0000
  C   C46       1.0  0.41592999999999997  0.47679999999999995  0.70292  1.0000
  C   C47       1.0  0.00016999999999999996  0.005430000000000008  0.55258  1.0000
  C   C48       1.0  0.47632999999999986  0.49005  0.5493  1.0000
  C   C49       1.0  0.05652999999999999  0.06648999999999998  0.53346  1.0000
  C   C50       1.0  0.01111  0.9940700000000002  0.70875  1.0000
  C   C51       1.0  0.9444299999999998  0.9388200000000002  0.52011  1.0000
  C   C52       1.0  0.11684999999999997  0.13247  0.56512  1.0000
  C   C53       1.0  0.060459999999999986  0.9408600000000001  0.6214899999999998  1.0000
  C   C54       1.0  0.7543499999999999  0.52169  0.55993  1.0000
  C   C55       1.0  0.7792299999999998  0.52583  0.50916  1.0000
  C   C56       1.0  0.9556  0.060419999999999904  0.6949599999999998  1.0000
  C   C57       1.0  0.17126999999999995  0.19138000000000005  0.5457  1.0000
  C   C58       1.0  0.5770199999999999  0.503  0.53644  1.0000
  C   C59       1.0  0.88784  0.8761400000000001  0.53898  1.0000
  C   C60       1.0  0.7037499999999999  0.52442  0.4746899999999999  1.0000
  C   C61       1.0  0.6562999999999998  0.51104  0.5724799999999999  1.0000
  C   C62       1.0  0.39873  0.4879500000000001  0.51362  1.0000
  C   C63       1.0  0.81135  0.5319  0.64421  1.0000
  C   C64       1.0  0.16749  0.18793  0.49248  1.0000
  C   C65       1.0  0.9020199999999999  0.1257  0.7346699999999999  1.0000
  C   C66       1.0  0.90729  0.5395300000000002  0.45032  1.0000
  C   C67       1.0  0.22007  0.25063  0.42518999999999996  1.0000
  C   C68       1.0  0.24404999999999993  0.25953  0.62521  1.0000
  C   C69       1.0  0.19887  0.6043600000000002  0.21396999999999997  1.0000
  C   C70       1.0  0.9627999999999998  0.35312  0.19623  1.0000
  C   C71       1.0  0.49644999999999995  0.005629999999999998  0.10703  1.0000
  C   C72       1.0  0.00325  0.41728  0.12226999999999999  1.0000
  C   C73       1.0  0.54961  0.06534000000000001  0.14413999999999996  1.0000
  C   C74       1.0  0.13067  0.5396400000000002  0.18220999999999998  1.0000
  C   C75       1.0  0.3739899999999999  0.8642000000000002  0.18497  1.0000
  C   C76       1.0  0.019429999999999992  0.4156100000000001  0.17289  1.0000
  C   C77       1.0  0.11151999999999997  0.5423300000000002  0.13201999999999997  1.0000
  C   C78       1.0  0.047209999999999995  0.48202  0.10133  1.0000
  C   C79       1.0  0.43683  0.9338400000000002  0.17165999999999995  1.0000
  C   C80       1.0  0.08351  0.4766200000000001  0.20292999999999997  1.0000
  C   C81       1.0  0.49976999999999994  0.005449999999999997  0.05255  1.0000
  C   C82       1.0  0.02364  0.49009000000000014  0.04932999999999999  1.0000
  C   C83       1.0  0.44343  0.06648000000000003  0.03345  1.0000
  C   C84       1.0  0.4887399999999999  0.9941299999999998  0.20869999999999997  1.0000
  C   C85       1.0  0.5554799999999999  0.93881  0.020099999999999993  1.0000
  C   C86       1.0  0.38309  0.13245  0.0651  1.0000
  C   C87       1.0  0.4395  0.94085  0.12144999999999999  1.0000
  C   C88       1.0  0.7456099999999998  0.5216600000000002  0.05994999999999999  1.0000
  C   C89       1.0  0.72073  0.52579  0.00919  1.0000
  C   C90       1.0  0.54422  0.06049999999999999  0.19491  1.0000
  C   C91       1.0  0.32868999999999987  0.19134000000000007  0.04568999999999999  1.0000
  C   C92       1.0  0.92296  0.50299  0.03645  1.0000
  C   C93       1.0  0.6120499999999998  0.87615  0.03897  1.0000
  C   C94       1.0  0.7962299999999999  0.52428  0.9746999999999998  1.0000
  C   C95       1.0  0.8436399999999997  0.51105  0.07249  1.0000
  C   C96       1.0  0.10122  0.4879300000000001  0.013599999999999996  1.0000
  C   C97       1.0  0.68859  0.5319100000000002  0.14423999999999998  1.0000
  C   C98       1.0  0.33247999999999994  0.18788  0.99247  1.0000
  C   C99       1.0  0.5978699999999998  0.12561  0.23464  1.0000
  C   C100      1.0  0.59277  0.53951  0.9503299999999998  1.0000
  C   C101      1.0  0.27997  0.25053  0.9251599999999998  1.0000
  C   C102      1.0  0.25595  0.25948  0.12524  1.0000
  C   C103      1.0  0.69902  0.39564  0.28588  1.0000
  C   C104      1.0  0.46461  0.6470200000000003  0.30349  1.0000
  C   C105      1.0  0.99621  0.9946100000000004  0.39309  1.0000
  C   C106      1.0  0.5035  0.5827799999999999  0.3776199999999999  1.0000
  C   C107      1.0  0.04955999999999999  0.93506  0.3559799999999999  1.0000
  C   C108      1.0  0.6309999999999998  0.4603500000000002  0.3177  1.0000
  C   C109      1.0  0.8738299999999999  0.13597000000000006  0.31507  1.0000
  C   C110      1.0  0.52044  0.58458  0.3271  1.0000
  C   C111      1.0  0.6116699999999999  0.4577900000000001  0.36791  1.0000
  C   C112      1.0  0.54732  0.5180500000000002  0.3986  1.0000
  C   C113      1.0  0.9366999999999998  0.06657000000000003  0.32852  1.0000
  C   C114      1.0  0.58427  0.5234600000000003  0.29701  1.0000
  C   C115      1.0  0.9996399999999999  0.9946700000000003  0.4475399999999999  1.0000
  C   C116      1.0  0.52371  0.51002  0.4506  1.0000
  C   C117      1.0  0.9433699999999998  0.9335600000000002  0.4666299999999999  1.0000
  C   C118      1.0  0.98875  0.00647999999999999  0.2915  1.0000
  C   C119      1.0  0.05546999999999999  0.061230000000000055  0.47998  1.0000
  C   C120      1.0  0.88308  0.8675700000000002  0.43495  1.0000
  C   C121      1.0  0.93935  0.05945000000000001  0.37870999999999994  1.0000
  C   C122      1.0  0.24565  0.47833999999999993  0.44003999999999993  1.0000
  C   C123      1.0  0.22077999999999995  0.4742100000000001  0.49081999999999987  1.0000
  C   C124      1.0  0.04434999999999999  0.9402500000000003  0.30529  1.0000
  C   C125      1.0  0.8286599999999997  0.80863  0.45433999999999997  1.0000
  C   C126      1.0  0.4230099999999999  0.4970900000000001  0.46349  1.0000
  C   C127      1.0  0.11208999999999997  0.12386999999999997  0.4610799999999999  1.0000
  C   C128      1.0  0.29629  0.4756400000000002  0.52527  1.0000
  C   C129      1.0  0.34368999999999994  0.48900000000000005  0.42747  1.0000
  C   C130      1.0  0.60129  0.51215  0.4863199999999999  1.0000
  C   C131      1.0  0.18862999999999994  0.46811999999999987  0.3557799999999999  1.0000
  C   C132      1.0  0.8324499999999999  0.8120700000000002  0.50757  1.0000
  C   C133      1.0  0.09811  0.8758000000000001  0.26537999999999995  1.0000
  C   C134      1.0  0.09272999999999998  0.46046999999999993  0.5496799999999998  1.0000
  C   C135      1.0  0.7799199999999997  0.7493700000000002  0.57486  1.0000
  C   C136      1.0  0.75598  0.74054  0.3747899999999999  1.0000
  O   O1        1.0  0.024949999999999993  0.6410099999999999  0.7563699999999998  1.0000
  O   O2        1.0  0.09593999999999997  0.7013900000000001  0.8309699999999999  1.0000
  O   O3        1.0  0.6879799999999999  0.1736  0.84977  1.0000
  O   O4        1.0  0.7823299999999999  0.3936799999999999  0.7410999999999998  1.0000
  O   O5        1.0  0.75262  0.34129  0.80928  1.0000
  O   O6        1.0  0.33339  0.4679300000000001  0.90736  1.0000
  O   O7        1.0  0.37856999999999996  0.46711000000000014  0.99975  1.0000
  O   O8        1.0  0.61666  0.15120000000000006  0.77157  1.0000
  O   O9        1.0  0.7319399999999999  0.74436  0.9274899999999998  1.0000
  O   O10       1.0  0.7222799999999998  0.74917  0.02216  1.0000
  O   O11       1.0  0.334  0.8268499999999999  0.7761599999999997  1.0000
  O   O12       1.0  0.4294599999999999  0.8731800000000001  0.7191399999999998  1.0000
  O   O13       1.0  0.5248299999999999  0.35878  0.74347  1.0000
  O   O14       1.0  0.5961  0.29836000000000007  0.6689399999999999  1.0000
  O   O15       1.0  0.18764999999999998  0.8264799999999999  0.6502499999999999  1.0000
  O   O16       1.0  0.2826  0.6060000000000002  0.75888  1.0000
  O   O17       1.0  0.25678  0.6612500000000002  0.69155  1.0000
  O   O18       1.0  0.8333399999999999  0.53209  0.5926  1.0000
  O   O19       1.0  0.8785999999999999  0.53289  0.50022  1.0000
  O   O20       1.0  0.11657999999999998  0.8487800000000003  0.72852  1.0000
  O   O21       1.0  0.23196999999999995  0.25571  0.57251  1.0000
  O   O22       1.0  0.22229999999999997  0.25089  0.47786  1.0000
  O   O23       1.0  0.8333499999999999  0.17338999999999993  0.7235699999999999  1.0000
  O   O24       1.0  0.93022  0.1303  0.78101  1.0000
  O   O25       1.0  0.9708199999999998  0.35953  0.24352999999999994  1.0000
  O   O26       1.0  0.9037899999999999  0.29753  0.1683  1.0000
  O   O27       1.0  0.31228999999999996  0.8264500000000002  0.15023999999999998  1.0000
  O   O28       1.0  0.21725999999999995  0.60588  0.25892  1.0000
  O   O29       1.0  0.24317999999999995  0.6612  0.19162999999999997  1.0000
  O   O30       1.0  0.6666199999999998  0.53209  0.09262999999999998  1.0000
  O   O31       1.0  0.6213799999999998  0.5329  0.00024  1.0000
  O   O32       1.0  0.3833699999999999  0.8487800000000002  0.22847999999999993  1.0000
  O   O33       1.0  0.26801  0.25567  0.07253  1.0000
  O   O34       1.0  0.2777  0.25082000000000004  0.9778399999999999  1.0000
  O   O35       1.0  0.66666  0.17321  0.22362  1.0000
  O   O36       1.0  0.56927  0.12998999999999997  0.2809499999999999  1.0000
  O   O37       1.0  0.47498  0.64122  0.25638  1.0000
  O   O38       1.0  0.40388  0.7017  0.33097  1.0000
  O   O39       1.0  0.8120899999999998  0.17362  0.34982999999999986  1.0000
  O   O40       1.0  0.71717  0.39397  0.24087999999999996  1.0000
  O   O41       1.0  0.74325  0.33894  0.30825  1.0000
  O   O42       1.0  0.16664  0.4679200000000001  0.40739  1.0000
  O   O43       1.0  0.12141  0.46712000000000004  0.49977999999999995  1.0000
  O   O44       1.0  0.88328  0.15132000000000004  0.27156  1.0000
  O   O45       1.0  0.768  0.7443000000000002  0.42748999999999987  1.0000
  O   O46       1.0  0.7776599999999998  0.7491100000000003  0.5222  1.0000
  O   O47       1.0  0.16590999999999995  0.82694  0.27613  1.0000
  O   O48       1.0  0.07055  0.87333  0.21913  1.0000
