data_image0
_chemical_formula_structural       Zn8H88C132N24O28
_chemical_formula_sum              "Zn8 H88 C132 N24 O28"
_cell_length_a       4.68572
_cell_length_b       24.55514
_cell_length_c       32.30716
_cell_angle_alpha    89.99497
_cell_angle_beta     89.99369
_cell_angle_gamma    93.35122

_space_group_name_H-M_alt    "P 1"
_space_group_IT_number       1

loop_
  _space_group_symop_operation_xyz
  'x, y, z'

loop_
  _atom_site_type_symbol
  _atom_site_label
  _atom_site_symmetry_multiplicity
  _atom_site_fract_x
  _atom_site_fract_y
  _atom_site_fract_z
  _atom_site_occupancy
  Zn  Zn1       1.0  0.50595  0.7434  0.9218500000000002  1.0000
  Zn  Zn2       1.0  0.50644  0.74922  0.53638  1.0000
  Zn  Zn3       1.0  0.49409000000000003  0.7566  0.42187  1.0000
  Zn  Zn4       1.0  0.49340000000000006  0.75075  0.03637  1.0000
  Zn  Zn5       1.0  0.49406  0.25661  0.07814  1.0000
  Zn  Zn6       1.0  0.4935800000000001  0.25079  0.46362  1.0000
  Zn  Zn7       1.0  0.50592  0.24340999999999996  0.57812  1.0000
  Zn  Zn8       1.0  0.50662  0.24926  0.96363  1.0000
  H   H1        1.0  0.53204  0.6951599999999999  0.76733  1.0000
  H   H2        1.0  0.7033400000000001  0.80672  0.74996  1.0000
  H   H3        1.0  0.9209500000000002  0.7974699999999999  0.821  1.0000
  H   H4        1.0  0.19618  0.70054  0.65477  1.0000
  H   H5        1.0  0.001410000000000043  0.70301  0.58283  1.0000
  H   H6        1.0  0.37601  0.80611  0.6178  1.0000
  H   H7        1.0  0.52584  0.80302  0.69156  1.0000
  H   H8        1.0  0.70794  0.39568  0.98569  1.0000
  H   H9        1.0  0.28597  0.50992  0.8905700000000002  1.0000
  H   H10       1.0  0.45114  0.41807  0.9097400000000002  1.0000
  H   H11       1.0  0.45938  0.54295  0.96464  1.0000
  H   H12       1.0  0.30739000000000005  0.63952  0.96005  1.0000
  H   H13       1.0  0.97568  0.6832599999999998  0.88108  1.0000
  H   H14       1.0  0.15493000000000007  0.58983  0.88234  1.0000
  H   H15       1.0  0.97341  0.10663  0.91286  1.0000
  H   H16       1.0  0.48850000000000005  0.9503999999999998  0.9587600000000002  1.0000
  H   H17       1.0  0.7017900000000001  0.043519999999999996  0.97245  1.0000
  H   H18       1.0  0.6387199999999998  0.9468599999999999  0.88247  1.0000
  H   H19       1.0  0.41628  0.8501399999999998  0.8792700000000002  1.0000
  H   H20       1.0  0.039329999999999914  0.7951299999999998  0.9579500000000002  1.0000
  H   H21       1.0  0.27526999999999996  0.8840699999999999  0.96351  1.0000
  H   H22       1.0  0.18961999999999996  0.7181399999999998  0.9832300000000003  1.0000
  H   H23       1.0  0.4678800000000001  0.80482  0.26733  1.0000
  H   H24       1.0  0.2964899999999999  0.6932599999999999  0.24997  1.0000
  H   H25       1.0  0.07901  0.7025199999999999  0.3210000000000001  1.0000
  H   H26       1.0  0.80384  0.79946  0.1548  1.0000
  H   H27       1.0  0.99861  0.7969999999999999  0.08285000000000002  1.0000
  H   H28       1.0  0.62406  0.69391  0.1178  1.0000
  H   H29       1.0  0.4742  0.6969699999999998  0.19157  1.0000
  H   H30       1.0  0.29309999999999997  0.10434999999999997  0.48557  1.0000
  H   H31       1.0  0.7144  0.9900399999999998  0.3906100000000001  1.0000
  H   H32       1.0  0.5494100000000001  0.08194999999999997  0.4097200000000001  1.0000
  H   H33       1.0  0.54072  0.95703  0.4646500000000001  1.0000
  H   H34       1.0  0.6924200000000003  0.8604299999999999  0.4601  1.0000
  H   H35       1.0  0.024259999999999917  0.8167699999999998  0.3811  1.0000
  H   H36       1.0  0.84529  0.9102299999999999  0.3823600000000001  1.0000
  H   H37       1.0  0.026109999999999984  0.39341  0.41284  1.0000
  H   H38       1.0  0.51143  0.54966  0.45877  1.0000
  H   H39       1.0  0.29777  0.45658  0.4724400000000001  1.0000
  H   H40       1.0  0.3613  0.55317  0.38247  1.0000
  H   H41       1.0  0.584  0.64988  0.37928  1.0000
  H   H42       1.0  0.96094  0.7049199999999999  0.45795  1.0000
  H   H43       1.0  0.7248700000000002  0.616  0.4635300000000001  1.0000
  H   H44       1.0  0.8102200000000002  0.7818399999999998  0.48324  1.0000
  H   H45       1.0  0.46797000000000005  0.30484  0.23267  1.0000
  H   H46       1.0  0.29667000000000004  0.19329  0.25003  1.0000
  H   H47       1.0  0.07906000000000002  0.20254  0.17900000000000005  1.0000
  H   H48       1.0  0.80384  0.29947  0.34522  1.0000
  H   H49       1.0  0.9986  0.297  0.4171600000000001  1.0000
  H   H50       1.0  0.6240000000000001  0.19388999999999998  0.38219  1.0000
  H   H51       1.0  0.47418  0.19698999999999997  0.30844  1.0000
  H   H52       1.0  0.29208  0.60433  0.0143  1.0000
  H   H53       1.0  0.7140400000000001  0.49008999999999997  0.10942  1.0000
  H   H54       1.0  0.54887  0.58194  0.09026  1.0000
  H   H55       1.0  0.5406400000000001  0.45705  0.03536  1.0000
  H   H56       1.0  0.6926200000000002  0.36048999999999987  0.03995  1.0000
  H   H57       1.0  0.024330000000000008  0.31675  0.11891  1.0000
  H   H58       1.0  0.84509  0.41018  0.11766  1.0000
  H   H59       1.0  0.026600000000000002  0.89338  0.08714  1.0000
  H   H60       1.0  0.51151  0.04961  0.04124000000000001  1.0000
  H   H61       1.0  0.29823  0.95649  0.02755000000000001  1.0000
  H   H62       1.0  0.3613  0.053149999999999996  0.11753  1.0000
  H   H63       1.0  0.58373  0.14987  0.12073  1.0000
  H   H64       1.0  0.9606900000000003  0.20488  0.04205  1.0000
  H   H65       1.0  0.7247500000000001  0.11593999999999999  0.03649  1.0000
  H   H66       1.0  0.8103900000000003  0.28187  0.01677  1.0000
  H   H67       1.0  0.53214  0.19519  0.73267  1.0000
  H   H68       1.0  0.70352  0.30675  0.75002  1.0000
  H   H69       1.0  0.921  0.29749  0.67899  1.0000
  H   H70       1.0  0.19618  0.20055  0.84519  1.0000
  H   H71       1.0  0.0014099999999999955  0.20301  0.91715  1.0000
  H   H72       1.0  0.37595  0.3060999999999999  0.8822  1.0000
  H   H73       1.0  0.52581  0.30304  0.8084300000000002  1.0000
  H   H74       1.0  0.7069299999999998  0.8956599999999998  0.51443  1.0000
  H   H75       1.0  0.28562  0.00997  0.6093900000000002  1.0000
  H   H76       1.0  0.45061000000000007  0.91805  0.59027  1.0000
  H   H77       1.0  0.4593  0.04297999999999999  0.53534  1.0000
  H   H78       1.0  0.30759  0.13958  0.5398900000000002  1.0000
  H   H79       1.0  0.9757599999999998  0.18323999999999993  0.6189  1.0000
  H   H80       1.0  0.15472000000000002  0.08976999999999997  0.6176400000000002  1.0000
  H   H81       1.0  0.9739000000000001  0.6065999999999999  0.58716  1.0000
  H   H82       1.0  0.48858  0.4503499999999999  0.5412200000000003  1.0000
  H   H83       1.0  0.7022400000000001  0.54343  0.5275600000000003  1.0000
  H   H84       1.0  0.63871  0.44683999999999996  0.61752  1.0000
  H   H85       1.0  0.41601  0.35013  0.62072  1.0000
  H   H86       1.0  0.03907999999999998  0.29509  0.54205  1.0000
  H   H87       1.0  0.27514000000000005  0.38401  0.53647  1.0000
  H   H88       1.0  0.18979000000000004  0.21817  0.5167600000000002  1.0000
  C   C1        1.0  0.38874  0.7405699999999997  0.83937  1.0000
  C   C2        1.0  0.24397  0.74702  0.79894  1.0000
  C   C3        1.0  0.3587  0.72227  0.7637000000000003  1.0000
  C   C4        1.0  0.0030300000000000327  0.7533  0.72155  1.0000
  C   C5        1.0  0.875  0.77975  0.75508  1.0000
  C   C6        1.0  0.0021799999999999905  0.7766499999999998  0.79424  1.0000
  C   C7        1.0  0.88743  0.7544999999999997  0.67912  1.0000
  C   C8        1.0  0.022869999999999936  0.7262299999999999  0.64726  1.0000
  C   C9        1.0  0.9061100000000001  0.7259599999999999  0.60752  1.0000
  C   C10       1.0  0.54369  0.78054  0.62779  1.0000
  C   C11       1.0  0.6444700000000002  0.78143  0.66859  1.0000
  C   C12       1.0  0.18274000000000004  0.34811  0.96943  1.0000
  C   C13       1.0  0.10752999999999996  0.4026399999999999  0.9537500000000002  1.0000
  C   C14       1.0  0.8511  0.42250999999999994  0.96755  1.0000
  C   C15       1.0  0.92283  0.50346  0.93183  1.0000
  C   C16       1.0  0.16751000000000002  0.48492  0.91317  1.0000
  C   C17       1.0  0.26843000000000006  0.43433999999999995  0.9249300000000003  1.0000
  C   C18       1.0  0.82399  0.55847  0.92559  1.0000
  C   C19       1.0  0.5745800000000001  0.57282  0.9451900000000002  1.0000
  C   C20       1.0  0.48152000000000006  0.6257  0.9413200000000003  1.0000
  C   C21       1.0  0.86833  0.6507799999999999  0.8990500000000002  1.0000
  C   C22       1.0  0.97468  0.59893  0.90166  1.0000
  C   C23       1.0  0.46711  0.13808  0.95568  1.0000
  C   C24       1.0  0.35867  0.08243999999999999  0.94208  1.0000
  C   C25       1.0  0.10071  0.07245  0.9208300000000003  1.0000
  C   C26       1.0  0.12355  0.97901  0.92619  1.0000
  C   C27       1.0  0.38241000000000014  0.98543  0.9474400000000002  1.0000
  C   C28       1.0  0.50954  0.03744  0.9540800000000003  1.0000
  C   C29       1.0  0.98699  0.92405  0.92098  1.0000
  C   C30       1.0  0.7333200000000002  0.9138  0.89896  1.0000
  C   C31       1.0  0.59887  0.86112  0.89881  1.0000
  C   C32       1.0  0.95598  0.82856  0.94036  1.0000
  C   C33       1.0  0.10375  0.87937  0.94117  1.0000
  C   C34       1.0  0.6111300000000001  0.7593899999999998  0.33938  1.0000
  C   C35       1.0  0.7559600000000001  0.75297  0.29895  1.0000
  C   C36       1.0  0.64122  0.7777199999999997  0.26371  1.0000
  C   C37       1.0  0.9969399999999999  0.74668  0.22157000000000002  1.0000
  C   C38       1.0  0.12490999999999994  0.7202399999999998  0.2551  1.0000
  C   C39       1.0  0.99773  0.72334  0.2942500000000001  1.0000
  C   C40       1.0  0.11261000000000002  0.74549  0.17914  1.0000
  C   C41       1.0  0.97717  0.7737799999999999  0.14729  1.0000
  C   C42       1.0  0.09390999999999995  0.7740599999999997  0.10754000000000002  1.0000
  C   C43       1.0  0.45638  0.71948  0.12779  1.0000
  C   C44       1.0  0.35559  0.7185599999999998  0.16859  1.0000
  C   C45       1.0  0.81781  0.15196  0.46938  1.0000
  C   C46       1.0  0.89323  0.09741999999999999  0.4536900000000001  1.0000
  C   C47       1.0  0.14965  0.07751999999999999  0.46747  1.0000
  C   C48       1.0  0.07758  0.99655  0.43181  1.0000
  C   C49       1.0  0.8328500000000002  0.015079999999999996  0.41317  1.0000
  C   C50       1.0  0.73214  0.06568  0.4249100000000001  1.0000
  C   C51       1.0  0.17622999999999991  0.9415299999999998  0.42561  1.0000
  C   C52       1.0  0.42549000000000003  0.92716  0.44522  1.0000
  C   C53       1.0  0.51834  0.87426  0.4413700000000001  1.0000
  C   C54       1.0  0.1316  0.84923  0.39908  1.0000
  C   C55       1.0  0.02541999999999999  0.90108  0.40169  1.0000
  C   C56       1.0  0.53252  0.36197999999999997  0.45567  1.0000
  C   C57       1.0  0.6409  0.41762999999999995  0.4420700000000001  1.0000
  C   C58       1.0  0.8988800000000001  0.4275999999999999  0.42082  1.0000
  C   C59       1.0  0.87632  0.52105  0.42619  1.0000
  C   C60       1.0  0.6174000000000001  0.51464  0.4474300000000001  1.0000
  C   C61       1.0  0.49003  0.4626399999999999  0.45406000000000013  1.0000
  C   C62       1.0  0.013069999999999995  0.57599  0.42099  1.0000
  C   C63       1.0  0.26678  0.58623  0.39896  1.0000
  C   C64       1.0  0.40126000000000006  0.6389199999999999  0.3988100000000001  1.0000
  C   C65       1.0  0.04415999999999993  0.6714799999999997  0.44036  1.0000
  C   C66       1.0  0.8964100000000002  0.62067  0.44119  1.0000
  C   C67       1.0  0.61127  0.25944  0.16062  1.0000
  C   C68       1.0  0.75604  0.25299  0.20106000000000002  1.0000
  C   C69       1.0  0.6413100000000003  0.27774  0.23630000000000007  1.0000
  C   C70       1.0  0.99698  0.24669999999999997  0.27845000000000003  1.0000
  C   C71       1.0  0.12501000000000004  0.22026  0.24492  1.0000
  C   C72       1.0  0.99783  0.22335999999999995  0.20576  1.0000
  C   C73       1.0  0.11258999999999998  0.24550999999999995  0.32088  1.0000
  C   C74       1.0  0.97714  0.27378  0.35274  1.0000
  C   C75       1.0  0.0939  0.27405  0.39248  1.0000
  C   C76       1.0  0.45633  0.21946999999999994  0.3722100000000001  1.0000
  C   C77       1.0  0.3555499999999999  0.21857999999999994  0.33141  1.0000
  C   C78       1.0  0.8172800000000001  0.6519  0.030570000000000007  1.0000
  C   C79       1.0  0.8924800000000002  0.59737  0.04625  1.0000
  C   C80       1.0  0.14891  0.5775  0.032450000000000014  1.0000
  C   C81       1.0  0.07718000000000001  0.49654999999999994  0.06817  1.0000
  C   C82       1.0  0.8325  0.51509  0.08683  1.0000
  C   C83       1.0  0.73159  0.56566  0.07506  1.0000
  C   C84       1.0  0.17603  0.44154  0.0744  1.0000
  C   C85       1.0  0.42543999999999993  0.42718999999999996  0.05481  1.0000
  C   C86       1.0  0.5185000000000002  0.3743  0.05868000000000002  1.0000
  C   C87       1.0  0.13168  0.34923  0.10095  1.0000
  C   C88       1.0  0.02534  0.40108  0.09833  1.0000
  C   C89       1.0  0.5329  0.86193  0.04432  1.0000
  C   C90       1.0  0.64134  0.9175699999999998  0.05792  1.0000
  C   C91       1.0  0.8993000000000001  0.92756  0.07917  1.0000
  C   C92       1.0  0.8764600000000001  0.021  0.07381  1.0000
  C   C93       1.0  0.6176100000000002  0.01458  0.052560000000000016  1.0000
  C   C94       1.0  0.49047000000000013  0.9625699999999999  0.04592  1.0000
  C   C95       1.0  0.01303  0.07596  0.07902  1.0000
  C   C96       1.0  0.26669  0.08620999999999998  0.10104000000000003  1.0000
  C   C97       1.0  0.40114  0.13889  0.10118000000000003  1.0000
  C   C98       1.0  0.04403  0.17144999999999996  0.059630000000000016  1.0000
  C   C99       1.0  0.89627  0.12062999999999999  0.05883  1.0000
  C   C100      1.0  0.38887999999999995  0.24061999999999995  0.66062  1.0000
  C   C101      1.0  0.24404999999999996  0.24703999999999995  0.70105  1.0000
  C   C102      1.0  0.35879  0.22228999999999996  0.7362800000000003  1.0000
  C   C103      1.0  0.0030800000000000033  0.25333  0.77843  1.0000
  C   C104      1.0  0.8751000000000001  0.27977  0.7449  1.0000
  C   C105      1.0  0.002290000000000008  0.27667  0.70575  1.0000
  C   C106      1.0  0.88741  0.25452  0.8208600000000003  1.0000
  C   C107      1.0  0.02283999999999999  0.22622999999999996  0.85271  1.0000
  C   C108      1.0  0.9061000000000001  0.22595  0.89246  1.0000
  C   C109      1.0  0.54364  0.28053  0.87221  1.0000
  C   C110      1.0  0.6444200000000002  0.28145  0.8314  1.0000
  C   C111      1.0  0.18220999999999996  0.84805  0.5306200000000002  1.0000
  C   C112      1.0  0.10679  0.90259  0.5463100000000002  1.0000
  C   C113      1.0  0.85037  0.92249  0.53252  1.0000
  C   C114      1.0  0.92243  0.003459999999999999  0.56818  1.0000
  C   C115      1.0  0.16715999999999992  0.9849299999999998  0.58682  1.0000
  C   C116      1.0  0.26788  0.93433  0.57508  1.0000
  C   C117      1.0  0.82378  0.05847999999999998  0.57439  1.0000
  C   C118      1.0  0.5745300000000001  0.07285  0.5547800000000003  1.0000
  C   C119      1.0  0.48168000000000005  0.12575  0.55862  1.0000
  C   C120      1.0  0.86842  0.15077999999999997  0.60092  1.0000
  C   C121      1.0  0.9746  0.09892999999999999  0.59831  1.0000
  C   C122      1.0  0.46749  0.63803  0.54433  1.0000
  C   C123      1.0  0.35911  0.58238  0.5579300000000003  1.0000
  C   C124      1.0  0.10113000000000003  0.57241  0.57918  1.0000
  C   C125      1.0  0.12369  0.47896  0.57381  1.0000
  C   C126      1.0  0.38262  0.48536999999999997  0.55257  1.0000
  C   C127      1.0  0.5099800000000001  0.53737  0.54593  1.0000
  C   C128      1.0  0.98695  0.4240199999999999  0.57901  1.0000
  C   C129      1.0  0.73324  0.4137799999999999  0.6010300000000002  1.0000
  C   C130      1.0  0.5987499999999999  0.36108999999999997  0.60119  1.0000
  C   C131      1.0  0.95586  0.32853  0.55964  1.0000
  C   C132      1.0  0.10361000000000002  0.37934  0.55881  1.0000
  N   N1        1.0  0.23926999999999998  0.7250299999999997  0.7258700000000001  1.0000
  N   N2        1.0  0.6775400000000001  0.75359  0.59732  1.0000
  N   N3        1.0  0.76068  0.47161  0.9585500000000002  1.0000
  N   N4        1.0  0.6312000000000002  0.66445  0.91896  1.0000
  N   N5        1.0  0.98588  0.02247  0.91119  1.0000
  N   N6        1.0  0.71202  0.8189199999999998  0.9193000000000001  1.0000
  N   N7        1.0  0.7606899999999998  0.7749499999999998  0.22588000000000005  1.0000
  N   N8        1.0  0.32247  0.74643  0.09733  1.0000
  N   N9        1.0  0.23985000000000006  0.028399999999999995  0.45851  1.0000
  N   N10       1.0  0.3686400000000001  0.83553  0.4190000000000001  1.0000
  N   N11       1.0  0.013819999999999954  0.4775699999999999  0.41118  1.0000
  N   N12       1.0  0.28808999999999996  0.6811099999999999  0.41928  1.0000
  N   N13       1.0  0.7607500000000001  0.27498  0.27413  1.0000
  N   N14       1.0  0.32247  0.24640999999999996  0.40267  1.0000
  N   N15       1.0  0.23933  0.5284  0.04144  1.0000
  N   N16       1.0  0.36882000000000015  0.33556  0.08104000000000003  1.0000
  N   N17       1.0  0.01412999999999996  0.9775399999999999  0.08881  1.0000
  N   N18       1.0  0.288  0.18108999999999997  0.0807  1.0000
  N   N19       1.0  0.23932000000000003  0.22506  0.77411  1.0000
  N   N20       1.0  0.6775400000000001  0.25358  0.90267  1.0000
  N   N21       1.0  0.7601600000000001  0.9716099999999999  0.54149  1.0000
  N   N22       1.0  0.6313699999999999  0.16447999999999993  0.581  1.0000
  N   N23       1.0  0.9861900000000001  0.52244  0.58882  1.0000
  N   N24       1.0  0.7119300000000001  0.3189  0.58072  1.0000
  O   O1        1.0  0.25582999999999995  0.7566199999999998  0.87247  1.0000
  O   O2        1.0  0.6255600000000002  0.71933  0.83966  1.0000
  O   O3        1.0  0.042890000000000005  0.32817  0.99968  1.0000
  O   O4        1.0  0.38538000000000006  0.3255199999999999  0.9503900000000002  1.0000
  O   O5        1.0  0.30295  0.17784  0.9479500000000002  1.0000
  O   O6        1.0  0.69954  0.14298999999999998  0.9747500000000002  1.0000
  O   O7        1.0  0.35763000000000006  0.74369  0.97909  1.0000
  O   O8        1.0  0.7441500000000002  0.74335  0.37247000000000013  1.0000
  O   O9        1.0  0.3743699999999999  0.7806499999999998  0.33966000000000013  1.0000
  O   O10       1.0  0.95678  0.17181999999999997  0.49974  1.0000
  O   O11       1.0  0.61557  0.17456  0.45025  1.0000
  O   O12       1.0  0.6968599999999999  0.32223999999999997  0.44796  1.0000
  O   O13       1.0  0.30023999999999995  0.3570299999999999  0.47477  1.0000
  O   O14       1.0  0.64227  0.75629  0.4790800000000001  1.0000
  O   O15       1.0  0.7441800000000003  0.24338  0.12753  1.0000
  O   O16       1.0  0.37445000000000006  0.28068  0.16034  1.0000
  O   O17       1.0  0.95713  0.67184  0.00032000000000000013  1.0000
  O   O18       1.0  0.6146300000000001  0.6744899999999998  0.0496  1.0000
  O   O19       1.0  0.6970700000000003  0.82217  0.05204  1.0000
  O   O20       1.0  0.30047000000000007  0.85701  0.02525  1.0000
  O   O21       1.0  0.64239  0.25632  0.02091000000000001  1.0000
  O   O22       1.0  0.25586000000000003  0.25665999999999994  0.6275300000000003  1.0000
  O   O23       1.0  0.6256400000000001  0.21936  0.66033  1.0000
  O   O24       1.0  0.043230000000000025  0.82819  0.50026  1.0000
  O   O25       1.0  0.38444  0.8254399999999997  0.54974  1.0000
  O   O26       1.0  0.30315  0.67777  0.55204  1.0000
  O   O27       1.0  0.69977  0.64298  0.52523  1.0000
  O   O28       1.0  0.3577499999999999  0.24371999999999994  0.52092  1.0000
