data_image0
_chemical_formula_structural       Mn12H96C168S12O72
_chemical_formula_sum              "Mn12 H96 C168 S12 O72"
_cell_length_a       16.61601
_cell_length_b       17.178249999999995
_cell_length_c       20.60265
_cell_angle_alpha    90.0
_cell_angle_beta     90.0
_cell_angle_gamma    100.34773

_space_group_name_H-M_alt    "P 1"
_space_group_IT_number       1

loop_
  _space_group_symop_operation_xyz
  'x, y, z'

loop_
  _atom_site_type_symbol
  _atom_site_label
  _atom_site_symmetry_multiplicity
  _atom_site_fract_x
  _atom_site_fract_y
  _atom_site_fract_z
  _atom_site_occupancy
  Mn  Mn1       1.0  0.02932000000000002  0.7523  0.16803  1.0000
  Mn  Mn2       1.0  0.12046  0.93264  0.13434  1.0000
  Mn  Mn3       1.0  0.91849  0.57188  0.15172  1.0000
  Mn  Mn4       1.0  0.47067999999999993  0.7477099999999998  0.66803  1.0000
  Mn  Mn5       1.0  0.37954000000000004  0.56737  0.63434  1.0000
  Mn  Mn6       1.0  0.58151  0.92813  0.65172  1.0000
  Mn  Mn7       1.0  0.9706799999999999  0.24770999999999999  0.83197  1.0000
  Mn  Mn8       1.0  0.87954  0.06737  0.8656600000000001  1.0000
  Mn  Mn9       1.0  0.08151  0.42813  0.84828  1.0000
  Mn  Mn10      1.0  0.52932  0.25229  0.33197  1.0000
  Mn  Mn11      1.0  0.62046  0.4326399999999999  0.36566  1.0000
  Mn  Mn12      1.0  0.41849  0.07187  0.34828  1.0000
  H   H1        1.0  0.26329  0.67891  0.21438  1.0000
  H   H2        1.0  0.40327999999999997  0.65788  0.24597000000000002  1.0000
  H   H3        1.0  0.48595000000000005  0.91069  0.25172  1.0000
  H   H4        1.0  0.34692  0.9305899999999998  0.21823000000000004  1.0000
  H   H5        1.0  0.54349  0.61301  0.32584  1.0000
  H   H6        1.0  0.49826  0.55677  0.43479  1.0000
  H   H7        1.0  0.4790800000000001  0.7892299999999999  0.50362  1.0000
  H   H8        1.0  0.52449  0.84682  0.3945100000000001  1.0000
  H   H9        1.0  0.02738  0.07661  0.27759  1.0000
  H   H10       1.0  0.97274  0.12539  0.37853  1.0000
  H   H11       1.0  0.88309  0.8844599999999998  0.43848000000000004  1.0000
  H   H12       1.0  0.9323  0.83585  0.3336  1.0000
  H   H13       1.0  0.82926  0.17472  0.4355200000000001  1.0000
  H   H14       1.0  0.68653  0.18622  0.40079  1.0000
  H   H15       1.0  0.59719  0.94923  0.4676  1.0000
  H   H16       1.0  0.7384  0.9377899999999999  0.50447  1.0000
  H   H17       1.0  0.012579999999999997  0.74468  0.3421  1.0000
  H   H18       1.0  0.016650000000000015  0.76424  0.4623  1.0000
  H   H19       1.0  0.90766  0.51875  0.4886  1.0000
  H   H20       1.0  0.90253  0.49992  0.36814  1.0000
  H   H21       1.0  0.9282800000000002  0.81604  0.55554  1.0000
  H   H22       1.0  0.80376  0.87207  0.57878  1.0000
  H   H23       1.0  0.67267  0.64091  0.62996  1.0000
  H   H24       1.0  0.8007000000000002  0.58463  0.6114500000000002  1.0000
  H   H25       1.0  0.23671000000000006  0.8211  0.71438  1.0000
  H   H26       1.0  0.09671999999999997  0.8421199999999999  0.74597  1.0000
  H   H27       1.0  0.01405000000000001  0.58932  0.75172  1.0000
  H   H28       1.0  0.15308  0.56942  0.71822  1.0000
  H   H29       1.0  0.9565099999999999  0.8869999999999999  0.82584  1.0000
  H   H30       1.0  0.0017399999999999612  0.9432299999999998  0.93479  1.0000
  H   H31       1.0  0.020920000000000008  0.71078  0.00362  1.0000
  H   H32       1.0  0.97551  0.65319  0.89451  1.0000
  H   H33       1.0  0.47262  0.4234  0.7775900000000001  1.0000
  H   H34       1.0  0.52726  0.37461  0.8785300000000001  1.0000
  H   H35       1.0  0.6169100000000002  0.61554  0.93848  1.0000
  H   H36       1.0  0.5677  0.66415  0.8336000000000001  1.0000
  H   H37       1.0  0.67074  0.32528999999999997  0.9355200000000001  1.0000
  H   H38       1.0  0.81347  0.31378  0.90079  1.0000
  H   H39       1.0  0.9028100000000001  0.55077  0.9675999999999999  1.0000
  H   H40       1.0  0.7616  0.56221  0.00447  1.0000
  H   H41       1.0  0.4874200000000001  0.75533  0.8421000000000001  1.0000
  H   H42       1.0  0.48335  0.73576  0.9622900000000001  1.0000
  H   H43       1.0  0.59234  0.98125  0.9886  1.0000
  H   H44       1.0  0.59747  8e-05  0.86814  1.0000
  H   H45       1.0  0.57172  0.68397  0.05554  1.0000
  H   H46       1.0  0.6962399999999999  0.62793  0.07878  1.0000
  H   H47       1.0  0.8273300000000002  0.8591  0.12996  1.0000
  H   H48       1.0  0.6993  0.91538  0.11145000000000001  1.0000
  H   H49       1.0  0.73671  0.3211  0.78562  1.0000
  H   H50       1.0  0.59672  0.34212  0.75403  1.0000
  H   H51       1.0  0.51405  0.08932  0.74828  1.0000
  H   H52       1.0  0.65308  0.06942  0.7817700000000001  1.0000
  H   H53       1.0  0.45651  0.38699  0.67416  1.0000
  H   H54       1.0  0.50174  0.44323  0.56521  1.0000
  H   H55       1.0  0.52092  0.21078  0.49638000000000004  1.0000
  H   H56       1.0  0.47551  0.15318  0.60549  1.0000
  H   H57       1.0  0.97262  0.9234  0.72241  1.0000
  H   H58       1.0  0.02725999999999998  0.87461  0.62147  1.0000
  H   H59       1.0  0.11691  0.11554  0.56152  1.0000
  H   H60       1.0  0.0677  0.16415  0.6664  1.0000
  H   H61       1.0  0.17074  0.82529  0.56448  1.0000
  H   H62       1.0  0.31347  0.81378  0.59921  1.0000
  H   H63       1.0  0.40281  0.05077  0.5324  1.0000
  H   H64       1.0  0.2616  0.06221  0.4955300000000001  1.0000
  H   H65       1.0  0.9874200000000001  0.2553199999999999  0.6579  1.0000
  H   H66       1.0  0.98335  0.23575999999999994  0.5377  1.0000
  H   H67       1.0  0.09233999999999999  0.48124999999999996  0.5114  1.0000
  H   H68       1.0  0.09747  0.50008  0.63186  1.0000
  H   H69       1.0  0.07172  0.18397  0.4444600000000001  1.0000
  H   H70       1.0  0.19624  0.12793  0.42122  1.0000
  H   H71       1.0  0.32733  0.35909  0.37004000000000004  1.0000
  H   H72       1.0  0.1993  0.41538  0.38855  1.0000
  H   H73       1.0  0.76329  0.17891  0.28562  1.0000
  H   H74       1.0  0.90328  0.15788  0.25403  1.0000
  H   H75       1.0  0.98595  0.41068  0.24828000000000003  1.0000
  H   H76       1.0  0.84692  0.43059  0.28177  1.0000
  H   H77       1.0  0.04349  0.11301  0.17416  1.0000
  H   H78       1.0  0.9982599999999999  0.05677  0.06521  1.0000
  H   H79       1.0  0.97908  0.28922  0.9963800000000002  1.0000
  H   H80       1.0  0.024489999999999998  0.34682  0.10548999999999999  1.0000
  H   H81       1.0  0.52738  0.5766099999999998  0.22241  1.0000
  H   H82       1.0  0.47274  0.62539  0.12147000000000001  1.0000
  H   H83       1.0  0.38309  0.38446  0.06152  1.0000
  H   H84       1.0  0.4323  0.33585  0.1664  1.0000
  H   H85       1.0  0.32926  0.67472  0.06448  1.0000
  H   H86       1.0  0.18653  0.68622  0.09921  1.0000
  H   H87       1.0  0.09719  0.44923  0.0324  1.0000
  H   H88       1.0  0.2384  0.43779  0.99553  1.0000
  H   H89       1.0  0.51258  0.24468000000000004  0.1579  1.0000
  H   H90       1.0  0.51665  0.26424  0.0377  1.0000
  H   H91       1.0  0.40766  0.018749999999999996  0.0114  1.0000
  H   H92       1.0  0.40253  0.99992  0.13186  1.0000
  H   H93       1.0  0.42828  0.31604  0.94446  1.0000
  H   H94       1.0  0.30376  0.37206999999999996  0.92122  1.0000
  H   H95       1.0  0.17267000000000005  0.14091  0.8700400000000001  1.0000
  H   H96       1.0  0.3007  0.08462  0.8885500000000001  1.0000
  C   C1        1.0  0.2152  0.81963  0.1915  1.0000
  C   C2        1.0  0.2971  0.80599  0.21350000000000002  1.0000
  C   C3        1.0  0.31255  0.72892  0.22227000000000002  1.0000
  C   C4        1.0  0.39048  0.71739  0.24009  1.0000
  C   C5        1.0  0.4522  0.78343  0.25042  1.0000
  C   C6        1.0  0.43718  0.8604  0.24331  1.0000
  C   C7        1.0  0.35951999999999995  0.8711999999999999  0.22426000000000001  1.0000
  C   C8        1.0  0.53456  0.7325399999999999  0.35413  1.0000
  C   C9        1.0  0.52941  0.65132  0.36467  1.0000
  C   C10       1.0  0.50397  0.6198199999999999  0.42516  1.0000
  C   C11       1.0  0.48387  0.66964  0.47427  1.0000
  C   C12       1.0  0.4935399999999999  0.75183  0.46421  1.0000
  C   C13       1.0  0.51886  0.78363  0.40380000000000005  1.0000
  C   C14       1.0  0.44709  0.6345399999999998  0.53508  1.0000
  C   C15       1.0  0.018169999999999985  0.9248  0.23919  1.0000
  C   C16       1.0  0.98259  0.9530699999999999  0.29914  1.0000
  C   C17       1.0  0.99377  0.03462  0.31163  1.0000
  C   C18       1.0  0.9640299999999999  0.06223  0.36868  1.0000
  C   C19       1.0  0.925  0.007299999999999998  0.4137799999999999  1.0000
  C   C20       1.0  0.91269  0.9257599999999998  0.40208  1.0000
  C   C21       1.0  0.94109  0.89881  0.34412  1.0000
  C   C22       1.0  0.79088  0.05498  0.47048  1.0000
  C   C23       1.0  0.77806  0.12605  0.4425200000000001  1.0000
  C   C24       1.0  0.699  0.13252  0.42355000000000004  1.0000
  C   C25       1.0  0.63447  0.06806  0.4315300000000001  1.0000
  C   C26       1.0  0.64821  0.9979199999999999  0.461  1.0000
  C   C27       1.0  0.7267000000000001  0.99135  0.48103000000000007  1.0000
  C   C28       1.0  0.55231  0.07348  0.4063800000000001  1.0000
  C   C29       1.0  0.95061  0.6143199999999998  0.27599  1.0000
  C   C30       1.0  0.95508  0.6221099999999998  0.34781  1.0000
  C   C31       1.0  0.9886100000000001  0.69611  0.37459  1.0000
  C   C32       1.0  0.99098  0.70694  0.44156  1.0000
  C   C33       1.0  0.96031  0.64262  0.48167  1.0000
  C   C34       1.0  0.92881  0.56792  0.45596  1.0000
  C   C35       1.0  0.92611  0.55776  0.38874  1.0000
  C   C36       1.0  0.8706  0.69682  0.58167  1.0000
  C   C37       1.0  0.8726100000000001  0.77776  0.57188  1.0000
  C   C38       1.0  0.80235  0.80896  0.58413  1.0000
  C   C39       1.0  0.73013  0.7594899999999998  0.60429  1.0000
  C   C40       1.0  0.7289  0.67829  0.61364  1.0000
  C   C41       1.0  0.79951  0.64684  0.60295  1.0000
  C   C42       1.0  0.65516  0.79348  0.61709  1.0000
  C   C43       1.0  0.2848000000000001  0.68038  0.6915  1.0000
  C   C44       1.0  0.20290000000000005  0.69401  0.7135  1.0000
  C   C45       1.0  0.18744999999999995  0.7710899999999998  0.7222700000000001  1.0000
  C   C46       1.0  0.10952  0.78261  0.74009  1.0000
  C   C47       1.0  0.047799999999999974  0.71658  0.75042  1.0000
  C   C48       1.0  0.06281999999999995  0.6396099999999998  0.74331  1.0000
  C   C49       1.0  0.14048  0.6288  0.72426  1.0000
  C   C50       1.0  0.9654399999999999  0.76746  0.85413  1.0000
  C   C51       1.0  0.9705900000000001  0.84869  0.8646700000000002  1.0000
  C   C52       1.0  0.99603  0.88018  0.9251600000000001  1.0000
  C   C53       1.0  0.016129999999999988  0.83037  0.9742700000000001  1.0000
  C   C54       1.0  0.006460000000000007  0.74817  0.96421  1.0000
  C   C55       1.0  0.98114  0.71638  0.9038  1.0000
  C   C56       1.0  0.05290999999999996  0.8654699999999997  0.03508  1.0000
  C   C57       1.0  0.48183000000000004  0.57521  0.73919  1.0000
  C   C58       1.0  0.51741  0.54693  0.7991399999999999  1.0000
  C   C59       1.0  0.50623  0.46538  0.8116300000000001  1.0000
  C   C60       1.0  0.53597  0.43777  0.8686800000000001  1.0000
  C   C61       1.0  0.575  0.4927  0.9137800000000001  1.0000
  C   C62       1.0  0.5873100000000001  0.57425  0.90208  1.0000
  C   C63       1.0  0.55891  0.60119  0.84412  1.0000
  C   C64       1.0  0.70912  0.44503  0.9704799999999999  1.0000
  C   C65       1.0  0.72194  0.3739499999999999  0.94252  1.0000
  C   C66       1.0  0.801  0.36748  0.92355  1.0000
  C   C67       1.0  0.86553  0.43194  0.9315200000000001  1.0000
  C   C68       1.0  0.85179  0.50208  0.9610000000000001  1.0000
  C   C69       1.0  0.7733  0.50866  0.98103  1.0000
  C   C70       1.0  0.9476900000000001  0.4265199999999999  0.90638  1.0000
  C   C71       1.0  0.54939  0.88568  0.77599  1.0000
  C   C72       1.0  0.54492  0.8778999999999998  0.84781  1.0000
  C   C73       1.0  0.51139  0.80389  0.87458  1.0000
  C   C74       1.0  0.50902  0.79307  0.94156  1.0000
  C   C75       1.0  0.53969  0.85739  0.9816700000000002  1.0000
  C   C76       1.0  0.57119  0.9320899999999999  0.95596  1.0000
  C   C77       1.0  0.57389  0.94225  0.88874  1.0000
  C   C78       1.0  0.6294  0.80318  0.08167  1.0000
  C   C79       1.0  0.62739  0.72225  0.07188  1.0000
  C   C80       1.0  0.69765  0.69105  0.08413  1.0000
  C   C81       1.0  0.76987  0.7405199999999997  0.10429  1.0000
  C   C82       1.0  0.7711000000000002  0.82172  0.11364  1.0000
  C   C83       1.0  0.70049  0.85317  0.10295000000000001  1.0000
  C   C84       1.0  0.84484  0.70653  0.11709  1.0000
  C   C85       1.0  0.7848  0.18037  0.8085  1.0000
  C   C86       1.0  0.7029  0.19401  0.7865  1.0000
  C   C87       1.0  0.68745  0.27108  0.7777300000000001  1.0000
  C   C88       1.0  0.6095199999999998  0.28260999999999986  0.75991  1.0000
  C   C89       1.0  0.5478000000000002  0.21657  0.74958  1.0000
  C   C90       1.0  0.56282  0.13961  0.75669  1.0000
  C   C91       1.0  0.64048  0.1288  0.77574  1.0000
  C   C92       1.0  0.46544  0.26746  0.64587  1.0000
  C   C93       1.0  0.47059000000000006  0.34869  0.63533  1.0000
  C   C94       1.0  0.49602999999999997  0.38017999999999996  0.57484  1.0000
  C   C95       1.0  0.51613  0.33037  0.52573  1.0000
  C   C96       1.0  0.50646  0.24816999999999997  0.53578  1.0000
  C   C97       1.0  0.4811400000000001  0.21638  0.59619  1.0000
  C   C98       1.0  0.55291  0.36547  0.46492000000000006  1.0000
  C   C99       1.0  0.9818300000000001  0.0752  0.76081  1.0000
  C   C100      1.0  0.01741  0.04692999999999999  0.70085  1.0000
  C   C101      1.0  0.006229999999999986  0.96538  0.68837  1.0000
  C   C102      1.0  0.03597  0.9377799999999998  0.6313200000000001  1.0000
  C   C103      1.0  0.07500000000000002  0.9927  0.58622  1.0000
  C   C104      1.0  0.08731  0.07425  0.59792  1.0000
  C   C105      1.0  0.05890999999999999  0.10119  0.65587  1.0000
  C   C106      1.0  0.20912  0.94503  0.52951  1.0000
  C   C107      1.0  0.22194  0.87395  0.55748  1.0000
  C   C108      1.0  0.301  0.86749  0.57645  1.0000
  C   C109      1.0  0.36553  0.93194  0.56847  1.0000
  C   C110      1.0  0.35179  0.00208  0.53899  1.0000
  C   C111      1.0  0.2733  0.00866  0.51896  1.0000
  C   C112      1.0  0.44769  0.92652  0.59362  1.0000
  C   C113      1.0  0.049389999999999996  0.38568  0.724  1.0000
  C   C114      1.0  0.044920000000000015  0.3779  0.65219  1.0000
  C   C115      1.0  0.011389999999999978  0.3038899999999999  0.62541  1.0000
  C   C116      1.0  0.009019999999999999  0.29306  0.55843  1.0000
  C   C117      1.0  0.03969000000000001  0.35738  0.51833  1.0000
  C   C118      1.0  0.07119  0.43209  0.54403  1.0000
  C   C119      1.0  0.07388999999999998  0.44223999999999997  0.61125  1.0000
  C   C120      1.0  0.1294  0.30318  0.41833  1.0000
  C   C121      1.0  0.12739000000000006  0.22224  0.42812  1.0000
  C   C122      1.0  0.19765000000000002  0.19104  0.41587  1.0000
  C   C123      1.0  0.26987  0.24052  0.39571  1.0000
  C   C124      1.0  0.2711  0.32171  0.38636  1.0000
  C   C125      1.0  0.20048999999999997  0.35317  0.39705000000000007  1.0000
  C   C126      1.0  0.3448400000000001  0.20653  0.38291  1.0000
  C   C127      1.0  0.7152  0.31963  0.3085  1.0000
  C   C128      1.0  0.7971  0.30599  0.2865  1.0000
  C   C129      1.0  0.81255  0.22892  0.27773  1.0000
  C   C130      1.0  0.8904800000000003  0.21739  0.25991  1.0000
  C   C131      1.0  0.9522  0.28343  0.24958  1.0000
  C   C132      1.0  0.9371799999999999  0.36039  0.25669  1.0000
  C   C133      1.0  0.85952  0.3712  0.27574  1.0000
  C   C134      1.0  0.03456  0.23253999999999994  0.14587  1.0000
  C   C135      1.0  0.02941  0.15131  0.13533  1.0000
  C   C136      1.0  0.003969999999999998  0.11982  0.07484  1.0000
  C   C137      1.0  0.98387  0.16963  0.02573  1.0000
  C   C138      1.0  0.9935400000000001  0.25183  0.03578  1.0000
  C   C139      1.0  0.018860000000000002  0.28363  0.0962  1.0000
  C   C140      1.0  0.94709  0.13453  0.96492  1.0000
  C   C141      1.0  0.51817  0.4248  0.26081  1.0000
  C   C142      1.0  0.4825900000000001  0.45306999999999986  0.20085  1.0000
  C   C143      1.0  0.49376999999999993  0.53463  0.18837  1.0000
  C   C144      1.0  0.46403  0.56223  0.13132  1.0000
  C   C145      1.0  0.425  0.5073  0.08622  1.0000
  C   C146      1.0  0.41269  0.42576  0.09792000000000001  1.0000
  C   C147      1.0  0.4410899999999999  0.3988099999999999  0.15587  1.0000
  C   C148      1.0  0.29088  0.55498  0.029510000000000005  1.0000
  C   C149      1.0  0.27806  0.62605  0.05748000000000001  1.0000
  C   C150      1.0  0.199  0.63252  0.07645  1.0000
  C   C151      1.0  0.13447000000000006  0.56807  0.06847  1.0000
  C   C152      1.0  0.14820999999999998  0.4979199999999999  0.03899  1.0000
  C   C153      1.0  0.2267  0.49134  0.01896  1.0000
  C   C154      1.0  0.05231000000000001  0.57348  0.09362  1.0000
  C   C155      1.0  0.45061000000000007  0.11432  0.224  1.0000
  C   C156      1.0  0.4550800000000001  0.12210000000000001  0.15219  1.0000
  C   C157      1.0  0.48861000000000004  0.19611  0.12541  1.0000
  C   C158      1.0  0.4909800000000001  0.20693999999999996  0.05843  1.0000
  C   C159      1.0  0.46031  0.14261999999999994  0.01833  1.0000
  C   C160      1.0  0.42881000000000014  0.06792  0.04404  1.0000
  C   C161      1.0  0.42611  0.05776  0.11125  1.0000
  C   C162      1.0  0.3706  0.19682  0.9183300000000001  1.0000
  C   C163      1.0  0.37261  0.27776  0.9281200000000001  1.0000
  C   C164      1.0  0.30235  0.30895999999999996  0.91586  1.0000
  C   C165      1.0  0.23013000000000003  0.25948  0.89571  1.0000
  C   C166      1.0  0.22889999999999996  0.17828999999999998  0.88636  1.0000
  C   C167      1.0  0.29951  0.14683  0.89705  1.0000
  C   C168      1.0  0.15516  0.29346999999999995  0.88291  1.0000
  S   S1        1.0  0.5526  0.77039  0.27345  1.0000
  S   S2        1.0  0.89258  0.04275  0.48865000000000003  1.0000
  S   S3        1.0  0.9610600000000001  0.65652  0.56786  1.0000
  S   S4        1.0  0.9474  0.72961  0.77345  1.0000
  S   S5        1.0  0.6074200000000001  0.45725  0.9886500000000001  1.0000
  S   S6        1.0  0.53894  0.84348  0.06786  1.0000
  S   S7        1.0  0.4474  0.22961  0.72655  1.0000
  S   S8        1.0  0.10741999999999997  0.9572499999999999  0.51135  1.0000
  S   S9        1.0  0.038940000000000016  0.34348  0.4321400000000001  1.0000
  S   S10       1.0  0.05259999999999998  0.2703899999999999  0.22655000000000003  1.0000
  S   S11       1.0  0.39258  0.54275  0.01135  1.0000
  S   S12       1.0  0.46106  0.15652  0.9321400000000001  1.0000
  O   O1        1.0  0.9838499999999999  0.67231  0.24085  1.0000
  O   O2        1.0  0.42872000000000005  0.6793  0.58123  1.0000
  O   O3        1.0  0.01622000000000001  0.85131  0.23054  1.0000
  O   O4        1.0  0.58899  0.74675  0.62985  1.0000
  O   O5        1.0  0.15532  0.76214  0.19151  1.0000
  O   O6        1.0  0.53535  0.14101  0.38979  1.0000
  O   O7        1.0  0.21193000000000006  0.89086  0.17275  1.0000
  O   O8        1.0  0.05202  0.97836  0.19849000000000003  1.0000
  O   O9        1.0  0.42828  0.55904  0.54204  1.0000
  O   O10       1.0  0.66296  0.8699399999999999  0.61423  1.0000
  O   O11       1.0  0.91241  0.55012  0.24976000000000004  1.0000
  O   O12       1.0  0.49733000000000005  0.01102  0.39932  1.0000
  O   O13       1.0  0.57537  0.70728  0.23368  1.0000
  O   O14       1.0  0.60439  0.84837  0.27637  1.0000
  O   O15       1.0  0.94112  0.12119  0.5002  1.0000
  O   O16       1.0  0.88875  0.97994  0.53685  1.0000
  O   O17       1.0  0.94929  0.57805  0.59764  1.0000
  O   O18       1.0  0.03141999999999995  0.7175699999999998  0.5843  1.0000
  O   O19       1.0  0.51615  0.8277  0.74085  1.0000
  O   O20       1.0  0.07127999999999997  0.82071  0.08123  1.0000
  O   O21       1.0  0.48377999999999993  0.64869  0.73053  1.0000
  O   O22       1.0  0.9110100000000004  0.75326  0.12985  1.0000
  O   O23       1.0  0.34468  0.73787  0.69151  1.0000
  O   O24       1.0  0.96465  0.35898999999999986  0.88979  1.0000
  O   O25       1.0  0.28807  0.60914  0.67275  1.0000
  O   O26       1.0  0.44798  0.52165  0.69848  1.0000
  O   O27       1.0  0.07172000000000003  0.94097  0.04204  1.0000
  O   O28       1.0  0.83704  0.63006  0.11423  1.0000
  O   O29       1.0  0.5875900000000002  0.9498799999999998  0.74976  1.0000
  O   O30       1.0  0.0026700000000000074  0.48898  0.8993199999999999  1.0000
  O   O31       1.0  0.9246300000000001  0.79273  0.73367  1.0000
  O   O32       1.0  0.89561  0.6516299999999999  0.7763700000000001  1.0000
  O   O33       1.0  0.55888  0.3788099999999999  0.00020000000000000004  1.0000
  O   O34       1.0  0.61125  0.52006  0.03685  1.0000
  O   O35       1.0  0.5507099999999999  0.9219599999999998  0.09764  1.0000
  O   O36       1.0  0.46858  0.78243  0.0843  1.0000
  O   O37       1.0  0.016149999999999987  0.3276999999999999  0.75915  1.0000
  O   O38       1.0  0.57128  0.32071  0.41877  1.0000
  O   O39       1.0  0.98378  0.14869  0.76946  1.0000
  O   O40       1.0  0.41101  0.25326  0.37015  1.0000
  O   O41       1.0  0.84468  0.23787  0.80849  1.0000
  O   O42       1.0  0.46464999999999995  0.85899  0.61021  1.0000
  O   O43       1.0  0.78807  0.10914  0.8272400000000001  1.0000
  O   O44       1.0  0.9479800000000002  0.02165  0.80151  1.0000
  O   O45       1.0  0.57172  0.4409699999999999  0.45796000000000003  1.0000
  O   O46       1.0  0.33704  0.13006  0.38577  1.0000
  O   O47       1.0  0.08759  0.44988  0.75024  1.0000
  O   O48       1.0  0.50267  0.9889799999999999  0.60068  1.0000
  O   O49       1.0  0.42463  0.29272999999999993  0.76632  1.0000
  O   O50       1.0  0.3956100000000001  0.15162999999999993  0.72363  1.0000
  O   O51       1.0  0.058879999999999995  0.87881  0.4998  1.0000
  O   O52       1.0  0.11125  0.020059999999999995  0.46315  1.0000
  O   O53       1.0  0.05070999999999999  0.42195  0.40235  1.0000
  O   O54       1.0  0.96858  0.28243  0.41570000000000007  1.0000
  O   O55       1.0  0.48385  0.17231  0.25915  1.0000
  O   O56       1.0  0.9287200000000002  0.17928999999999995  0.91877  1.0000
  O   O57       1.0  0.5162200000000001  0.3513099999999999  0.26946  1.0000
  O   O58       1.0  0.08899000000000001  0.24674999999999997  0.87015  1.0000
  O   O59       1.0  0.65532  0.26213  0.30849  1.0000
  O   O60       1.0  0.035350000000000006  0.64101  0.11021  1.0000
  O   O61       1.0  0.71193  0.39086  0.32725  1.0000
  O   O62       1.0  0.55202  0.47836  0.30151  1.0000
  O   O63       1.0  0.9282800000000002  0.05904  0.95795  1.0000
  O   O64       1.0  0.16296  0.36994  0.88577  1.0000
  O   O65       1.0  0.41241  0.05012  0.25024  1.0000
  O   O66       1.0  0.9973300000000002  0.51102  0.10068  1.0000
  O   O67       1.0  0.07537  0.20728  0.26632  1.0000
  O   O68       1.0  0.10439000000000004  0.34837  0.22363  1.0000
  O   O69       1.0  0.44112  0.62119  0.9998000000000001  1.0000
  O   O70       1.0  0.38875  0.47994  0.96315  1.0000
  O   O71       1.0  0.44929  0.07805  0.9023500000000001  1.0000
  O   O72       1.0  0.53142  0.21757  0.9156999999999998  1.0000
