data_image0
_chemical_formula_structural       Zn28H104C72N128O32
_chemical_formula_sum              "Zn28 H104 C72 N128 O32"
_cell_length_a       16.65575
_cell_length_b       17.47726
_cell_length_c       17.47731
_cell_angle_alpha    81.72916
_cell_angle_beta     84.63462999999999
_cell_angle_gamma    84.63460999999998

_space_group_name_H-M_alt    "P 1"
_space_group_IT_number       1

loop_
  _space_group_symop_operation_xyz
  'x, y, z'

loop_
  _atom_site_type_symbol
  _atom_site_label
  _atom_site_symmetry_multiplicity
  _atom_site_fract_x
  _atom_site_fract_y
  _atom_site_fract_z
  _atom_site_occupancy
  Zn  Zn1       1.0  0.9579  0.5194900000000001  0.24552  1.0000
  Zn  Zn2       1.0  0.1371  0.0665  0.28727  1.0000
  Zn  Zn3       1.0  0.22490999999999997  0.24758  0.25821  1.0000
  Zn  Zn4       1.0  0.3199  0.42649  0.2294  1.0000
  Zn  Zn5       1.0  0.96187  0.78913  0.41701  1.0000
  Zn  Zn6       1.0  0.99496  0.76229  0.0135  1.0000
  Zn  Zn7       1.0  0.9754700000000001  0.95653  0.27459  1.0000
  Zn  Zn8       1.0  0.5421  0.75448  0.48050999999999994  1.0000
  Zn  Zn9       1.0  0.36290000000000006  0.7127300000000001  0.9334899999999999  1.0000
  Zn  Zn10      1.0  0.27508000000000005  0.74179  0.75241  1.0000
  Zn  Zn11      1.0  0.18009999999999995  0.7706  0.5735  1.0000
  Zn  Zn12      1.0  0.53813  0.58298  0.21086  1.0000
  Zn  Zn13      1.0  0.50504  0.9865  0.23771000000000003  1.0000
  Zn  Zn14      1.0  0.5245299999999999  0.7254100000000001  0.04346  1.0000
  Zn  Zn15      1.0  0.0421  0.48050999999999994  0.75448  1.0000
  Zn  Zn16      1.0  0.8628999999999998  0.93349  0.71273  1.0000
  Zn  Zn17      1.0  0.7750800000000002  0.75241  0.74179  1.0000
  Zn  Zn18      1.0  0.6801  0.5735  0.7706  1.0000
  Zn  Zn19      1.0  0.03812999999999998  0.21086000000000005  0.58298  1.0000
  Zn  Zn20      1.0  0.005039999999999997  0.2377  0.9865  1.0000
  Zn  Zn21      1.0  0.024529999999999996  0.04346000000000001  0.72541  1.0000
  Zn  Zn22      1.0  0.45789000000000024  0.24551999999999996  0.5194900000000001  1.0000
  Zn  Zn23      1.0  0.6371  0.2872700000000001  0.06650000000000002  1.0000
  Zn  Zn24      1.0  0.72491  0.25821  0.24758000000000002  1.0000
  Zn  Zn25      1.0  0.8199  0.2294  0.42649  1.0000
  Zn  Zn26      1.0  0.46187  0.41701  0.78913  1.0000
  Zn  Zn27      1.0  0.49496  0.013499999999999993  0.76229  1.0000
  Zn  Zn28      1.0  0.47546999999999995  0.27459  0.95653  1.0000
  H   H1        1.0  0.10792999999999998  0.92986  0.3357  1.0000
  H   H2        1.0  0.8586300000000001  0.8936000000000001  0.35313  1.0000
  H   H3        1.0  0.18121000000000004  0.34507  0.10318  1.0000
  H   H4        1.0  0.12474  0.33827  0.02321  1.0000
  H   H5        1.0  0.02817  0.09399  0.12804  1.0000
  H   H6        1.0  0.21150999999999998  0.5800900000000001  0.19053  1.0000
  H   H7        1.0  0.10667000000000001  0.60159  0.18858  1.0000
  H   H8        1.0  0.03917000000000002  0.34247  0.2625  1.0000
  H   H9        1.0  0.26977  0.16232  0.11807000000000001  1.0000
  H   H10       1.0  0.32665  0.16681  0.03204  1.0000
  H   H11       1.0  0.45081  0.39337  0.07433  1.0000
  H   H12       1.0  0.92389  0.35396  0.45751  1.0000
  H   H13       1.0  0.94146  0.4462999999999999  0.41544  1.0000
  H   H14       1.0  0.81917  0.42291999999999996  0.18229000000000004  1.0000
  H   H15       1.0  0.07436  0.01423999999999999  0.46008  1.0000
  H   H16       1.0  0.06194000000000001  0.058669999999999986  0.54241  1.0000
  H   H17       1.0  0.12574  0.30703  0.42075  1.0000
  H   H18       1.0  0.25844999999999996  0.9039  0.30198  1.0000
  H   H19       1.0  0.3570000000000001  0.8892500000000001  0.26461  1.0000
  H   H20       1.0  0.41518  0.15338000000000002  0.25787  1.0000
  H   H21       1.0  0.04977999999999997  0.79918  0.25680000000000003  1.0000
  H   H22       1.0  0.026339999999999992  0.73504  0.19421  1.0000
  H   H23       1.0  0.9421  0.02382  0.09205  1.0000
  H   H24       1.0  0.7376  0.66618  0.43683  1.0000
  H   H25       1.0  0.78841  0.74423  0.44683  1.0000
  H   H26       1.0  0.04159999999999999  0.64856  0.32731  1.0000
  H   H27       1.0  0.39206  0.6643  0.07013  1.0000
  H   H28       1.0  0.64137  0.6468600000000001  0.10639  1.0000
  H   H29       1.0  0.31878  0.8968199999999998  0.65492  1.0000
  H   H30       1.0  0.3752600000000001  0.9767900000000002  0.66172  1.0000
  H   H31       1.0  0.4718300000000002  0.8719600000000001  0.906  1.0000
  H   H32       1.0  0.28849  0.80947  0.41991  1.0000
  H   H33       1.0  0.39333  0.8114200000000001  0.39841  1.0000
  H   H34       1.0  0.46081999999999995  0.7374999999999999  0.6575300000000001  1.0000
  H   H35       1.0  0.23023000000000002  0.88193  0.83768  1.0000
  H   H36       1.0  0.17335000000000006  0.96796  0.83318  1.0000
  H   H37       1.0  0.04919  0.92566  0.60663  1.0000
  H   H38       1.0  0.57611  0.54248  0.64604  1.0000
  H   H39       1.0  0.55854  0.58456  0.5537  1.0000
  H   H40       1.0  0.68083  0.8177100000000003  0.57707  1.0000
  H   H41       1.0  0.4256400000000001  0.53991  0.9857500000000001  1.0000
  H   H42       1.0  0.43806000000000006  0.45758  0.9413200000000002  1.0000
  H   H43       1.0  0.37426000000000015  0.57924  0.69296  1.0000
  H   H44       1.0  0.24155  0.69802  0.0961  1.0000
  H   H45       1.0  0.143  0.73539  0.11075  1.0000
  H   H46       1.0  0.08481999999999999  0.74212  0.84662  1.0000
  H   H47       1.0  0.45021999999999995  0.7432  0.20082  1.0000
  H   H48       1.0  0.47364999999999996  0.80579  0.26495  1.0000
  H   H49       1.0  0.5579  0.9079500000000001  0.9761699999999999  1.0000
  H   H50       1.0  0.7623900000000001  0.5631700000000001  0.33381  1.0000
  H   H51       1.0  0.7115900000000002  0.55317  0.25577  1.0000
  H   H52       1.0  0.45840000000000014  0.6726800000000001  0.35144  1.0000
  H   H53       1.0  0.8920600000000001  0.07012999999999998  0.6643  1.0000
  H   H54       1.0  0.14137000000000005  0.10638999999999998  0.64686  1.0000
  H   H55       1.0  0.81878  0.65492  0.89682  1.0000
  H   H56       1.0  0.8752599999999999  0.66172  0.97679  1.0000
  H   H57       1.0  0.9718300000000001  0.906  0.87196  1.0000
  H   H58       1.0  0.78849  0.41991  0.80947  1.0000
  H   H59       1.0  0.8933300000000001  0.39841  0.81141  1.0000
  H   H60       1.0  0.9608199999999999  0.65753  0.7375  1.0000
  H   H61       1.0  0.73023  0.8376800000000002  0.88193  1.0000
  H   H62       1.0  0.67335  0.8331799999999999  0.96796  1.0000
  H   H63       1.0  0.54919  0.60663  0.92566  1.0000
  H   H64       1.0  0.07611000000000002  0.6460399999999998  0.54248  1.0000
  H   H65       1.0  0.058539999999999995  0.5537  0.58456  1.0000
  H   H66       1.0  0.18083000000000002  0.57707  0.81771  1.0000
  H   H67       1.0  0.92564  0.9857500000000001  0.53991  1.0000
  H   H68       1.0  0.93806  0.94132  0.45759  1.0000
  H   H69       1.0  0.87426  0.69296  0.57924  1.0000
  H   H70       1.0  0.74155  0.09610000000000005  0.69802  1.0000
  H   H71       1.0  0.643  0.11075  0.73539  1.0000
  H   H72       1.0  0.58482  0.84662  0.74212  1.0000
  H   H73       1.0  0.9502200000000001  0.20082  0.7432  1.0000
  H   H74       1.0  0.9736500000000001  0.26495  0.80579  1.0000
  H   H75       1.0  0.05789999999999998  0.97617  0.90795  1.0000
  H   H76       1.0  0.26239000000000007  0.33381  0.56317  1.0000
  H   H77       1.0  0.2115900000000001  0.25577  0.55317  1.0000
  H   H78       1.0  0.9584  0.35144  0.67268  1.0000
  H   H79       1.0  0.60793  0.3357  0.9298600000000001  1.0000
  H   H80       1.0  0.35861999999999994  0.3531300000000001  0.8936  1.0000
  H   H81       1.0  0.68121  0.10317000000000001  0.34507  1.0000
  H   H82       1.0  0.62474  0.023199999999999995  0.33827  1.0000
  H   H83       1.0  0.52817  0.12804  0.09399  1.0000
  H   H84       1.0  0.71151  0.19052999999999998  0.58009  1.0000
  H   H85       1.0  0.60667  0.18857999999999997  0.60159  1.0000
  H   H86       1.0  0.53918  0.2625  0.34247  1.0000
  H   H87       1.0  0.76977  0.11807  0.16232  1.0000
  H   H88       1.0  0.82665  0.032040000000000006  0.16681  1.0000
  H   H89       1.0  0.9508099999999999  0.07432999999999998  0.39337  1.0000
  H   H90       1.0  0.42389  0.4575099999999999  0.35396  1.0000
  H   H91       1.0  0.44146  0.41544  0.4463  1.0000
  H   H92       1.0  0.31917000000000006  0.18229  0.42292  1.0000
  H   H93       1.0  0.57436  0.46007999999999993  0.01425  1.0000
  H   H94       1.0  0.56194  0.54241  0.05867  1.0000
  H   H95       1.0  0.62574  0.42075  0.30703  1.0000
  H   H96       1.0  0.75845  0.30198  0.9039  1.0000
  H   H97       1.0  0.8570000000000001  0.26461  0.88925  1.0000
  H   H98       1.0  0.91518  0.25788  0.15338  1.0000
  H   H99       1.0  0.54978  0.2568  0.79918  1.0000
  H   H100      1.0  0.52634  0.19421000000000002  0.73504  1.0000
  H   H101      1.0  0.4421  0.09205000000000003  0.02382  1.0000
  H   H102      1.0  0.2376  0.43683  0.66618  1.0000
  H   H103      1.0  0.28841  0.44683  0.74423  1.0000
  H   H104      1.0  0.5416  0.32731  0.64856  1.0000
  C   C1        1.0  0.95965  0.63092  0.11868999999999999  1.0000
  C   C2        1.0  0.37316  0.58007  0.18999  1.0000
  C   C3        1.0  0.12557  0.2457  0.1091  1.0000
  C   C4        1.0  0.06501  0.14039  0.13361  1.0000
  C   C5        1.0  0.14211  0.49127  0.22546  1.0000
  C   C6        1.0  0.08459999999999998  0.38396000000000013  0.25002  1.0000
  C   C7        1.0  0.34619  0.24598  0.10088  1.0000
  C   C8        1.0  0.40942  0.3487  0.0928  1.0000
  C   C9        1.0  0.88688  0.38393  0.34980000000000006  1.0000
  C   C10       1.0  0.83427  0.3998200000000001  0.24054  1.0000
  C   C11       1.0  0.08506  0.12974000000000002  0.44402  1.0000
  C   C12       1.0  0.11571999999999999  0.24767000000000008  0.41585  1.0000
  C   C13       1.0  0.31784000000000007  0.0021899999999999966  0.27021  1.0000
  C   C14       1.0  0.37113  0.11063000000000002  0.26416  1.0000
  C   C15       1.0  0.00608999999999999  0.84927  0.1538  1.0000
  C   C16       1.0  0.96  0.96226  0.10139  1.0000
  C   C17       1.0  0.85791  0.65783  0.40147  1.0000
  C   C18       1.0  0.97879  0.64147  0.34744  1.0000
  C   C19       1.0  0.54035  0.8813099999999999  0.36908  1.0000
  C   C20       1.0  0.12684  0.8100100000000001  0.41993  1.0000
  C   C21       1.0  0.3744300000000001  0.8908900000000001  0.7543  1.0000
  C   C22       1.0  0.43498999999999993  0.8663800000000001  0.85961  1.0000
  C   C23       1.0  0.35789  0.77454  0.50873  1.0000
  C   C24       1.0  0.41540000000000005  0.7499700000000002  0.61604  1.0000
  C   C25       1.0  0.15380000000000002  0.8991199999999999  0.75401  1.0000
  C   C26       1.0  0.09057999999999998  0.9071999999999999  0.6513  1.0000
  C   C27       1.0  0.61312  0.6502  0.61606  1.0000
  C   C28       1.0  0.66573  0.75945  0.60017  1.0000
  C   C29       1.0  0.41494  0.55597  0.87026  1.0000
  C   C30       1.0  0.38427999999999995  0.58415  0.75232  1.0000
  C   C31       1.0  0.18215999999999993  0.7297900000000003  0.99781  1.0000
  C   C32       1.0  0.12887000000000004  0.73583  0.88937  1.0000
  C   C33       1.0  0.49391  0.8462000000000001  0.15073  1.0000
  C   C34       1.0  0.54  0.8986100000000002  0.03774  1.0000
  C   C35       1.0  0.6420900000000002  0.59853  0.34217000000000003  1.0000
  C   C36       1.0  0.52121  0.6525600000000001  0.35853  1.0000
  C   C37       1.0  0.040349999999999976  0.3690800000000001  0.88131  1.0000
  C   C38       1.0  0.62684  0.4199300000000002  0.81001  1.0000
  C   C39       1.0  0.8744299999999999  0.7543  0.89089  1.0000
  C   C40       1.0  0.93499  0.85961  0.86638  1.0000
  C   C41       1.0  0.8578899999999999  0.50873  0.7745400000000001  1.0000
  C   C42       1.0  0.9154  0.6160399999999999  0.7499700000000001  1.0000
  C   C43       1.0  0.6538  0.75401  0.89911  1.0000
  C   C44       1.0  0.59058  0.6513  0.9072  1.0000
  C   C45       1.0  0.11312  0.61606  0.6502  1.0000
  C   C46       1.0  0.16573000000000002  0.60017  0.75945  1.0000
  C   C47       1.0  0.9149399999999999  0.87026  0.55597  1.0000
  C   C48       1.0  0.8842800000000001  0.7523200000000002  0.58415  1.0000
  C   C49       1.0  0.68216  0.99781  0.72979  1.0000
  C   C50       1.0  0.62887  0.88937  0.73583  1.0000
  C   C51       1.0  0.99391  0.15073  0.8462  1.0000
  C   C52       1.0  0.03999999999999999  0.03773999999999997  0.8986100000000001  1.0000
  C   C53       1.0  0.14208  0.34216  0.59853  1.0000
  C   C54       1.0  0.021210000000000007  0.35853  0.65256  1.0000
  C   C55       1.0  0.45965  0.11869000000000002  0.63092  1.0000
  C   C56       1.0  0.8731600000000002  0.18998999999999996  0.58007  1.0000
  C   C57       1.0  0.62557  0.1091  0.2457  1.0000
  C   C58       1.0  0.56501  0.13361  0.14039  1.0000
  C   C59       1.0  0.64211  0.22546000000000005  0.49127000000000004  1.0000
  C   C60       1.0  0.5846  0.25002  0.3839600000000001  1.0000
  C   C61       1.0  0.8462  0.10088  0.24598  1.0000
  C   C62       1.0  0.90942  0.09279999999999998  0.3487  1.0000
  C   C63       1.0  0.3868800000000001  0.3498  0.38393  1.0000
  C   C64       1.0  0.33427000000000007  0.24054000000000003  0.39982  1.0000
  C   C65       1.0  0.5850600000000002  0.4440200000000001  0.12974  1.0000
  C   C66       1.0  0.61572  0.41585  0.24767  1.0000
  C   C67       1.0  0.81784  0.27021  0.00219  1.0000
  C   C68       1.0  0.87113  0.26416  0.11063000000000002  1.0000
  C   C69       1.0  0.5060899999999999  0.15379999999999996  0.84927  1.0000
  C   C70       1.0  0.45999999999999996  0.10138999999999997  0.9622500000000002  1.0000
  C   C71       1.0  0.3579100000000001  0.40146999999999994  0.65783  1.0000
  C   C72       1.0  0.47877999999999993  0.34743000000000007  0.64147  1.0000
  N   N1        1.0  0.07074  0.20504  0.08084  1.0000
  N   N2        1.0  0.15174000000000007  0.20767  0.17623  1.0000
  N   N3        1.0  0.11122999999999998  0.1399  0.19148  1.0000
  N   N4        1.0  0.15245  0.31298  0.07201  1.0000
  N   N5        1.0  0.06777000000000001  0.46233  0.23893  1.0000
  N   N6        1.0  0.20087  0.43277000000000004  0.22824  1.0000
  N   N7        1.0  0.16321000000000002  0.36365  0.24458999999999997  1.0000
  N   N8        1.0  0.15411  0.56781  0.21399  1.0000
  N   N9        1.0  0.40713  0.28404  0.05812  1.0000
  N   N10       1.0  0.3137700000000001  0.28407  0.15924  1.0000
  N   N11       1.0  0.35511  0.35049  0.15296  1.0000
  N   N12       1.0  0.32372  0.1754  0.08859  1.0000
  N   N13       1.0  0.8856700000000002  0.43172  0.28095  1.0000
  N   N14       1.0  0.83883  0.32632  0.35133  1.0000
  N   N15       1.0  0.80556  0.33644  0.2804  1.0000
  N   N16       1.0  0.9355400000000005  0.39058  0.40743  1.0000
  N   N17       1.0  0.08291  0.19731  0.47489  1.0000
  N   N18       1.0  0.11589000000000003  0.1384  0.37018  1.0000
  N   N19       1.0  0.13628  0.21456000000000003  0.35254  1.0000
  N   N20       1.0  0.05546  0.06341999999999999  0.48399  1.0000
  N   N21       1.0  0.3909400000000001  0.033590000000000016  0.26075  1.0000
  N   N22       1.0  0.25736  0.057870000000000005  0.27879  1.0000
  N   N23       1.0  0.29223  0.12781999999999996  0.2753  1.0000
  N   N24       1.0  0.30633  0.92646  0.26801  1.0000
  N   N25       1.0  0.9867099999999998  0.92319  0.17021  1.0000
  N   N26       1.0  0.99003  0.84445  0.08051  1.0000
  N   N27       1.0  0.9606200000000003  0.91751  0.04692  1.0000
  N   N28       1.0  0.04048000000000001  0.78955  0.20221  1.0000
  N   N29       1.0  0.9314700000000004  0.68971  0.3906  1.0000
  N   N30       1.0  0.85965  0.5938400000000003  0.36741  1.0000
  N   N31       1.0  0.9381800000000003  0.58395  0.33297  1.0000
  N   N32       1.0  0.79239  0.686  0.44588  1.0000
  N   N33       1.0  0.4292599999999999  0.9191500000000001  0.79495  1.0000
  N   N34       1.0  0.34825999999999996  0.8237600000000002  0.7923200000000001  1.0000
  N   N35       1.0  0.38877  0.8085199999999999  0.86009  1.0000
  N   N36       1.0  0.3475500000000001  0.92798  0.68702  1.0000
  N   N37       1.0  0.43223  0.76106  0.53766  1.0000
  N   N38       1.0  0.29912  0.77176  0.56723  1.0000
  N   N39       1.0  0.33679  0.75541  0.63635  1.0000
  N   N40       1.0  0.3458900000000001  0.786  0.43219  1.0000
  N   N41       1.0  0.09286000000000003  0.94187  0.71596  1.0000
  N   N42       1.0  0.18622999999999992  0.8407600000000001  0.71592  1.0000
  N   N43       1.0  0.14488999999999996  0.84703  0.6495100000000001  1.0000
  N   N44       1.0  0.17628  0.91141  0.8246  1.0000
  N   N45       1.0  0.61433  0.71905  0.56828  1.0000
  N   N46       1.0  0.66117  0.64867  0.67368  1.0000
  N   N47       1.0  0.69444  0.7196  0.66356  1.0000
  N   N48       1.0  0.56446  0.59257  0.60941  1.0000
  N   N49       1.0  0.41709  0.52511  0.80269  1.0000
  N   N50       1.0  0.38410999999999995  0.62982  0.8615900000000001  1.0000
  N   N51       1.0  0.36372000000000015  0.64746  0.78544  1.0000
  N   N52       1.0  0.4445400000000002  0.516  0.93658  1.0000
  N   N53       1.0  0.10906000000000003  0.73925  0.9664  1.0000
  N   N54       1.0  0.24264000000000002  0.7212  0.9421299999999999  1.0000
  N   N55       1.0  0.20777  0.7247  0.87218  1.0000
  N   N56       1.0  0.19367  0.7319900000000001  0.07354  1.0000
  N   N57       1.0  0.5132900000000001  0.8297800000000001  0.07681  1.0000
  N   N58       1.0  0.50997  0.91949  0.15554  1.0000
  N   N59       1.0  0.53938  0.95308  0.08249  1.0000
  N   N60       1.0  0.45951  0.7977900000000001  0.21044  1.0000
  N   N61       1.0  0.56852  0.6094  0.31029  1.0000
  N   N62       1.0  0.64035  0.63259  0.40615  1.0000
  N   N63       1.0  0.5618200000000002  0.66703  0.41604  1.0000
  N   N64       1.0  0.7076100000000002  0.5541200000000001  0.31399  1.0000
  N   N65       1.0  0.9292600000000002  0.7949500000000002  0.91915  1.0000
  N   N66       1.0  0.8482600000000003  0.79232  0.82376  1.0000
  N   N67       1.0  0.88877  0.86009  0.80852  1.0000
  N   N68       1.0  0.8475499999999999  0.68702  0.92798  1.0000
  N   N69       1.0  0.93223  0.53766  0.76106  1.0000
  N   N70       1.0  0.7991200000000003  0.56723  0.77176  1.0000
  N   N71       1.0  0.8367900000000001  0.63635  0.7554100000000001  1.0000
  N   N72       1.0  0.84589  0.43219  0.786  1.0000
  N   N73       1.0  0.5928600000000003  0.71596  0.94187  1.0000
  N   N74       1.0  0.68623  0.7159200000000001  0.84076  1.0000
  N   N75       1.0  0.6448900000000002  0.64951  0.84703  1.0000
  N   N76       1.0  0.6762799999999999  0.8246000000000001  0.91141  1.0000
  N   N77       1.0  0.11433000000000003  0.56828  0.71905  1.0000
  N   N78       1.0  0.16117  0.6736800000000002  0.64867  1.0000
  N   N79       1.0  0.19444  0.66356  0.7196  1.0000
  N   N80       1.0  0.06446  0.60941  0.59257  1.0000
  N   N81       1.0  0.91709  0.80269  0.52511  1.0000
  N   N82       1.0  0.88411  0.86159  0.62982  1.0000
  N   N83       1.0  0.86372  0.7854400000000001  0.64746  1.0000
  N   N84       1.0  0.9445400000000002  0.9365799999999999  0.516  1.0000
  N   N85       1.0  0.60906  0.9663999999999999  0.73925  1.0000
  N   N86       1.0  0.74264  0.94213  0.7212  1.0000
  N   N87       1.0  0.7077700000000002  0.87218  0.7247  1.0000
  N   N88       1.0  0.6936700000000002  0.07354  0.73199  1.0000
  N   N89       1.0  0.01329  0.07681  0.82978  1.0000
  N   N90       1.0  0.009969999999999998  0.15554  0.91949  1.0000
  N   N91       1.0  0.039380000000000005  0.08249  0.9530800000000001  1.0000
  N   N92       1.0  0.9595099999999999  0.21044  0.79779  1.0000
  N   N93       1.0  0.06852000000000004  0.31028  0.6094  1.0000
  N   N94       1.0  0.14035000000000003  0.40615  0.63259  1.0000
  N   N95       1.0  0.06182000000000004  0.41604  0.66703  1.0000
  N   N96       1.0  0.20761000000000002  0.31399  0.55412  1.0000
  N   N97       1.0  0.57074  0.08084  0.20504  1.0000
  N   N98       1.0  0.65174  0.17623  0.20767  1.0000
  N   N99       1.0  0.61123  0.19148000000000004  0.1399  1.0000
  N   N100      1.0  0.65245  0.07201  0.31298  1.0000
  N   N101      1.0  0.56777  0.23893  0.46233  1.0000
  N   N102      1.0  0.70088  0.22824000000000003  0.43277  1.0000
  N   N103      1.0  0.66321  0.24459000000000003  0.36365  1.0000
  N   N104      1.0  0.65411  0.21399  0.56781  1.0000
  N   N105      1.0  0.90714  0.058119999999999984  0.28404  1.0000
  N   N106      1.0  0.81377  0.15924000000000002  0.28407  1.0000
  N   N107      1.0  0.85511  0.15296  0.35049  1.0000
  N   N108      1.0  0.82372  0.08859  0.1754  1.0000
  N   N109      1.0  0.38567  0.28095  0.43172000000000005  1.0000
  N   N110      1.0  0.33883000000000013  0.35133  0.32632  1.0000
  N   N111      1.0  0.30556000000000005  0.2804  0.33644  1.0000
  N   N112      1.0  0.43554  0.4074300000000002  0.39058  1.0000
  N   N113      1.0  0.58291  0.47489  0.19731  1.0000
  N   N114      1.0  0.61589  0.37018  0.1384  1.0000
  N   N115      1.0  0.63628  0.35254  0.21456  1.0000
  N   N116      1.0  0.55546  0.4839899999999999  0.06342  1.0000
  N   N117      1.0  0.89094  0.26075  0.03359000000000001  1.0000
  N   N118      1.0  0.75736  0.27879  0.05787  1.0000
  N   N119      1.0  0.79223  0.2753  0.12782  1.0000
  N   N120      1.0  0.80633  0.26801  0.92645  1.0000
  N   N121      1.0  0.4867099999999999  0.17020999999999997  0.9231800000000001  1.0000
  N   N122      1.0  0.49003  0.08051  0.84445  1.0000
  N   N123      1.0  0.46062000000000003  0.04692000000000002  0.91751  1.0000
  N   N124      1.0  0.54048  0.20220000000000002  0.78955  1.0000
  N   N125      1.0  0.4314700000000001  0.3906  0.68971  1.0000
  N   N126      1.0  0.35965000000000014  0.36741  0.59384  1.0000
  N   N127      1.0  0.43818  0.33297  0.58395  1.0000
  N   N128      1.0  0.29239  0.44588  0.686  1.0000
  O   O1        1.0  0.07513000000000003  0.9777800000000001  0.31834  1.0000
  O   O2        1.0  0.9160899999999998  0.8900700000000001  0.35986  1.0000
  O   O3        1.0  0.018970000000000008  0.65139  0.15138  1.0000
  O   O4        1.0  0.92001  0.57142  0.14801  1.0000
  O   O5        1.0  0.9367  0.67019  0.05379  1.0000
  O   O6        1.0  0.38401  0.51234  0.23397000000000004  1.0000
  O   O7        1.0  0.42904  0.6286  0.19014  1.0000
  O   O8        1.0  0.31437  0.5984800000000001  0.14778  1.0000
  O   O9        1.0  0.42487000000000025  0.68166  0.02222  1.0000
  O   O10       1.0  0.58391  0.64014  0.10993  1.0000
  O   O11       1.0  0.48102000000000006  0.84862  0.3486  1.0000
  O   O12       1.0  0.5799900000000002  0.8519900000000002  0.42857  1.0000
  O   O13       1.0  0.56329  0.94621  0.32981  1.0000
  O   O14       1.0  0.11599000000000004  0.76603  0.48766  1.0000
  O   O15       1.0  0.07096  0.80986  0.3714  1.0000
  O   O16       1.0  0.18562  0.85221  0.40152  1.0000
  O   O17       1.0  0.92487  0.022219999999999983  0.6816500000000001  1.0000
  O   O18       1.0  0.08391000000000001  0.10993000000000001  0.64014  1.0000
  O   O19       1.0  0.9810300000000001  0.3486  0.84862  1.0000
  O   O20       1.0  0.07999000000000002  0.42857  0.85199  1.0000
  O   O21       1.0  0.06329  0.32981  0.9462099999999999  1.0000
  O   O22       1.0  0.61599  0.48766  0.76603  1.0000
  O   O23       1.0  0.5709600000000001  0.37139  0.80986  1.0000
  O   O24       1.0  0.6856200000000002  0.40152000000000004  0.85221  1.0000
  O   O25       1.0  0.57513  0.31833999999999996  0.9777800000000001  1.0000
  O   O26       1.0  0.41609  0.35986  0.89007  1.0000
  O   O27       1.0  0.51897  0.15138  0.65139  1.0000
  O   O28       1.0  0.42001  0.14801  0.57142  1.0000
  O   O29       1.0  0.4367  0.053790000000000004  0.67019  1.0000
  O   O30       1.0  0.8840100000000002  0.23396999999999998  0.51234  1.0000
  O   O31       1.0  0.9290399999999999  0.19014  0.6286  1.0000
  O   O32       1.0  0.81438  0.14778  0.59847  1.0000
