data_image0
_chemical_formula_structural       Cu12H56C120O48
_chemical_formula_sum              "Cu12 H56 C120 O48"
_cell_length_a       22.72738
_cell_length_b       22.93841
_cell_length_c       23.12056
_cell_angle_alpha    66.52393000000001
_cell_angle_beta     82.49211000000001
_cell_angle_gamma    118.62386

_space_group_name_H-M_alt    "P 1"
_space_group_IT_number       1

loop_
  _space_group_symop_operation_xyz
  'x, y, z'

loop_
  _atom_site_type_symbol
  _atom_site_label
  _atom_site_symmetry_multiplicity
  _atom_site_fract_x
  _atom_site_fract_y
  _atom_site_fract_z
  _atom_site_occupancy
  Cu  Cu1       1.0  0.50028  0.54836  0.45263  1.0000
  Cu  Cu2       1.0  0.49987000000000004  0.4510100000000001  0.54811  1.0000
  Cu  Cu3       1.0  0.038749999999999965  0.40784  0.15277  1.0000
  Cu  Cu4       1.0  0.9601100000000001  0.30592  0.13211  1.0000
  Cu  Cu5       1.0  0.96197  0.84587  0.06629  1.0000
  Cu  Cu6       1.0  0.86431  0.8630400000000003  0.08502999999999997  1.0000
  Cu  Cu7       1.0  0.13573  0.5547899999999999  0.50066  1.0000
  Cu  Cu8       1.0  0.038269999999999936  0.4723999999999999  0.6161  1.0000
  Cu  Cu9       1.0  0.45643  0.48752  0.1171  1.0000
  Cu  Cu10      1.0  0.46231  0.38345  0.11849999999999998  1.0000
  Cu  Cu11      1.0  0.54385  0.9249600000000001  0.47155999999999987  1.0000
  Cu  Cu12      1.0  0.53782  0.919  0.58003  1.0000
  H   H1        1.0  0.9323299999999999  0.50956  0.15318999999999997  1.0000
  H   H2        1.0  0.82431  0.38286  0.061439999999999995  1.0000
  H   H3        1.0  0.76328  0.45078  0.03493999999999999  1.0000
  H   H4        1.0  0.8690700000000001  0.57435  0.13074  1.0000
  H   H5        1.0  0.8772600000000002  0.66709  0.04518  1.0000
  H   H6        1.0  0.68819  0.66968  0.06364  1.0000
  H   H7        1.0  0.67333  0.46775  0.08419  1.0000
  H   H8        1.0  0.9383099999999999  0.9630599999999999  0.20846  1.0000
  H   H9        1.0  0.14067  0.04338000000000001  0.06590999999999998  1.0000
  H   H10       1.0  0.20900000000000002  0.15199000000000001  0.08598999999999998  1.0000
  H   H11       1.0  0.006890000000000007  0.06591000000000001  0.23429  1.0000
  H   H12       1.0  0.25229000000000007  0.21312000000000003  0.15632  1.0000
  H   H13       1.0  0.22768999999999998  0.3896699999999999  0.15154  1.0000
  H   H14       1.0  0.051840000000000025  0.19015000000000007  0.16137999999999994  1.0000
  H   H15       1.0  0.17580999999999994  0.61152  0.93997  1.0000
  H   H16       1.0  0.06885000000000004  0.4079400000000001  0.92514  1.0000
  H   H17       1.0  0.13103999999999993  0.4926099999999999  0.79746  1.0000
  H   H18       1.0  0.23618  0.69742  0.81162  1.0000
  H   H19       1.0  0.3269099999999999  0.73517  0.7086299999999999  1.0000
  H   H20       1.0  0.31196  0.7472299999999998  0.52106  1.0000
  H   H21       1.0  0.1231799999999999  0.5721599999999998  0.71183  1.0000
  H   H22       1.0  0.8590600000000002  0.2958  0.59634  1.0000
  H   H23       1.0  0.06220000000000001  0.36191  0.4685  1.0000
  H   H24       1.0  0.9936900000000001  0.26752000000000004  0.43428999999999995  1.0000
  H   H25       1.0  0.79084  0.20812000000000005  0.5555599999999999  1.0000
  H   H26       1.0  0.9462999999999999  0.29216  0.35873  1.0000
  H   H27       1.0  0.7712  0.11958000000000003  0.34036999999999995  1.0000
  H   H28       1.0  0.74891  0.09528000000000006  0.53809  1.0000
  H   H29       1.0  0.9687400000000002  0.09570000000000012  0.9184099999999997  1.0000
  H   H30       1.0  0.09675999999999998  0.030199999999999956  0.84598  1.0000
  H   H31       1.0  0.1761600000000001  0.1619700000000001  0.7395999999999999  1.0000
  H   H32       1.0  0.05171000000000008  0.22983000000000015  0.8155699999999998  1.0000
  H   H33       1.0  0.0848100000000001  0.3075500000000001  0.7098499999999998  1.0000
  H   H34       1.0  0.28905000000000003  0.49381000000000014  0.53625  1.0000
  H   H35       1.0  0.2652999999999999  0.2880999999999999  0.68439  1.0000
  H   H36       1.0  0.55488  0.64283  0.8923899999999999  1.0000
  H   H37       1.0  0.4440500000000001  0.41392  0.9215999999999999  1.0000
  H   H38       1.0  0.4620600000000002  0.4708700000000002  0.7991599999999998  1.0000
  H   H39       1.0  0.58049  0.70157  0.76848  1.0000
  H   H40       1.0  0.54162  0.72822  0.69286  1.0000
  H   H41       1.0  0.54587  0.71995  0.51047  1.0000
  H   H42       1.0  0.5205699999999999  0.53333  0.68736  1.0000
  H   H43       1.0  0.55636  0.13692999999999997  0.52629  1.0000
  H   H44       1.0  0.4446300000000001  0.05187000000000004  0.4115599999999999  1.0000
  H   H45       1.0  0.41904  0.15116  0.37726  1.0000
  H   H46       1.0  0.53769  0.24176000000000003  0.48673  1.0000
  H   H47       1.0  0.47786999999999996  0.29327  0.48402999999999996  1.0000
  H   H48       1.0  0.45504  0.44791  0.32305  1.0000
  H   H49       1.0  0.4592599999999999  0.26829  0.31048  1.0000
  H   H50       1.0  0.8725100000000002  0.48278000000000015  0.5620099999999999  1.0000
  H   H51       1.0  0.06169000000000008  0.6926400000000001  0.38326999999999994  1.0000
  H   H52       1.0  0.98236  0.72025  0.33183999999999997  1.0000
  H   H53       1.0  0.79186  0.5054999999999997  0.50889  1.0000
  H   H54       1.0  0.73674  0.55841  0.47838999999999987  1.0000
  H   H55       1.0  0.7109100000000002  0.67346  0.29541  1.0000
  H   H56       1.0  0.91322  0.69904  0.27866  1.0000
  C   C1        1.0  0.63699  0.57105  0.43292  1.0000
  C   C2        1.0  0.52573  0.5794800000000001  0.55892  1.0000
  C   C3        1.0  0.36328999999999995  0.42998999999999993  0.56706  1.0000
  C   C4        1.0  0.47469  0.41816  0.44344  1.0000
  C   C5        1.0  0.88185  0.4426399999999999  0.10856999999999997  1.0000
  C   C6        1.0  0.83369  0.42529999999999996  0.07583  1.0000
  C   C7        1.0  0.7997  0.4632299999999999  0.06138  1.0000
  C   C8        1.0  0.81336  0.51861  0.07974  1.0000
  C   C9        1.0  0.86074  0.53414  0.11379  1.0000
  C   C10       1.0  0.89522  0.4973  0.12751  1.0000
  C   C11       1.0  0.8201700000000001  0.63774  0.05290999999999999  1.0000
  C   C12       1.0  0.78847  0.67725  0.05212  1.0000
  C   C13       1.0  0.71482  0.64133  0.06189999999999999  1.0000
  C   C14       1.0  0.67522  0.56678  0.07094  1.0000
  C   C15       1.0  0.70727  0.52703  0.07341  1.0000
  C   C16       1.0  0.77983  0.56137  0.06646  1.0000
  C   C17       1.0  0.03533999999999999  0.99862  0.13435  1.0000
  C   C18       1.0  0.11200000000000002  0.04898000000000002  0.10263999999999997  1.0000
  C   C19       1.0  0.15016  0.10897  0.11465999999999998  1.0000
  C   C20       1.0  0.11217000000000002  0.11797000000000002  0.15961  1.0000
  C   C21       1.0  0.036030000000000006  0.061710000000000015  0.19663  1.0000
  C   C22       1.0  0.99757  0.003670000000000025  0.18308999999999997  1.0000
  C   C23       1.0  0.21791000000000002  0.23345  0.15749  1.0000
  C   C24       1.0  0.24650000000000002  0.3047  0.15447  1.0000
  C   C25       1.0  0.20466  0.33385  0.1552  1.0000
  C   C26       1.0  0.13375  0.2908200000000001  0.15871999999999994  1.0000
  C   C27       1.0  0.10589000000000001  0.22035000000000002  0.16154999999999994  1.0000
  C   C28       1.0  0.14682000000000003  0.19028000000000003  0.16129999999999997  1.0000
  C   C29       1.0  0.11849000000000008  0.5048700000000002  0.93967  1.0000
  C   C30       1.0  0.10549000000000008  0.47123000000000015  0.8995699999999999  1.0000
  C   C31       1.0  0.13966  0.51873  0.82856  1.0000
  C   C32       1.0  0.18676  0.60067  0.79613  1.0000
  C   C33       1.0  0.20027000000000011  0.6340400000000002  0.83657  1.0000
  C   C34       1.0  0.16640000000000005  0.5864000000000001  0.9080899999999998  1.0000
  C   C35       1.0  0.29315  0.71347  0.68287  1.0000
  C   C36       1.0  0.3253599999999999  0.7501  0.6112899999999999  1.0000
  C   C37       1.0  0.28570999999999996  0.72107  0.57601  1.0000
  C   C38       1.0  0.21206999999999998  0.6568699999999998  0.61332  1.0000
  C   C39       1.0  0.18020000000000003  0.6220000000000001  0.68442  1.0000
  C   C40       1.0  0.2205  0.64768  0.72045  1.0000
  C   C41       1.0  0.9645900000000001  0.3355500000000001  0.53313  1.0000
  C   C42       1.0  0.002829999999999993  0.32683  0.48835  1.0000
  C   C43       1.0  0.9644900000000001  0.27486  0.46883  1.0000
  C   C44       1.0  0.88807  0.23395  0.49052  1.0000
  C   C45       1.0  0.8498699999999999  0.23937999999999998  0.53869  1.0000
  C   C46       1.0  0.88787  0.28919  0.56073  1.0000
  C   C47       1.0  0.89292  0.23676  0.38344  1.0000
  C   C48       1.0  0.8650300000000001  0.2096  0.3424  1.0000
  C   C49       1.0  0.79448  0.14088999999999996  0.37172  1.0000
  C   C50       1.0  0.75325  0.10071000000000001  0.44236999999999993  1.0000
  C   C51       1.0  0.7822700000000001  0.12813  0.48345  1.0000
  C   C52       1.0  0.85298  0.19661000000000003  0.45412  1.0000
  C   C53       1.0  0.07898999999999999  0.45222999999999997  0.015339999999999998  1.0000
  C   C54       1.0  0.08592  0.31805  0.15645  1.0000
  C   C55       1.0  0.9129  0.25864999999999994  0.26770999999999995  1.0000
  C   C56       1.0  0.92047  0.40524999999999994  0.12350999999999998  1.0000
  C   C57       1.0  0.027470000000000085  0.05432000000000012  0.8889799999999999  1.0000
  C   C58       1.0  0.08672999999999999  0.07402999999999998  0.83834  1.0000
  C   C59       1.0  0.13169999999999998  0.14858999999999994  0.77893  1.0000
  C   C60       1.0  0.12014000000000005  0.20642000000000013  0.7688499999999998  1.0000
  C   C61       1.0  0.06082000000000007  0.1859600000000001  0.8204699999999998  1.0000
  C   C62       1.0  0.014449999999999992  0.11087999999999999  0.87903  1.0000
  C   C63       1.0  0.14090999999999995  0.33079  0.68239  1.0000
  C   C64       1.0  0.18424000000000004  0.40530000000000005  0.6222599999999999  1.0000
  C   C65       1.0  0.2558700000000001  0.43648000000000003  0.58349  1.0000
  C   C66       1.0  0.28485000000000005  0.39393000000000006  0.6067399999999998  1.0000
  C   C67       1.0  0.24109999999999998  0.31938  0.66737  1.0000
  C   C68       1.0  0.16805000000000003  0.28605  0.7056899999999998  1.0000
  C   C69       1.0  0.49684000000000006  0.52453  0.91527  1.0000
  C   C70       1.0  0.47296  0.47684  0.88775  1.0000
  C   C71       1.0  0.4843  0.50949  0.81842  1.0000
  C   C72       1.0  0.5219300000000001  0.5909300000000001  0.7737499999999998  1.0000
  C   C73       1.0  0.54864  0.63824  0.8016699999999999  1.0000
  C   C74       1.0  0.5352599999999998  0.60579  0.8713  1.0000
  C   C75       1.0  0.5407  0.69822  0.6663  1.0000
  C   C76       1.0  0.5468800000000004  0.7327800000000002  0.5982799999999998  1.0000
  C   C77       1.0  0.54284  0.69472  0.56268  1.0000
  C   C78       1.0  0.5332  0.62255  0.5956  1.0000
  C   C79       1.0  0.52785  0.58913  0.6636799999999999  1.0000
  C   C80       1.0  0.5310500000000001  0.62614  0.70054  1.0000
  C   C81       1.0  0.50295  0.08852999999999991  0.47044  1.0000
  C   C82       1.0  0.46440000000000003  0.09347  0.42808  1.0000
  C   C83       1.0  0.45095  0.15021  0.40835  1.0000
  C   C84       1.0  0.47764  0.20575  0.42804999999999993  1.0000
  C   C85       1.0  0.51551  0.19943  0.4712  1.0000
  C   C86       1.0  0.5270800000000002  0.14118000000000003  0.4929499999999999  1.0000
  C   C87       1.0  0.47145  0.3104300000000001  0.43552  1.0000
  C   C88       1.0  0.467  0.37424  0.40751  1.0000
  C   C89       1.0  0.45796000000000014  0.3982700000000001  0.3451699999999999  1.0000
  C   C90       1.0  0.45411  0.35843  0.31131  1.0000
  C   C91       1.0  0.45986  0.29576  0.3395099999999999  1.0000
  C   C92       1.0  0.46860000000000007  0.27035  0.40182  1.0000
  C   C93       1.0  0.9720199999999999  0.58612  0.47596  1.0000
  C   C94       1.0  0.0025200000000000066  0.65259  0.41057  1.0000
  C   C95       1.0  0.95732  0.66707  0.38163  1.0000
  C   C96       1.0  0.8804300000000002  0.6145500000000002  0.41587999999999997  1.0000
  C   C97       1.0  0.8508100000000001  0.5480300000000001  0.48145999999999994  1.0000
  C   C98       1.0  0.8957  0.53439  0.51149  1.0000
  C   C99       1.0  0.75978  0.59522  0.42260999999999993  1.0000
  C   C100      1.0  0.7155300000000001  0.60983  0.3911999999999999  1.0000
  C   C101      1.0  0.74419  0.6600700000000002  0.31976999999999994  1.0000
  C   C102      1.0  0.81564  0.6917800000000001  0.27981999999999996  1.0000
  C   C103      1.0  0.85865  0.6749799999999998  0.31138  1.0000
  C   C104      1.0  0.83248  0.6283900000000001  0.3833499999999999  1.0000
  C   C105      1.0  0.98169  0.97635  0.95466  1.0000
  C   C106      1.0  0.8347100000000001  0.75244  0.04930999999999999  1.0000
  C   C107      1.0  0.84706  0.7458400000000001  0.2035  1.0000
  C   C108      1.0  0.9930900000000001  0.9432300000000001  0.11365999999999998  1.0000
  C   C109      1.0  0.006359999999999992  0.39758  0.54736  1.0000
  C   C110      1.0  0.15239999999999998  0.4500299999999999  0.59911  1.0000
  C   C111      1.0  0.16595  0.61618  0.58316  1.0000
  C   C112      1.0  0.018839999999999996  0.56739  0.50688  1.0000
  C   C113      1.0  0.5961  0.52377  0.08413  1.0000
  C   C114      1.0  0.4490799999999999  0.38393000000000005  0.24245999999999998  1.0000
  C   C115      1.0  0.32352  0.35045  0.14746  1.0000
  C   C116      1.0  0.4815800000000002  0.4899400000000002  0.9901199999999998  1.0000
  C   C117      1.0  0.67634  0.029950000000000067  0.47460999999999987  1.0000
  C   C118      1.0  0.51804  0.028209999999999995  0.49099  1.0000
  C   C119      1.0  0.4042899999999999  0.81692  0.57551  1.0000
  C   C120      1.0  0.5524500000000001  0.8075100000000002  0.5676699999999999  1.0000
  O   O1        1.0  0.60459  0.5982900000000001  0.40288  1.0000
  O   O2        1.0  0.60753  0.51281  0.49464  1.0000
  O   O3        1.0  0.5256200000000001  0.6096900000000001  0.49888999999999994  1.0000
  O   O4        1.0  0.51858  0.51461  0.59094  1.0000
  O   O5        1.0  0.3958099999999999  0.49275999999999986  0.50768  1.0000
  O   O6        1.0  0.39248  0.3967899999999999  0.59505  1.0000
  O   O7        1.0  0.47522000000000003  0.47908  0.41402999999999995  1.0000
  O   O8        1.0  0.48154  0.39214  0.50077  1.0000
  O   O9        1.0  0.09221000000000004  0.48251  0.05222999999999999  1.0000
  O   O10       1.0  0.03320999999999997  0.37925  0.03789  1.0000
  O   O11       1.0  0.10984999999999998  0.38254  0.15379  1.0000
  O   O12       1.0  0.023649999999999997  0.27346  0.15714  1.0000
  O   O13       1.0  0.9749899999999999  0.32108000000000003  0.24926  1.0000
  O   O14       1.0  0.8892700000000001  0.23576000000000005  0.22825  1.0000
  O   O15       1.0  0.9655899999999997  0.42897  0.15073  1.0000
  O   O16       1.0  0.90702  0.35346000000000005  0.10833999999999999  1.0000
  O   O17       1.0  0.008530000000000036  0.93703  0.97049  1.0000
  O   O18       1.0  0.91979  0.95549  0.9915099999999999  1.0000
  O   O19       1.0  0.90017  0.77398  0.04247  1.0000
  O   O20       1.0  0.8072  0.78737  0.056999999999999995  1.0000
  O   O21       1.0  0.90604  0.76098  0.16773  1.0000
  O   O22       1.0  0.81251  0.7740300000000001  0.18014  1.0000
  O   O23       1.0  0.023550000000000064  0.91702  0.09181999999999997  1.0000
  O   O24       1.0  0.9297200000000001  0.92721  0.11805999999999998  1.0000
  O   O25       1.0  0.06664000000000002  0.46030000000000004  0.4980799999999999  1.0000
  O   O26       1.0  0.97847  0.3840799999999999  0.60703  1.0000
  O   O27       1.0  0.1839600000000001  0.50484  0.5355799999999998  1.0000
  O   O28       1.0  0.09598000000000004  0.42964000000000013  0.6442699999999999  1.0000
  O   O29       1.0  0.19542  0.63571  0.5216  1.0000
  O   O30       1.0  0.09888000000000013  0.5603400000000002  0.6246799999999999  1.0000
  O   O31       1.0  0.08420000000000007  0.6004900000000001  0.46635999999999994  1.0000
  O   O32       1.0  0.98922  0.51766  0.57176  1.0000
  O   O33       1.0  0.56218  0.55219  0.09471  1.0000
  O   O34       1.0  0.56791  0.45957  0.08514  1.0000
  O   O35       1.0  0.44036  0.43856999999999996  0.21709999999999996  1.0000
  O   O36       1.0  0.45563  0.34867000000000004  0.21345  1.0000
  O   O37       1.0  0.35155  0.41901  0.13739  1.0000
  O   O38       1.0  0.35622  0.31738999999999995  0.15069  1.0000
  O   O39       1.0  0.48049  0.52946  0.016349999999999996  1.0000
  O   O40       1.0  0.47034  0.42294  0.022749999999999992  1.0000
  O   O41       1.0  0.64832  0.010700000000000003  0.43505999999999995  1.0000
  O   O42       1.0  0.64372  0.9948199999999999  0.5399099999999999  1.0000
  O   O43       1.0  0.51912  0.0018400000000000256  0.45157  1.0000
  O   O44       1.0  0.52901  0.0073900000000000285  0.54648  1.0000
  O   O45       1.0  0.43834  0.8405100000000001  0.51353  1.0000
  O   O46       1.0  0.4321200000000001  0.84473  0.6109899999999999  1.0000
  O   O47       1.0  0.56082  0.84122  0.50482  1.0000
  O   O48       1.0  0.54656  0.83101  0.60862  1.0000
