data_image0
_chemical_formula_structural       Sc12H72C144O72
_chemical_formula_sum              "Sc12 H72 C144 O72"
_cell_length_a       8.88468
_cell_length_b       17.61614
_cell_length_c       31.35574
_cell_angle_alpha    87.96007
_cell_angle_beta     81.85138999999998
_cell_angle_gamma    75.40811

_space_group_name_H-M_alt    "P 1"
_space_group_IT_number       1

loop_
  _space_group_symop_operation_xyz
  'x, y, z'

loop_
  _atom_site_type_symbol
  _atom_site_label
  _atom_site_symmetry_multiplicity
  _atom_site_fract_x
  _atom_site_fract_y
  _atom_site_fract_z
  _atom_site_occupancy
  Sc  Sc1       1.0  0.7545200000000002  0.14894  0.8330499999999997  1.0000
  Sc  Sc2       1.0  0.2355000000000001  0.19083  0.8339799999999998  1.0000
  Sc  Sc3       1.0  0.09650000000000002  0.14884999999999998  0.1669  1.0000
  Sc  Sc4       1.0  0.5725400000000002  0.19122999999999996  0.16592  1.0000
  Sc  Sc5       1.0  0.8372500000000002  0.64871  0.6671199999999998  1.0000
  Sc  Sc6       1.0  0.31897999999999993  0.69091  0.66631  1.0000
  Sc  Sc7       1.0  0.51338  0.64866  0.33300999999999986  1.0000
  Sc  Sc8       1.0  0.9893799999999999  0.6908199999999999  0.33397  1.0000
  Sc  Sc9       1.0  0.42612000000000005  0.14824  0.5001899999999998  1.0000
  Sc  Sc10      1.0  0.17654  0.64777  0.9999099999999999  1.0000
  Sc  Sc11      1.0  0.9037999999999999  0.19165999999999994  0.4999899999999999  1.0000
  Sc  Sc12      1.0  0.65428  0.69163  0.9999699999999999  1.0000
  H   H1        1.0  0.8276800000000001  0.1497  0.7088299999999997  1.0000
  H   H2        1.0  0.85998  0.16348  0.6279999999999998  1.0000
  H   H3        1.0  0.3520800000000001  0.14447  0.6264099999999999  1.0000
  H   H4        1.0  0.3165600000000001  0.13906  0.7074999999999998  1.0000
  H   H5        1.0  0.12706999999999996  0.91688  0.6134  1.0000
  H   H6        1.0  0.0041099999999999704  0.029449999999999997  0.56792  1.0000
  H   H7        1.0  0.6004700000000001  0.9359  0.5703399999999997  1.0000
  H   H8        1.0  0.7236500000000001  0.8236  0.61587  1.0000
  H   H9        1.0  0.78925  0.91832  0.7837399999999998  1.0000
  H   H10       1.0  0.2889399999999999  0.00509  0.78959  1.0000
  H   H11       1.0  0.27928000000000003  0.8876199999999999  0.74814  1.0000
  H   H12       1.0  0.7786399999999999  0.80036  0.7429299999999998  1.0000
  H   H13       1.0  0.93494  0.94243  0.9004599999999998  1.0000
  H   H14       1.0  0.06744999999999994  0.81985  0.93733  1.0000
  H   H15       1.0  0.45442  0.91916  0.9490999999999998  1.0000
  H   H16       1.0  0.32172  0.04201  0.91244  1.0000
  H   H17       1.0  0.17729000000000011  0.20665999999999995  0.95871  1.0000
  H   H18       1.0  0.13535999999999998  0.20287  0.039809999999999984  1.0000
  H   H19       1.0  0.022330000000000023  0.14971  0.29114  1.0000
  H   H20       1.0  0.9762999999999998  0.16354  0.37187  1.0000
  H   H21       1.0  0.5033600000000001  0.14436999999999997  0.3735799999999999  1.0000
  H   H22       1.0  0.54387  0.13912  0.29249  1.0000
  H   H23       1.0  0.95593  0.9172199999999998  0.38662999999999986  1.0000
  H   H24       1.0  0.96669  0.029569999999999996  0.43213  1.0000
  H   H25       1.0  0.46356  0.93592  0.42983  1.0000
  H   H26       1.0  0.45270000000000027  0.82381  0.38417  1.0000
  H   H27       1.0  0.29191000000000006  0.91819  0.21630999999999995  1.0000
  H   H28       1.0  0.70518  0.00517  0.21035999999999994  1.0000
  H   H29       1.0  0.8327899999999999  0.88781  0.25178  1.0000
  H   H30       1.0  0.42052000000000006  0.80035  0.2571199999999999  1.0000
  H   H31       1.0  0.12210000000000004  0.9428699999999999  0.09964999999999999  1.0000
  H   H32       1.0  0.11296000000000003  0.82006  0.06276  1.0000
  H   H33       1.0  0.6267  0.91865  0.05072999999999998  1.0000
  H   H34       1.0  0.63587  0.04168  0.08738999999999998  1.0000
  H   H35       1.0  0.61592  0.20678  0.0415  1.0000
  H   H36       1.0  0.6617499999999998  0.20279  0.96037  1.0000
  H   H37       1.0  0.78662  0.64982  0.79105  1.0000
  H   H38       1.0  0.73796  0.66368  0.8718399999999998  1.0000
  H   H39       1.0  0.22833000000000017  0.64463  0.8735899999999998  1.0000
  H   H40       1.0  0.27423000000000003  0.63925  0.7924599999999998  1.0000
  H   H41       1.0  0.99066  0.41694  0.8866199999999997  1.0000
  H   H42       1.0  0.8221299999999999  0.52944  0.93208  1.0000
  H   H43       1.0  0.4211  0.43572  0.92961  1.0000
  H   H44       1.0  0.5899800000000001  0.3235  0.88407  1.0000
  H   H45       1.0  0.8228  0.41791  0.7163899999999997  1.0000
  H   H46       1.0  0.3285200000000001  0.50493  0.7105299999999998  1.0000
  H   H47       1.0  0.27703000000000005  0.38745  0.75187  1.0000
  H   H48       1.0  0.7711400000000002  0.29996  0.75723  1.0000
  H   H49       1.0  0.08544999999999998  0.44213  0.59945  1.0000
  H   H50       1.0  0.25588000000000016  0.31971  0.5626499999999998  1.0000
  H   H51       1.0  0.65359  0.41998  0.55105  1.0000
  H   H52       1.0  0.4828800000000001  0.54259  0.5876799999999998  1.0000
  H   H53       1.0  0.38561  0.70692  0.54109  1.0000
  H   H54       1.0  0.4256  0.70305  0.4600199999999999  1.0000
  H   H55       1.0  0.56339  0.64976  0.2091  1.0000
  H   H56       1.0  0.5986600000000001  0.6637  0.12835  1.0000
  H   H57       1.0  0.12749999999999997  0.64467  0.12634999999999993  1.0000
  H   H58       1.0  0.08631000000000007  0.63931  0.20746999999999993  1.0000
  H   H59       1.0  0.5922900000000001  0.4172299999999999  0.11340999999999997  1.0000
  H   H60       1.0  0.6485800000000003  0.52957  0.06787  1.0000
  H   H61       1.0  0.14322  0.43575  0.07023999999999997  1.0000
  H   H62       1.0  0.08637000000000006  0.32378999999999997  0.11593  1.0000
  H   H63       1.0  0.7587200000000002  0.41804  0.2836  1.0000
  H   H64       1.0  0.16600000000000006  0.50525  0.2896299999999999  1.0000
  H   H65       1.0  0.3349000000000002  0.38785  0.24820999999999993  1.0000
  H   H66       1.0  0.9285400000000001  0.30018999999999996  0.24281999999999995  1.0000
  H   H67       1.0  0.47236  0.44231  0.40047  1.0000
  H   H68       1.0  0.4254999999999997  0.31971  0.43734  1.0000
  H   H69       1.0  0.92739  0.41903  0.44912999999999986  1.0000
  H   H70       1.0  0.9742699999999997  0.54188  0.4124799999999999  1.0000
  H   H71       1.0  0.9076400000000002  0.7069  0.4588699999999999  1.0000
  H   H72       1.0  0.8713600000000002  0.7031099999999999  0.5399399999999998  1.0000
  C   C1        1.0  0.048170000000000046  0.14121  0.76053  1.0000
  C   C2        1.0  0.9409799999999999  0.14979  0.69045  1.0000
  C   C3        1.0  0.9589  0.15704  0.6458099999999998  1.0000
  C   C4        1.0  0.10724000000000014  0.15566  0.6229099999999997  1.0000
  C   C5        1.0  0.23772000000000013  0.14703  0.6448799999999998  1.0000
  C   C6        1.0  0.21845000000000006  0.14319  0.68967  1.0000
  C   C7        1.0  0.07020000000000017  0.14429  0.7125299999999998  1.0000
  C   C8        1.0  0.12512000000000012  0.1646  0.5751299999999998  1.0000
  C   C9        1.0  0.7211400000000001  0.056019999999999986  0.53974  1.0000
  C   C10       1.0  0.93195  0.8639699999999998  0.6172  1.0000
  C   C11       1.0  0.012100000000000105  0.92181  0.60382  1.0000
  C   C12       1.0  0.94387  0.98415  0.5785999999999998  1.0000
  C   C13       1.0  0.7952299999999998  0.98919  0.5666  1.0000
  C   C14       1.0  0.7152  0.9312799999999999  0.58001  1.0000
  C   C15       1.0  0.7833400000000001  0.86908  0.60524  1.0000
  C   C16       1.0  0.005549999999999979  0.79605  0.64336  1.0000
  C   C17       1.0  0.5231700000000001  0.76816  0.7177299999999998  1.0000
  C   C18       1.0  0.67822  0.91098  0.77604  1.0000
  C   C19       1.0  0.53967  0.9689000000000001  0.7889999999999998  1.0000
  C   C20       1.0  0.39533000000000024  0.9600500000000001  0.7793099999999997  1.0000
  C   C21       1.0  0.3897200000000001  0.89482  0.7563699999999998  1.0000
  C   C22       1.0  0.52835  0.83722  0.7432299999999997  1.0000
  C   C23       1.0  0.67241  0.84542  0.7534099999999998  1.0000
  C   C24       1.0  0.5460900000000001  0.04063  0.81205  1.0000
  C   C25       1.0  0.04267000000000001  0.07167  0.88227  1.0000
  C   C26       1.0  0.04806000000000012  0.93671  0.9113899999999998  1.0000
  C   C27       1.0  0.12158000000000002  0.86885  0.93174  1.0000
  C   C28       1.0  0.2684900000000002  0.86265  0.94509  1.0000
  C   C29       1.0  0.3408600000000001  0.92513  0.9383899999999997  1.0000
  C   C30       1.0  0.26718000000000014  0.9931599999999999  0.9181399999999997  1.0000
  C   C31       1.0  0.12068999999999998  0.99914  0.90447  1.0000
  C   C32       1.0  0.34842  0.78888  0.96576  1.0000
  C   C33       1.0  0.44942000000000015  0.20025999999999994  0.9071599999999997  1.0000
  C   C34       1.0  0.42212000000000016  0.20418  0.95515  1.0000
  C   C35       1.0  0.27238  0.20574  0.97722  1.0000
  C   C36       1.0  0.24901000000000004  0.20416999999999996  0.022049999999999993  1.0000
  C   C37       1.0  0.81093  0.14123  0.23921  1.0000
  C   C38       1.0  0.90876  0.1499  0.30945  1.0000
  C   C39       1.0  0.8836899999999999  0.15707  0.35411  1.0000
  C   C40       1.0  0.7369300000000001  0.15543  0.3770699999999999  1.0000
  C   C41       1.0  0.6150900000000001  0.14695  0.35506999999999994  1.0000
  C   C42       1.0  0.63804  0.14330999999999994  0.3102399999999999  1.0000
  C   C43       1.0  0.78508  0.14445  0.28729  1.0000
  C   C44       1.0  0.71088  0.16376  0.42492  1.0000
  C   C45       1.0  0.22185999999999995  0.05583  0.46088  1.0000
  C   C46       1.0  0.20383  0.86409  0.38282  1.0000
  C   C47       1.0  0.06608000000000012  0.9220599999999998  0.39619  1.0000
  C   C48       1.0  0.07219000000000013  0.9842899999999999  0.4214699999999999  1.0000
  C   C49       1.0  0.21565000000000012  0.9891799999999998  0.43364999999999987  1.0000
  C   C50       1.0  0.35346  0.93133  0.4201199999999999  1.0000
  C   C51       1.0  0.3474000000000001  0.86921  0.39478  1.0000
  C   C52       1.0  0.19745999999999997  0.7961  0.35674  1.0000
  C   C53       1.0  0.7080800000000002  0.76791  0.28220999999999996  1.0000
  C   C54       1.0  0.41029000000000015  0.91096  0.22398  1.0000
  C   C55       1.0  0.4910299999999999  0.9688600000000002  0.21098  1.0000
  C   C56       1.0  0.6441300000000001  0.96002  0.2207  1.0000
  C   C57       1.0  0.7150600000000001  0.89484  0.24364999999999995  1.0000
  C   C58       1.0  0.634  0.8372099999999999  0.2568199999999999  1.0000
  C   C59       1.0  0.48168  0.8454499999999999  0.24664999999999998  1.0000
  C   C60       1.0  0.4135  0.04061  0.18786999999999995  1.0000
  C   C61       1.0  0.8839800000000001  0.07206  0.11765999999999997  1.0000
  C   C62       1.0  0.014850000000000012  0.93703  0.08867  1.0000
  C   C63       1.0  0.009740000000000066  0.8689999999999999  0.06834999999999997  1.0000
  C   C64       1.0  0.8693900000000001  0.86245  0.05491999999999998  1.0000
  C   C65       1.0  0.73417  0.92475  0.061499999999999985  1.0000
  C   C66       1.0  0.73938  0.99292  0.08172  1.0000
  C   C67       1.0  0.8794699999999999  0.9993  0.09546999999999997  1.0000
  C   C68       1.0  0.8644500000000002  0.78848  0.03427  1.0000
  C   C69       1.0  0.35005000000000014  0.20122  0.09301999999999998  1.0000
  C   C70       1.0  0.37354000000000004  0.20444999999999997  0.045019999999999984  1.0000
  C   C71       1.0  0.52179  0.20588  0.022949999999999995  1.0000
  C   C72       1.0  0.54681  0.20409999999999995  0.97812  1.0000
  C   C73       1.0  0.058320000000000115  0.64123  0.7394299999999998  1.0000
  C   C74       1.0  0.8815199999999999  0.6498599999999999  0.80946  1.0000
  C   C75       1.0  0.85477  0.6571199999999999  0.8540899999999998  1.0000
  C   C76       1.0  0.9801699999999999  0.65566  0.87701  1.0000
  C   C77       1.0  0.13261  0.64708  0.85507  1.0000
  C   C78       1.0  0.15824000000000008  0.64329  0.8102699999999998  1.0000
  C   C79       1.0  0.03286000000000014  0.64434  0.7873999999999998  1.0000
  C   C80       1.0  0.94981  0.66428  0.9248299999999998  1.0000
  C   C81       1.0  0.5110200000000004  0.55601  0.9602299999999998  1.0000
  C   C82       1.0  0.7994899999999999  0.36398  0.8828199999999998  1.0000
  C   C83       1.0  0.8661100000000004  0.42187  0.8962099999999998  1.0000
  C   C84       1.0  0.77255  0.48416  0.9214099999999997  1.0000
  C   C85       1.0  0.6119599999999998  0.48910999999999993  0.9334  1.0000
  C   C86       1.0  0.5454600000000001  0.43118  0.91995  1.0000
  C   C87       1.0  0.6389300000000002  0.369  0.8947299999999998  1.0000
  C   C88       1.0  0.89972  0.29611  0.85673  1.0000
  C   C89       1.0  0.4893299999999999  0.26825  0.78249  1.0000
  C   C90       1.0  0.70411  0.4105  0.72407  1.0000
  C   C91       1.0  0.5786499999999999  0.46856  0.71122  1.0000
  C   C92       1.0  0.42452000000000023  0.4598  0.7207899999999998  1.0000
  C   C93       1.0  0.39574000000000004  0.3946  0.74367  1.0000
  C   C94       1.0  0.5209799999999999  0.3370299999999999  0.75693  1.0000
  C   C95       1.0  0.6754100000000002  0.345  0.7467199999999998  1.0000
  C   C96       1.0  0.6080100000000002  0.54061  0.6885899999999998  1.0000
  C   C97       1.0  0.1739800000000002  0.5716  0.6179099999999997  1.0000
  C   C98       1.0  0.20945000000000005  0.4367099999999999  0.58856  1.0000
  C   C99       1.0  0.3039100000000001  0.36889  0.5682799999999998  1.0000
  C   C100      1.0  0.4642399999999999  0.36281  0.55502  1.0000
  C   C101      1.0  0.5293300000000001  0.42556  0.56171  1.0000
  C   C102      1.0  0.43469000000000013  0.49354  0.58191  1.0000
  C   C103      1.0  0.2746100000000001  0.4993000000000001  0.59556  1.0000
  C   C104      1.0  0.56485  0.28902  0.5343199999999998  1.0000
  C   C105      1.0  0.6044600000000001  0.70033  0.5931399999999998  1.0000
  C   C106      1.0  0.6266400000000003  0.70421  0.5450399999999997  1.0000
  C   C107      1.0  0.4995  0.70584  0.5226999999999998  1.0000
  C   C108      1.0  0.5215199999999999  0.7041299999999998  0.47782  1.0000
  C   C109      1.0  0.29999999999999993  0.64117  0.26074  1.0000
  C   C110      1.0  0.46843  0.64987  0.19068  1.0000
  C   C111      1.0  0.48828999999999995  0.65707  0.14602999999999994  1.0000
  C   C112      1.0  0.36464  0.65544  0.12299999999999997  1.0000
  C   C113      1.0  0.22065999999999997  0.64701  0.14493  1.0000
  C   C114      1.0  0.1984000000000001  0.64335  0.18974999999999995  1.0000
  C   C115      1.0  0.32243  0.64442  0.21272999999999995  1.0000
  C   C116      1.0  0.38634  0.6638  0.07512  1.0000
  C   C117      1.0  0.9334900000000002  0.55542  0.03905  1.0000
  C   C118      1.0  0.83638  0.36409  0.11721999999999999  1.0000
  C   C119      1.0  0.7120100000000001  0.4220699999999999  0.10383999999999997  1.0000
  C   C120      1.0  0.74342  0.4843  0.07854999999999997  1.0000
  C   C121      1.0  0.8991200000000001  0.48908999999999997  0.06636  1.0000
  C   C122      1.0  0.023339999999999993  0.43127  0.07993  1.0000
  C   C123      1.0  0.99187  0.36922  0.10527  1.0000
  C   C124      1.0  0.8041400000000001  0.29606  0.14329  1.0000
  C   C125      1.0  0.24127  0.26834  0.21763999999999994  1.0000
  C   C126      1.0  0.88479  0.41084  0.2759799999999999  1.0000
  C   C127      1.0  0.95226  0.46888  0.28897  1.0000
  C   C128      1.0  0.11512000000000011  0.46012  0.2793299999999999  1.0000
  C   C129      1.0  0.20905999999999997  0.39494  0.2564  1.0000
  C   C130      1.0  0.14139000000000002  0.3373  0.24315999999999993  1.0000
  C   C131      1.0  0.97899  0.3453399999999999  0.25334  1.0000
  C   C132      1.0  0.8509600000000002  0.54055  0.3120199999999999  1.0000
  C   C133      1.0  0.25349999999999995  0.57144  0.38226  1.0000
  C   C134      1.0  0.3540400000000002  0.4365699999999999  0.4114099999999999  1.0000
  C   C135      1.0  0.3279899999999999  0.36871  0.43176  1.0000
  C   C136      1.0  0.1739100000000001  0.36254  0.44513999999999987  1.0000
  C   C137      1.0  0.04574000000000005  0.4249799999999999  0.43844  1.0000
  C   C138      1.0  0.07179000000000003  0.49299  0.4181899999999999  1.0000
  C   C139      1.0  0.22592000000000007  0.49893999999999994  0.4045  1.0000
  C   C140      1.0  0.14720000000000005  0.28878  0.4658099999999999  1.0000
  C   C141      1.0  0.69522  0.70084  0.4067999999999999  1.0000
  C   C142      1.0  0.6692799999999999  0.70416  0.45492  1.0000
  C   C143      1.0  0.79481  0.70582  0.47726  1.0000
  C   C144      1.0  0.7743900000000004  0.70421  0.5221299999999998  1.0000
  O   O1        1.0  0.9274199999999999  0.12095  0.77919  1.0000
  O   O2        1.0  0.15152000000000002  0.15894999999999995  0.77986  1.0000
  O   O3        1.0  0.00041000000000005003  0.18987999999999994  0.55791  1.0000
  O   O4        1.0  0.2636700000000001  0.14666  0.5546599999999998  1.0000
  O   O5        1.0  0.5828199999999999  0.06021000000000001  0.53174  1.0000
  O   O6        1.0  0.7995800000000001  0.10563  0.52619  1.0000
  O   O7        1.0  0.92601  0.74643  0.65606  1.0000
  O   O8        1.0  0.14363000000000023  0.79117  0.6519099999999998  1.0000
  O   O9        1.0  0.39186000000000015  0.765  0.7070999999999997  1.0000
  O   O10       1.0  0.65073  0.7155  0.7080299999999998  1.0000
  O   O11       1.0  0.41712000000000005  0.09070999999999997  0.8244199999999998  1.0000
  O   O12       1.0  0.6798700000000002  0.04862  0.8182699999999998  1.0000
  O   O13       1.0  0.9099000000000002  0.07491  0.8704299999999998  1.0000
  O   O14       1.0  0.11250000000000006  0.12714  0.87664  1.0000
  O   O15       1.0  0.27678000000000014  0.73432  0.9715799999999998  1.0000
  O   O16       1.0  0.4840900000000001  0.78398  0.9761299999999998  1.0000
  O   O17       1.0  0.33024000000000014  0.22006  0.8871799999999997  1.0000
  O   O18       1.0  0.5910600000000001  0.17749  0.88913  1.0000
  O   O19       1.0  0.95236  0.12073  0.22086999999999996  1.0000
  O   O20       1.0  0.69088  0.15901  0.21942999999999993  1.0000
  O   O21       1.0  0.8097000000000001  0.19001999999999997  0.4419099999999999  1.0000
  O   O22       1.0  0.5924200000000001  0.14406  0.4456199999999999  1.0000
  O   O23       1.0  0.35507  0.059660000000000005  0.4698699999999999  1.0000
  O   O24       1.0  0.0932500000000001  0.10556999999999997  0.4737499999999999  1.0000
  O   O25       1.0  0.3260100000000001  0.74611  0.34409  1.0000
  O   O26       1.0  0.06411000000000006  0.79139  0.3482  1.0000
  O   O27       1.0  0.84308  0.7642  0.2926  1.0000
  O   O28       1.0  0.63212  0.71566  0.29199  1.0000
  O   O29       1.0  0.49267000000000005  0.09062  0.17554  1.0000
  O   O30       1.0  0.27191000000000004  0.04874  0.18155999999999994  1.0000
  O   O31       1.0  0.013420000000000029  0.07534999999999999  0.12955999999999995  1.0000
  O   O32       1.0  0.75854  0.12747  0.12318  1.0000
  O   O33       1.0  0.99107  0.73413  0.028689999999999993  1.0000
  O   O34       1.0  0.7341500000000001  0.78345  0.02373  1.0000
  O   O35       1.0  0.44744  0.22307  0.11288999999999998  1.0000
  O   O36       1.0  0.23313999999999996  0.17698  0.11119  1.0000
  O   O37       1.0  0.956  0.62094  0.7209  1.0000
  O   O38       1.0  0.1807500000000002  0.6589799999999998  0.7199599999999998  1.0000
  O   O39       1.0  0.8077500000000002  0.69013  0.9418499999999997  1.0000
  O   O40       1.0  0.06712999999999994  0.6453  0.94556  1.0000
  O   O41       1.0  0.3645600000000002  0.56038  0.9680799999999998  1.0000
  O   O42       1.0  0.5759000000000002  0.60554  0.9738699999999998  1.0000
  O   O43       1.0  0.83368  0.2462  0.84401  1.0000
  O   O44       1.0  0.04628000000000012  0.29134  0.8482299999999998  1.0000
  O   O45       1.0  0.34724  0.26509  0.79272  1.0000
  O   O46       1.0  0.60664  0.21558  0.79248  1.0000
  O   O47       1.0  0.49057000000000034  0.5915  0.67735  1.0000
  O   O48       1.0  0.7481500000000001  0.54832  0.68172  1.0000
  O   O49       1.0  0.029530000000000025  0.57443  0.62962  1.0000
  O   O50       1.0  0.2373100000000001  0.62727  0.62373  1.0000
  O   O51       1.0  0.49899  0.23458  0.5283299999999997  1.0000
  O   O52       1.0  0.7109400000000001  0.28402  0.5240299999999998  1.0000
  O   O53       1.0  0.4644600000000001  0.71995  0.61263  1.0000
  O   O54       1.0  0.7265700000000002  0.67775  0.6118499999999998  1.0000
  O   O55       1.0  0.4228500000000002  0.62071  0.2791299999999999  1.0000
  O   O56       1.0  0.16008000000000006  0.65899  0.28045  1.0000
  O   O57       1.0  0.5013  0.69059  0.05806999999999998  1.0000
  O   O58       1.0  0.28893  0.64378  0.054409999999999986  1.0000
  O   O59       1.0  0.0761  0.55845  0.030029999999999994  1.0000
  O   O60       1.0  0.8186099999999998  0.60572  0.02615  1.0000
  O   O61       1.0  0.92007  0.24616  0.15598  1.0000
  O   O62       1.0  0.6622699999999999  0.29131  0.15178  1.0000
  O   O63       1.0  0.38661000000000006  0.26502  0.20735  1.0000
  O   O64       1.0  0.17558000000000012  0.21589999999999995  0.20776999999999995  1.0000
  O   O65       1.0  0.91706  0.59077  0.32446999999999987  1.0000
  O   O66       1.0  0.70315  0.54847  0.3182299999999999  1.0000
  O   O67       1.0  0.39489  0.57454  0.37037  1.0000
  O   O68       1.0  0.13420000000000004  0.62699  0.3766199999999999  1.0000
  O   O69       1.0  0.26747999999999994  0.23423999999999998  0.47163  1.0000
  O   O70       1.0  0.006210000000000029  0.28386  0.47616  1.0000
  O   O71       1.0  0.8136400000000001  0.72225  0.38735999999999987  1.0000
  O   O72       1.0  0.5973100000000001  0.67729  0.3879  1.0000
