data_image0
_chemical_formula_structural       Cu8H96C160N8O40
_chemical_formula_sum              "Cu8 H96 C160 N8 O40"
_cell_length_a       27.8816
_cell_length_b       27.86443
_cell_length_c       30.01216
_cell_angle_alpha    117.67771
_cell_angle_beta     117.69749999999999
_cell_angle_gamma    89.80074000000002

_space_group_name_H-M_alt    "P 1"
_space_group_IT_number       1

loop_
  _space_group_symop_operation_xyz
  'x, y, z'

loop_
  _atom_site_type_symbol
  _atom_site_label
  _atom_site_symmetry_multiplicity
  _atom_site_fract_x
  _atom_site_fract_y
  _atom_site_fract_z
  _atom_site_occupancy
  Cu  Cu1       1.0  0.95922  0.004629999999999999  0.00934  1.0000
  Cu  Cu2       1.0  0.54999  0.00446  0.009090000000000003  1.0000
  Cu  Cu3       1.0  0.50449  0.45921  0.50934  1.0000
  Cu  Cu4       1.0  0.50423  0.05  0.5089  1.0000
  Cu  Cu5       1.0  0.4499200000000001  0.9959100000000001  0.9910900000000002  1.0000
  Cu  Cu6       1.0  0.040830000000000116  0.99536  0.9906200000000002  1.0000
  Cu  Cu7       1.0  0.4952100000000001  0.54073  0.49064  1.0000
  Cu  Cu8       1.0  0.4956  0.94991  0.49086  1.0000
  H   H1        1.0  0.1551  0.95628  0.12067  1.0000
  H   H2        1.0  0.20193000000000005  0.92955  0.19663  1.0000
  H   H3        1.0  0.05654000000000002  0.92959  0.21281000000000005  1.0000
  H   H4        1.0  0.01147  0.95994  0.13908  1.0000
  H   H5        1.0  0.46639000000000014  0.16442  0.12083  1.0000
  H   H6        1.0  0.49476000000000003  0.26693  0.19629000000000002  1.0000
  H   H7        1.0  0.65654  0.2835  0.21293000000000004  1.0000
  H   H8        1.0  0.6286600000000001  0.17963  0.13988  1.0000
  H   H9        1.0  0.66375  0.65478  0.62035  1.0000
  H   H10       1.0  0.76622  0.7015799999999999  0.69573  1.0000
  H   H11       1.0  0.7836600000000002  0.55663  0.7128700000000001  1.0000
  H   H12       1.0  0.6798300000000002  0.5116  0.63972  1.0000
  H   H13       1.0  0.4571800000000001  0.96584  0.62038  1.0000
  H   H14       1.0  0.42996  0.99413  0.69584  1.0000
  H   H15       1.0  0.4293800000000001  0.1561899999999999  0.71293  1.0000
  H   H16       1.0  0.46045000000000014  0.12845000000000006  0.6399500000000001  1.0000
  H   H17       1.0  0.5337600000000001  0.04275000000000005  0.8795700000000001  1.0000
  H   H18       1.0  0.5056500000000002  0.06989000000000002  0.80405  1.0000
  H   H19       1.0  0.3436  0.07063000000000004  0.78666  1.0000
  H   H20       1.0  0.3711300000000001  0.03962  0.85969  1.0000
  H   H21       1.0  0.8453200000000002  0.83605  0.8795300000000003  1.0000
  H   H22       1.0  0.7982600000000001  0.7336800000000001  0.8040100000000001  1.0000
  H   H23       1.0  0.9430000000000001  0.71586  0.7866300000000002  1.0000
  H   H24       1.0  0.98828  0.81963  0.8599  1.0000
  H   H25       1.0  0.54358  0.34488  0.37935  1.0000
  H   H26       1.0  0.57055  0.29816  0.30362  1.0000
  H   H27       1.0  0.5705000000000001  0.44369  0.28745  1.0000
  H   H28       1.0  0.5398800000000001  0.48859  0.36092000000000013  1.0000
  H   H29       1.0  0.3359700000000001  0.033520000000000064  0.3793800000000001  1.0000
  H   H30       1.0  0.23344  0.005450000000000057  0.30410000000000004  1.0000
  H   H31       1.0  0.21654000000000007  0.84349  0.28717000000000004  1.0000
  H   H32       1.0  0.32042  0.871  0.3599  1.0000
  H   H33       1.0  0.8449400000000004  0.04381000000000015  0.8795100000000002  1.0000
  H   H34       1.0  0.7980100000000002  0.07049  0.80347  1.0000
  H   H35       1.0  0.9433400000000002  0.07049000000000005  0.7872300000000001  1.0000
  H   H36       1.0  0.9885100000000002  0.04019000000000012  0.8610300000000002  1.0000
  H   H37       1.0  0.5335100000000002  0.8360200000000001  0.8794500000000001  1.0000
  H   H38       1.0  0.5052800000000002  0.7335100000000001  0.8041000000000001  1.0000
  H   H39       1.0  0.34344  0.71678  0.78734  1.0000
  H   H40       1.0  0.3711600000000001  0.8206499999999999  0.8602400000000001  1.0000
  H   H41       1.0  0.33582  0.34518  0.37933000000000006  1.0000
  H   H42       1.0  0.2334  0.29835999999999996  0.30399  1.0000
  H   H43       1.0  0.21592000000000008  0.44323000000000007  0.28670000000000007  1.0000
  H   H44       1.0  0.31972  0.48826  0.35981  1.0000
  H   H45       1.0  0.543  0.03419  0.37963  1.0000
  H   H46       1.0  0.5701500000000003  0.005939999999999999  0.30414  1.0000
  H   H47       1.0  0.57074  0.84384  0.28695  1.0000
  H   H48       1.0  0.5397000000000001  0.87153  0.35994000000000004  1.0000
  H   H49       1.0  0.46587  0.95721  0.12042  1.0000
  H   H50       1.0  0.49422000000000005  0.92997  0.19591  1.0000
  H   H51       1.0  0.6561000000000001  0.92927  0.21287  1.0000
  H   H52       1.0  0.62836  0.96042  0.13991000000000003  1.0000
  H   H53       1.0  0.1547600000000001  0.16402  0.12073000000000003  1.0000
  H   H54       1.0  0.20148  0.26651  0.19604000000000002  1.0000
  H   H55       1.0  0.05658  0.28388999999999986  0.21315  1.0000
  H   H56       1.0  0.01163  0.18001  0.14007  1.0000
  H   H57       1.0  0.45626  0.65523  0.6208  1.0000
  H   H58       1.0  0.4295900000000002  0.70211  0.6967800000000001  1.0000
  H   H59       1.0  0.4296100000000001  0.55668  0.71302  1.0000
  H   H60       1.0  0.45993  0.51156  0.63931  1.0000
  H   H61       1.0  0.6639700000000001  0.96635  0.6205100000000001  1.0000
  H   H62       1.0  0.7664000000000002  0.9945400000000001  0.6959700000000001  1.0000
  H   H63       1.0  0.7832800000000001  0.15649000000000007  0.7128500000000001  1.0000
  H   H64       1.0  0.67948  0.12886000000000006  0.63994  1.0000
  H   H65       1.0  0.8892200000000002  0.9404400000000002  0.02857  1.0000
  H   H66       1.0  0.80311  0.9391  0.03359  1.0000
  H   H67       1.0  0.6391800000000002  0.08802999999999998  0.028390000000000002  1.0000
  H   H68       1.0  0.7305900000000001  0.09473  0.034010000000000006  1.0000
  H   H69       1.0  0.5883900000000001  0.38841000000000003  0.5283900000000001  1.0000
  H   H70       1.0  0.59459  0.30238  0.53372  1.0000
  H   H71       1.0  0.44085  0.14061  0.53002  1.0000
  H   H72       1.0  0.4402000000000001  0.23233  0.53608  1.0000
  H   H73       1.0  0.3598300000000001  0.05900000000000009  0.9702900000000002  1.0000
  H   H74       1.0  0.26815999999999995  0.05984999999999999  0.96424  1.0000
  H   H75       1.0  0.11107000000000017  0.91144  0.9706400000000002  1.0000
  H   H76       1.0  0.1970600000000001  0.9050099999999999  0.96538  1.0000
  H   H77       1.0  0.56029  0.61114  0.47153  1.0000
  H   H78       1.0  0.56111  0.69727  0.4664  1.0000
  H   H79       1.0  0.41139000000000003  0.86044  0.47174000000000005  1.0000
  H   H80       1.0  0.4051600000000001  0.76892  0.4660800000000001  1.0000
  H   H81       1.0  0.11124  0.06004  0.97151  1.0000
  H   H82       1.0  0.1973400000000001  0.061080000000000106  0.9664600000000002  1.0000
  H   H83       1.0  0.36118  0.9120499999999999  0.9726  1.0000
  H   H84       1.0  0.26970999999999995  0.90565  0.96696  1.0000
  H   H85       1.0  0.4115100000000001  0.61029  0.4700500000000001  1.0000
  H   H86       1.0  0.40475  0.69628  0.46467  1.0000
  H   H87       1.0  0.55864  0.85972  0.47016  1.0000
  H   H88       1.0  0.55964  0.7680299999999999  0.46408  1.0000
  H   H89       1.0  0.64023  0.94017  0.028900000000000002  1.0000
  H   H90       1.0  0.73176  0.93955  0.03471  1.0000
  H   H91       1.0  0.88879  0.08884  0.029120000000000007  1.0000
  H   H92       1.0  0.8026600000000002  0.09493  0.03419  1.0000
  H   H93       1.0  0.44108000000000014  0.39001  0.52986  1.0000
  H   H94       1.0  0.43987  0.30403  0.53527  1.0000
  H   H95       1.0  0.58791  0.13912  0.52807  1.0000
  H   H96       1.0  0.5946300000000002  0.23071000000000003  0.5339600000000001  1.0000
  C   C1        1.0  0.86841  0.97386  0.03006  1.0000
  C   C2        1.0  0.81997  0.97366  0.032880000000000006  1.0000
  C   C3        1.0  0.05158000000000001  0.9740499999999999  0.07899000000000002  1.0000
  C   C4        1.0  0.08042000000000002  0.95918  0.12528  1.0000
  C   C5        1.0  0.13428  0.9509699999999999  0.14164  1.0000
  C   C6        1.0  0.16023  0.93615  0.18407  1.0000
  C   C7        1.0  0.13207000000000002  0.9279600000000002  0.20959000000000005  1.0000
  C   C8        1.0  0.07805000000000001  0.93623  0.19298000000000007  1.0000
  C   C9        1.0  0.052850000000000036  0.95254  0.15190000000000003  1.0000
  C   C10       1.0  0.66152  0.05614000000000001  0.02991  1.0000
  C   C11       1.0  0.71292  0.05933  0.03305000000000001  1.0000
  C   C12       1.0  0.52809  0.10545  0.07927  1.0000
  C   C13       1.0  0.5456900000000001  0.16643999999999998  0.12562000000000004  1.0000
  C   C14       1.0  0.50801  0.19081  0.14179  1.0000
  C   C15       1.0  0.5241  0.24794  0.18395000000000003  1.0000
  C   C16       1.0  0.57759  0.28168  0.20938000000000004  1.0000
  C   C17       1.0  0.61529  0.257  0.19310000000000002  1.0000
  C   C18       1.0  0.5998100000000002  0.19968  0.15232000000000004  1.0000
  C   C19       1.0  0.55653  0.3681  0.53015  1.0000
  C   C20       1.0  0.55946  0.31969  0.53313  1.0000
  C   C21       1.0  0.60505  0.55175  0.57943  1.0000
  C   C22       1.0  0.66616  0.58028  0.6253000000000001  1.0000
  C   C23       1.0  0.69033  0.6340099999999999  0.64129  1.0000
  C   C24       1.0  0.7474400000000001  0.6599600000000001  0.6834500000000001  1.0000
  C   C25       1.0  0.78138  0.63189  0.70908  1.0000
  C   C26       1.0  0.7569400000000001  0.57798  0.69283  1.0000
  C   C27       1.0  0.69969  0.5527900000000001  0.6520200000000002  1.0000
  C   C28       1.0  0.47406000000000004  0.16242000000000004  0.5310500000000001  1.0000
  C   C29       1.0  0.47423  0.21398  0.53441  1.0000
  C   C30       1.0  0.47487  0.028019999999999937  0.57951  1.0000
  C   C31       1.0  0.4600100000000001  0.04544000000000007  0.62572  1.0000
  C   C32       1.0  0.45174  0.0075699999999999865  0.64159  1.0000
  C   C33       1.0  0.4366400000000001  0.023600000000000024  0.6837100000000002  1.0000
  C   C34       1.0  0.4281900000000001  0.07721000000000006  0.7093200000000001  1.0000
  C   C35       1.0  0.43639000000000017  0.11496999999999995  0.6931  1.0000
  C   C36       1.0  0.45308000000000015  0.09957000000000009  0.6524000000000001  1.0000
  C   C37       1.0  0.3379600000000001  0.025860000000000126  0.9693200000000002  1.0000
  C   C38       1.0  0.28647  0.025820000000000023  0.96601  1.0000
  C   C39       1.0  0.47159  0.02531000000000006  0.9204400000000001  1.0000
  C   C40       1.0  0.45417000000000013  0.040030000000000086  0.8741200000000002  1.0000
  C   C41       1.0  0.49206  0.04818999999999999  0.85826  1.0000
  C   C42       1.0  0.47613000000000016  0.06324000000000007  0.8161000000000002  1.0000
  C   C43       1.0  0.42258000000000007  0.07174000000000011  0.7904100000000002  1.0000
  C   C44       1.0  0.38477  0.06356999999999995  0.80655  1.0000
  C   C45       1.0  0.4000700000000001  0.04693000000000014  0.8473000000000003  1.0000
  C   C46       1.0  0.1317900000000001  0.9435599999999998  0.9694800000000002  1.0000
  C   C47       1.0  0.18019000000000002  0.94051  0.96656  1.0000
  C   C48       1.0  0.9484600000000001  0.8946500000000001  0.9205400000000002  1.0000
  C   C49       1.0  0.9197800000000005  0.8335100000000001  0.8745400000000002  1.0000
  C   C50       1.0  0.8660300000000003  0.80942  0.8585300000000002  1.0000
  C   C51       1.0  0.83992  0.75231  0.81628  1.0000
  C   C52       1.0  0.8678600000000002  0.71822  0.7905700000000001  1.0000
  C   C53       1.0  0.9217600000000001  0.7426100000000001  0.8067800000000003  1.0000
  C   C54       1.0  0.9471  0.79987  0.8476700000000003  1.0000
  C   C55       1.0  0.52664  0.63163  0.46979000000000004  1.0000
  C   C56       1.0  0.52654  0.68007  0.4668800000000001  1.0000
  C   C57       1.0  0.5257600000000001  0.44836000000000004  0.42098000000000013  1.0000
  C   C58       1.0  0.5407000000000001  0.4196  0.3747600000000001  1.0000
  C   C59       1.0  0.54898  0.36575  0.35845  1.0000
  C   C60       1.0  0.5639300000000002  0.33987000000000006  0.31615000000000004  1.0000
  C   C61       1.0  0.5722000000000003  0.36811  0.2907100000000001  1.0000
  C   C62       1.0  0.56384  0.42212  0.30725  1.0000
  C   C63       1.0  0.54739  0.44724  0.34819  1.0000
  C   C64       1.0  0.44325  0.83815  0.46994  1.0000
  C   C65       1.0  0.4403000000000002  0.78668  0.46675000000000005  1.0000
  C   C66       1.0  0.39471  0.97166  0.42068  1.0000
  C   C67       1.0  0.3337500000000001  0.95412  0.37438  1.0000
  C   C68       1.0  0.30947  0.99193  0.35836  1.0000
  C   C69       1.0  0.25236000000000003  0.97602  0.31633000000000006  1.0000
  C   C70       1.0  0.21855000000000005  0.9225599999999999  0.29091  1.0000
  C   C71       1.0  0.24313  0.8847  0.30701  1.0000
  C   C72       1.0  0.30045000000000016  0.9000000000000001  0.3476300000000001  1.0000
  C   C73       1.0  0.13188000000000008  0.02651000000000001  0.96996  1.0000
  C   C74       1.0  0.1803100000000001  0.02653000000000006  0.9670900000000002  1.0000
  C   C75       1.0  0.94844  0.02599000000000005  0.9210400000000001  1.0000
  C   C76       1.0  0.91959  0.04094000000000001  0.87483  1.0000
  C   C77       1.0  0.86572  0.04913000000000002  0.85851  1.0000
  C   C78       1.0  0.8397100000000001  0.06389000000000009  0.8160300000000001  1.0000
  C   C79       1.0  0.8678200000000001  0.07204000000000006  0.7904600000000002  1.0000
  C   C80       1.0  0.92187  0.06384000000000012  0.8070800000000002  1.0000
  C   C81       1.0  0.9471300000000002  0.04758000000000002  0.8481900000000001  1.0000
  C   C82       1.0  0.33872  0.94378  0.9706000000000002  1.0000
  C   C83       1.0  0.28731  0.94074  0.96745  1.0000
  C   C84       1.0  0.47179  0.89491  0.92087  1.0000
  C   C85       1.0  0.45420000000000005  0.8339200000000001  0.8745800000000001  1.0000
  C   C86       1.0  0.4919100000000001  0.80958  0.8584700000000001  1.0000
  C   C87       1.0  0.47591000000000006  0.7524500000000001  0.8164000000000001  1.0000
  C   C88       1.0  0.42246000000000006  0.71868  0.791  1.0000
  C   C89       1.0  0.3846800000000002  0.7433100000000001  0.8071900000000002  1.0000
  C   C90       1.0  0.4000900000000001  0.80065  0.84788  1.0000
  C   C91       1.0  0.44359000000000004  0.63119  0.46900000000000003  1.0000
  C   C92       1.0  0.44035  0.67956  0.46598  1.0000
  C   C93       1.0  0.39456000000000013  0.44821  0.42045  1.0000
  C   C94       1.0  0.33343  0.41968000000000005  0.3744100000000001  1.0000
  C   C95       1.0  0.30923  0.36595  0.35839  1.0000
  C   C96       1.0  0.25211000000000006  0.34  0.31626000000000004  1.0000
  C   C97       1.0  0.2181100000000001  0.36806999999999995  0.29066  1.0000
  C   C98       1.0  0.24261000000000002  0.42192  0.30681  1.0000
  C   C99       1.0  0.29989  0.44711  0.34761  1.0000
  C   C100      1.0  0.5254700000000002  0.8377500000000002  0.4690400000000001  1.0000
  C   C101      1.0  0.5255300000000003  0.7862200000000001  0.4657100000000001  1.0000
  C   C102      1.0  0.52517  0.97194  0.42038  1.0000
  C   C103      1.0  0.54014  0.95456  0.37424000000000013  1.0000
  C   C104      1.0  0.54842  0.99245  0.3584000000000001  1.0000
  C   C105      1.0  0.5635  0.9764500000000002  0.31626000000000004  1.0000
  C   C106      1.0  0.57195  0.92284  0.29062  1.0000
  C   C107      1.0  0.56375  0.88507  0.30683  1.0000
  C   C108      1.0  0.54707  0.90044  0.34753  1.0000
  C   C109      1.0  0.6621000000000001  0.97358  0.030220000000000004  1.0000
  C   C110      1.0  0.7135400000000002  0.97375  0.03341  1.0000
  C   C111      1.0  0.52802  0.97501  0.07962  1.0000
  C   C112      1.0  0.54542  0.96001  0.12573  1.0000
  C   C113      1.0  0.50758  0.95174  0.14161000000000004  1.0000
  C   C114      1.0  0.5236400000000001  0.9366400000000001  0.18374000000000001  1.0000
  C   C115      1.0  0.57721  0.92816  0.20933  1.0000
  C   C116      1.0  0.6149200000000002  0.9363199999999999  0.19306000000000004  1.0000
  C   C117      1.0  0.59951  0.95305  0.15238000000000002  1.0000
  C   C118      1.0  0.86816  0.05671  0.03035  1.0000
  C   C119      1.0  0.8197100000000002  0.05957  0.03319  1.0000
  C   C120      1.0  0.05162000000000001  0.10527  0.07952000000000001  1.0000
  C   C121      1.0  0.08023000000000001  0.16638  0.12557000000000001  1.0000
  C   C122      1.0  0.13395  0.19058  0.14162  1.0000
  C   C123      1.0  0.15987  0.24773  0.18375  1.0000
  C   C124      1.0  0.13177000000000003  0.28169  0.20931000000000002  1.0000
  C   C125      1.0  0.07792  0.25719  0.19311  1.0000
  C   C126      1.0  0.05277000000000001  0.19988999999999998  0.15233  1.0000
  C   C127      1.0  0.47426  0.36895  0.53096  1.0000
  C   C128      1.0  0.47415  0.3206  0.53401  1.0000
  C   C129      1.0  0.47397  0.55163  0.57907  1.0000
  C   C130      1.0  0.45912000000000003  0.5805  0.62539  1.0000
  C   C131      1.0  0.45095000000000013  0.6344  0.64177  1.0000
  C   C132      1.0  0.43617000000000006  0.66039  0.6842200000000002  1.0000
  C   C133      1.0  0.42798  0.63223  0.70975  1.0000
  C   C134      1.0  0.4362500000000001  0.57818  0.6931700000000001  1.0000
  C   C135      1.0  0.45252  0.55295  0.65208  1.0000
  C   C136      1.0  0.5561800000000001  0.16158000000000008  0.5299700000000002  1.0000
  C   C137      1.0  0.5594  0.21307  0.53324  1.0000
  C   C138      1.0  0.60517  0.028189999999999937  0.5791  1.0000
  C   C139      1.0  0.66613  0.04573  0.62543  1.0000
  C   C140      1.0  0.6904200000000003  0.007960000000000017  0.6415300000000002  1.0000
  C   C141      1.0  0.7475100000000001  0.023940000000000083  0.6836600000000002  1.0000
  C   C142      1.0  0.7813300000000001  0.07740000000000007  0.7091100000000001  1.0000
  C   C143      1.0  0.7567300000000001  0.11523000000000005  0.6929500000000001  1.0000
  C   C144      1.0  0.69943  0.09987000000000001  0.65223  1.0000
  C   C145      1.0  0.7936  0.017  0.03389  1.0000
  C   C146      1.0  0.74029  0.01697  0.03400000000000001  1.0000
  C   C147      1.0  0.51722  0.29393  0.5345  1.0000
  C   C148      1.0  0.5172300000000001  0.24060000000000006  0.5346200000000001  1.0000
  C   C149      1.0  0.25984  0.98293  0.96592  1.0000
  C   C150      1.0  0.20650000000000004  0.98305  0.9659700000000001  1.0000
  C   C151      1.0  0.48289  0.70604  0.46554  1.0000
  C   C152      1.0  0.4826300000000001  0.7593799999999999  0.4654400000000001  1.0000
  C   C153      1.0  0.1562  0.90652  0.25068  1.0000
  C   C154      1.0  0.5938  0.34407  0.24981  1.0000
  C   C155      1.0  0.8437200000000002  0.65583  0.74976  1.0000
  C   C156      1.0  0.40627000000000013  0.09371000000000011  0.7498700000000003  1.0000
  C   C157      1.0  0.8436800000000001  0.09346000000000013  0.7493800000000002  1.0000
  C   C158      1.0  0.40639000000000014  0.6563100000000001  0.7506800000000001  1.0000
  C   C159      1.0  0.15574  0.34408  0.25  1.0000
  C   C160      1.0  0.5937500000000002  0.9063  0.24995  1.0000
  N   N1        1.0  0.89216  0.01433  0.02824  1.0000
  N   N2        1.0  0.63583  0.01367  0.02778  1.0000
  N   N3        1.0  0.5143900000000001  0.39235000000000003  0.5284700000000001  1.0000
  N   N4        1.0  0.51388  0.13596000000000005  0.52809  1.0000
  N   N5        1.0  0.3643000000000002  0.9859600000000001  0.9722900000000002  1.0000
  N   N6        1.0  0.10797000000000004  0.98608  0.97174  1.0000
  N   N7        1.0  0.48623  0.60757  0.47146  1.0000
  N   N8        1.0  0.4854700000000002  0.86397  0.4718600000000001  1.0000
  O   O1        1.0  0.0036100000000000064  0.98307  0.06857000000000002  1.0000
  O   O2        1.0  0.07688  0.97617  0.05347  1.0000
  O   O3        1.0  0.56552  0.08571  0.06883  1.0000
  O   O4        1.0  0.47718  0.07834  0.05377  1.0000
  O   O5        1.0  0.58563  0.5040300000000001  0.5692900000000001  1.0000
  O   O6        1.0  0.5774  0.57715  0.55395  1.0000
  O   O7        1.0  0.48396  0.06559  0.56923  1.0000
  O   O8        1.0  0.47672  0.97707  0.55385  1.0000
  O   O9        1.0  0.43411000000000005  0.016570000000000043  0.9309700000000001  1.0000
  O   O10       1.0  0.5224500000000002  0.02317000000000008  0.9459300000000003  1.0000
  O   O11       1.0  0.9960900000000003  0.9141400000000001  0.9305800000000001  1.0000
  O   O12       1.0  0.9232000000000002  0.92224  0.94621  1.0000
  O   O13       1.0  0.51679  0.49636000000000013  0.43144000000000005  1.0000
  O   O14       1.0  0.52362  0.42302  0.44648000000000004  1.0000
  O   O15       1.0  0.4144  0.93413  0.43100000000000005  1.0000
  O   O16       1.0  0.42184  0.022609999999999988  0.44629  1.0000
  O   O17       1.0  0.99638  0.01691999999999997  0.93139  1.0000
  O   O18       1.0  0.92315  0.023830000000000146  0.9465500000000002  1.0000
  O   O19       1.0  0.4342700000000002  0.9146400000000002  0.9311200000000002  1.0000
  O   O20       1.0  0.5227500000000003  0.92203  0.9465500000000002  1.0000
  O   O21       1.0  0.4141100000000001  0.49589  0.43058  1.0000
  O   O22       1.0  0.42205  0.42286999999999997  0.44609  1.0000
  O   O23       1.0  0.5161  0.93436  0.43067  1.0000
  O   O24       1.0  0.52317  0.022860000000000064  0.4459500000000001  1.0000
  O   O25       1.0  0.56563  0.98437  0.06953  1.0000
  O   O26       1.0  0.47704000000000013  0.97675  0.05388  1.0000
  O   O27       1.0  0.003880000000000006  0.08582000000000002  0.06928000000000001  1.0000
  O   O28       1.0  0.07698  0.07769  0.05397  1.0000
  O   O29       1.0  0.48308  0.50367  0.56872  1.0000
  O   O30       1.0  0.47598  0.57686  0.55344  1.0000
  O   O31       1.0  0.58551  0.06572000000000006  0.5687600000000002  1.0000
  O   O32       1.0  0.578  0.97725  0.55348  1.0000
  O   O33       1.0  0.12505000000000002  0.87597  0.25154000000000004  1.0000
  O   O34       1.0  0.6246  0.37535  0.24933000000000002  1.0000
  O   O35       1.0  0.87497  0.62427  0.7496  1.0000
  O   O36       1.0  0.37498  0.12520999999999993  0.74988  1.0000
  O   O37       1.0  0.8748700000000003  0.12403  0.74858  1.0000
  O   O38       1.0  0.37566000000000005  0.6250599999999998  0.7512600000000001  1.0000
  O   O39       1.0  0.12433000000000001  0.37549  0.25004  1.0000
  O   O40       1.0  0.62513  0.87488  0.24992  1.0000
