data_image0
_chemical_formula_structural       Cu8H96C156N52
_chemical_formula_sum              "Cu8 H96 C156 N52"
_cell_length_a       8.7389
_cell_length_b       19.21421
_cell_length_c       22.01699
_cell_angle_alpha    90.03772
_cell_angle_beta     90.0
_cell_angle_gamma    90.00045

_symmetry_space_group_name_H-M    'P 1'
_symmetry_Int_Tables_number       1

loop_
  _symmetry_equiv_pos_as_xyz
  'x,y,z'

loop_
  _atom_site_type_symbol
  _atom_site_label
  _atom_site_symmetry_multiplicity
  _atom_site_fract_x
  _atom_site_fract_y
  _atom_site_fract_z
  _atom_site_occupancy
  Cu  Cu1       1.0  0.7471400000000001  0.8941000000000001  0.50043  1.0000
  Cu  Cu2       1.0  0.75283  0.39408  0.00043  1.0000
  Cu  Cu3       1.0  0.24852  0.7689900000000001  0.49866000000000005  1.0000
  Cu  Cu4       1.0  0.25148  0.26899  0.9986600000000001  1.0000
  Cu  Cu5       1.0  0.24716  0.60592  0.99955  1.0000
  Cu  Cu6       1.0  0.2528600000000001  0.10591000000000002  0.49959  1.0000
  Cu  Cu7       1.0  0.74853  0.73101  0.0013400000000000003  1.0000
  Cu  Cu8       1.0  0.75149  0.23101  0.50133  1.0000
  H   H1        1.0  0.8862300000000002  0.04064  0.53063  1.0000
  H   H2        1.0  0.80915  0.13516  0.6028800000000001  1.0000
  H   H3        1.0  0.62423  0.89869  0.6284100000000001  1.0000
  H   H4        1.0  0.52851  0.0955  0.7460000000000001  1.0000
  H   H5        1.0  0.5613000000000001  0.15108  0.8292500000000002  1.0000
  H   H6        1.0  0.48874  0.24325000000000005  0.90305  1.0000
  H   H7        1.0  0.10168  0.13562  0.95638  1.0000
  H   H8        1.0  0.1608  0.03665000000000001  0.8868700000000003  1.0000
  H   H9        1.0  0.31742  0.94217  0.86403  1.0000
  H   H10       1.0  0.28445  0.73629  0.91379  1.0000
  H   H11       1.0  0.4181  0.64322  0.85314  1.0000
  H   H12       1.0  0.55152  0.79104  0.7260300000000001  1.0000
  H   H13       1.0  0.62182  0.04497000000000001  0.47159  1.0000
  H   H14       1.0  0.67743  0.13523000000000002  0.39472  1.0000
  H   H15       1.0  0.8845200000000002  0.90184  0.3739600000000001  1.0000
  H   H16       1.0  0.9686500000000001  0.09619000000000001  0.25297000000000003  1.0000
  H   H17       1.0  0.94098  0.15212  0.16844  1.0000
  H   H18       1.0  0.02315  0.24429  0.09488000000000003  1.0000
  H   H19       1.0  0.40895000000000004  0.13335  0.04653  1.0000
  H   H20       1.0  0.3401300000000001  0.03445  0.11449  1.0000
  H   H21       1.0  0.1802  0.94198  0.13588  1.0000
  H   H22       1.0  0.20408000000000007  0.7373000000000002  0.08402000000000001  1.0000
  H   H23       1.0  0.07684  0.6439900000000001  0.14547  1.0000
  H   H24       1.0  0.9497700000000001  0.7910200000000001  0.2747  1.0000
  H   H25       1.0  0.61378  0.54066  0.03065  1.0000
  H   H26       1.0  0.69092  0.63517  0.10289  1.0000
  H   H27       1.0  0.87574  0.39868  0.12842  1.0000
  H   H28       1.0  0.97154  0.5955  0.246  1.0000
  H   H29       1.0  0.93871  0.65107  0.32926000000000005  1.0000
  H   H30       1.0  0.01125  0.74325  0.40305  1.0000
  H   H31       1.0  0.39832  0.6356400000000001  0.45639  1.0000
  H   H32       1.0  0.33923  0.53666  0.38689  1.0000
  H   H33       1.0  0.18262  0.44216000000000005  0.36403  1.0000
  H   H34       1.0  0.21561  0.23627  0.41377  1.0000
  H   H35       1.0  0.08189  0.14321  0.35313  1.0000
  H   H36       1.0  0.9484300000000001  0.29104  0.22604  1.0000
  H   H37       1.0  0.8781700000000002  0.54497  0.9716  1.0000
  H   H38       1.0  0.8226100000000002  0.63523  0.89472  1.0000
  H   H39       1.0  0.6154700000000002  0.40185  0.87396  1.0000
  H   H40       1.0  0.53137  0.5962  0.75297  1.0000
  H   H41       1.0  0.55903  0.65214  0.6684400000000001  1.0000
  H   H42       1.0  0.4768200000000001  0.7443000000000002  0.59489  1.0000
  H   H43       1.0  0.09103  0.63335  0.54655  1.0000
  H   H44       1.0  0.15989  0.5344500000000001  0.6145000000000002  1.0000
  H   H45       1.0  0.31984  0.44199000000000005  0.6358800000000001  1.0000
  H   H46       1.0  0.2960100000000001  0.23731000000000002  0.584  1.0000
  H   H47       1.0  0.42319  0.144  0.6454700000000001  1.0000
  H   H48       1.0  0.55022  0.29102  0.7747100000000002  1.0000
  H   H49       1.0  0.38625000000000004  0.45935  0.9693500000000003  1.0000
  H   H50       1.0  0.3091200000000001  0.36484  0.8971100000000001  1.0000
  H   H51       1.0  0.12425000000000003  0.60132  0.87158  1.0000
  H   H52       1.0  0.02848  0.40450000000000014  0.7539900000000002  1.0000
  H   H53       1.0  0.06130000000000001  0.34894  0.6707400000000001  1.0000
  H   H54       1.0  0.98876  0.25675  0.5969500000000001  1.0000
  H   H55       1.0  0.60169  0.36437000000000014  0.5436100000000001  1.0000
  H   H56       1.0  0.66079  0.46335000000000004  0.61312  1.0000
  H   H57       1.0  0.81739  0.55784  0.6359700000000001  1.0000
  H   H58       1.0  0.78441  0.7637300000000001  0.58623  1.0000
  H   H59       1.0  0.9181100000000001  0.8568  0.6468600000000001  1.0000
  H   H60       1.0  0.05156  0.70896  0.7739600000000001  1.0000
  H   H61       1.0  0.12184000000000002  0.45503  0.028400000000000005  1.0000
  H   H62       1.0  0.17740000000000006  0.36478000000000005  0.10528  1.0000
  H   H63       1.0  0.38455  0.59815  0.12603  1.0000
  H   H64       1.0  0.46864  0.40381000000000006  0.24703000000000003  1.0000
  H   H65       1.0  0.44097  0.34787  0.3315600000000001  1.0000
  H   H66       1.0  0.52318  0.25571  0.4051100000000001  1.0000
  H   H67       1.0  0.9089700000000002  0.36666  0.4534600000000001  1.0000
  H   H68       1.0  0.8401200000000002  0.46556000000000003  0.3855000000000001  1.0000
  H   H69       1.0  0.68017  0.55802  0.36412  1.0000
  H   H70       1.0  0.70403  0.7626900000000001  0.41599  1.0000
  H   H71       1.0  0.57682  0.85601  0.35453000000000007  1.0000
  H   H72       1.0  0.4497800000000001  0.7089900000000001  0.22529000000000002  1.0000
  H   H73       1.0  0.11378000000000003  0.95936  0.4693600000000001  1.0000
  H   H74       1.0  0.19087  0.86484  0.39712000000000003  1.0000
  H   H75       1.0  0.37574  0.10132000000000002  0.37159  1.0000
  H   H76       1.0  0.4715  0.9045000000000001  0.254  1.0000
  H   H77       1.0  0.43871  0.84892  0.17075  1.0000
  H   H78       1.0  0.51127  0.7567500000000001  0.09695000000000001  1.0000
  H   H79       1.0  0.8983200000000002  0.8643800000000001  0.04361000000000001  1.0000
  H   H80       1.0  0.8392100000000002  0.9633500000000002  0.11313000000000002  1.0000
  H   H81       1.0  0.6825900000000003  0.05783  0.13597  1.0000
  H   H82       1.0  0.7155400000000002  0.26371  0.08621000000000001  1.0000
  H   H83       1.0  0.58191  0.3567900000000001  0.14686000000000002  1.0000
  H   H84       1.0  0.44848  0.20896000000000003  0.27397  1.0000
  H   H85       1.0  0.37818  0.9550400000000001  0.52841  1.0000
  H   H86       1.0  0.32257  0.86478  0.60527  1.0000
  H   H87       1.0  0.11549  0.09817000000000002  0.6260500000000001  1.0000
  H   H88       1.0  0.03137  0.90381  0.74703  1.0000
  H   H89       1.0  0.05902  0.84788  0.83155  1.0000
  H   H90       1.0  0.97685  0.7557  0.9051000000000001  1.0000
  H   H91       1.0  0.5910500000000002  0.86665  0.9534600000000002  1.0000
  H   H92       1.0  0.65988  0.96556  0.8855000000000001  1.0000
  H   H93       1.0  0.81981  0.05802  0.86412  1.0000
  H   H94       1.0  0.79595  0.26270000000000004  0.9159900000000001  1.0000
  H   H95       1.0  0.9231700000000002  0.35601  0.85453  1.0000
  H   H96       1.0  0.05023  0.20899  0.7253  1.0000
  C   C1        1.0  0.55608  0.85305  0.50221  1.0000
  C   C2        1.0  0.42894  0.8218500000000001  0.5008800000000001  1.0000
  C   C3        1.0  0.81266  0.029460000000000004  0.5692  1.0000
  C   C4        1.0  0.77317  0.08161  0.6105900000000001  1.0000
  C   C5        1.0  0.64261  0.00216  0.668  1.0000
  C   C6        1.0  0.6722900000000003  0.95068  0.6245100000000001  1.0000
  C   C7        1.0  0.55341  0.98688  0.7235  1.0000
  C   C8        1.0  0.50125  0.04227  0.75931  1.0000
  C   C9        1.0  0.41421  0.02768  0.81112  1.0000
  C   C10       1.0  0.36762  0.08486000000000002  0.8519000000000002  1.0000
  C   C11       1.0  0.45793  0.1452  0.8561900000000001  1.0000
  C   C12       1.0  0.41805  0.19706  0.8971100000000001  1.0000
  C   C13       1.0  0.20337  0.13625  0.9278500000000001  1.0000
  C   C14       1.0  0.23715000000000003  0.08128  0.8889500000000001  1.0000
  C   C15       1.0  0.3817800000000001  0.95777  0.82404  1.0000
  C   C16       1.0  0.44346  0.9056100000000001  0.78675  1.0000
  C   C17       1.0  0.42666  0.83125  0.8035  1.0000
  C   C18       1.0  0.34547000000000005  0.7491200000000001  0.8719100000000001  1.0000
  C   C19       1.0  0.41737000000000013  0.69711  0.8378  1.0000
  C   C20       1.0  0.49335000000000007  0.77822  0.7683000000000002  1.0000
  C   C21       1.0  0.06274  0.82087  0.5008000000000001  1.0000
  C   C22       1.0  0.6922400000000002  0.03212  0.43222000000000005  1.0000
  C   C23       1.0  0.7214000000000003  0.08264000000000002  0.3881300000000001  1.0000
  C   C24       1.0  0.85726  0.0035500000000000006  0.33222  1.0000
  C   C25       1.0  0.83419  0.9534300000000001  0.37752  1.0000
  C   C26       1.0  0.94595  0.9877500000000001  0.27658  1.0000
  C   C27       1.0  0.9967100000000001  0.042870000000000005  0.24014000000000002  1.0000
  C   C28       1.0  0.08428  0.02791  0.18852  1.0000
  C   C29       1.0  0.13395  0.08471  0.14787000000000003  1.0000
  C   C30       1.0  0.04626  0.14572  0.14276  1.0000
  C   C31       1.0  0.09137000000000003  0.19752  0.10256000000000003  1.0000
  C   C32       1.0  0.30552  0.135  0.07406  1.0000
  C   C33       1.0  0.26642  0.07994  0.11206  1.0000
  C   C34       1.0  0.11628  0.9579000000000001  0.17590000000000006  1.0000
  C   C35       1.0  0.05541  0.90596  0.21359000000000003  1.0000
  C   C36       1.0  0.07159000000000003  0.83159  0.19672  1.0000
  C   C37       1.0  0.14842  0.74995  0.12703  1.0000
  C   C38       1.0  0.07887  0.69762  0.16153  1.0000
  C   C39       1.0  0.006580000000000002  0.7784000000000001  0.23207000000000003  1.0000
  C   C40       1.0  0.9439  0.35303  0.0021900000000000005  1.0000
  C   C41       1.0  0.07106000000000001  0.3218600000000001  0.0008700000000000001  1.0000
  C   C42       1.0  0.6873500000000001  0.52947  0.06921  1.0000
  C   C43       1.0  0.7268700000000002  0.58161  0.11060000000000003  1.0000
  C   C44       1.0  0.8574200000000002  0.50216  0.16801000000000002  1.0000
  C   C45       1.0  0.8277000000000001  0.45068  0.12452000000000002  1.0000
  C   C46       1.0  0.94663  0.48688  0.22351  1.0000
  C   C47       1.0  0.99879  0.54226  0.25932  1.0000
  C   C48       1.0  0.08582000000000002  0.52768  0.31112000000000006  1.0000
  C   C49       1.0  0.1324  0.5848600000000002  0.35191  1.0000
  C   C50       1.0  0.04207  0.64519  0.3562  1.0000
  C   C51       1.0  0.08195000000000001  0.69706  0.39712000000000003  1.0000
  C   C52       1.0  0.29663  0.6362600000000003  0.42786  1.0000
  C   C53       1.0  0.26287  0.58128  0.3889700000000001  1.0000
  C   C54       1.0  0.11825000000000001  0.45777  0.32405  1.0000
  C   C55       1.0  0.056570000000000016  0.4056000000000001  0.28675  1.0000
  C   C56       1.0  0.07337000000000003  0.33124  0.30350000000000005  1.0000
  C   C57       1.0  0.15458  0.24911  0.3719  1.0000
  C   C58       1.0  0.08264  0.19710000000000003  0.3378  1.0000
  C   C59       1.0  0.006640000000000002  0.2782200000000001  0.26831  1.0000
  C   C60       1.0  0.43724  0.32088  0.0008  1.0000
  C   C61       1.0  0.80776  0.53212  0.9322300000000001  1.0000
  C   C62       1.0  0.7786200000000001  0.5826400000000002  0.8881300000000002  1.0000
  C   C63       1.0  0.64276  0.50355  0.83222  1.0000
  C   C64       1.0  0.66581  0.45344000000000007  0.87752  1.0000
  C   C65       1.0  0.55407  0.48775  0.7765900000000002  1.0000
  C   C66       1.0  0.50332  0.54288  0.74015  1.0000
  C   C67       1.0  0.41576  0.52792  0.68852  1.0000
  C   C68       1.0  0.36606  0.58471  0.64788  1.0000
  C   C69       1.0  0.4537500000000001  0.6457300000000001  0.64276  1.0000
  C   C70       1.0  0.40861  0.6975300000000002  0.60257  1.0000
  C   C71       1.0  0.19447  0.635  0.5740700000000001  1.0000
  C   C72       1.0  0.23359000000000002  0.57994  0.61207  1.0000
  C   C73       1.0  0.3837500000000001  0.45791  0.6759000000000001  1.0000
  C   C74       1.0  0.44463000000000014  0.40597  0.71359  1.0000
  C   C75       1.0  0.4284600000000001  0.3316  0.69671  1.0000
  C   C76       1.0  0.35165000000000013  0.24996  0.62701  1.0000
  C   C77       1.0  0.4211800000000001  0.19762  0.66152  1.0000
  C   C78       1.0  0.49344000000000005  0.27841000000000005  0.7320700000000002  1.0000
  C   C79       1.0  0.056110000000000014  0.64698  0.9977800000000002  1.0000
  C   C80       1.0  0.92894  0.67815  0.99912  1.0000
  C   C81       1.0  0.31267  0.47054000000000007  0.93079  1.0000
  C   C82       1.0  0.27315  0.41839  0.8894000000000001  1.0000
  C   C83       1.0  0.1426  0.49784000000000006  0.8319900000000002  1.0000
  C   C84       1.0  0.1723  0.54933  0.87548  1.0000
  C   C85       1.0  0.05338  0.51313  0.7764900000000002  1.0000
  C   C86       1.0  0.00123  0.45774  0.74068  1.0000
  C   C87       1.0  0.9142  0.4723300000000001  0.68888  1.0000
  C   C88       1.0  0.86761  0.41514  0.64809  1.0000
  C   C89       1.0  0.9579400000000001  0.35482  0.6438000000000001  1.0000
  C   C90       1.0  0.9180600000000001  0.30295  0.6028800000000001  1.0000
  C   C91       1.0  0.70338  0.36375  0.5721400000000001  1.0000
  C   C92       1.0  0.73715  0.41873  0.6110400000000001  1.0000
  C   C93       1.0  0.88176  0.54224  0.67595  1.0000
  C   C94       1.0  0.94343  0.5944  0.7132500000000002  1.0000
  C   C95       1.0  0.92663  0.66876  0.6965  1.0000
  C   C96       1.0  0.84543  0.7509  0.6281000000000001  1.0000
  C   C97       1.0  0.91736  0.8029100000000002  0.6622  1.0000
  C   C98       1.0  0.9933600000000001  0.72179  0.7316900000000002  1.0000
  C   C99       1.0  0.56273  0.67913  0.9992000000000001  1.0000
  C   C100      1.0  0.19225000000000003  0.4678800000000001  0.06777  1.0000
  C   C101      1.0  0.22139  0.41736  0.11186000000000001  1.0000
  C   C102      1.0  0.35726  0.49645  0.16777  1.0000
  C   C103      1.0  0.33420000000000005  0.54656  0.12247  1.0000
  C   C104      1.0  0.4459400000000001  0.5122500000000001  0.22341000000000003  1.0000
  C   C105      1.0  0.49669  0.45713  0.25985  1.0000
  C   C106      1.0  0.58426  0.47208  0.31147  1.0000
  C   C107      1.0  0.63394  0.41529000000000005  0.35212  1.0000
  C   C108      1.0  0.54626  0.35427000000000003  0.35724000000000006  1.0000
  C   C109      1.0  0.59139  0.30248  0.39744  1.0000
  C   C110      1.0  0.80553  0.36501  0.42593000000000003  1.0000
  C   C111      1.0  0.76641  0.42006000000000004  0.38793  1.0000
  C   C112      1.0  0.61626  0.5421  0.3241  1.0000
  C   C113      1.0  0.5553900000000003  0.59404  0.28641  1.0000
  C   C114      1.0  0.57156  0.6684100000000001  0.30328000000000005  1.0000
  C   C115      1.0  0.64837  0.7500500000000002  0.37298000000000003  1.0000
  C   C116      1.0  0.57883  0.8023800000000002  0.33848  1.0000
  C   C117      1.0  0.50656  0.7216  0.26793  1.0000
  C   C118      1.0  0.44393  0.14695  0.49782000000000004  1.0000
  C   C119      1.0  0.5710700000000002  0.17816  0.49913000000000013  1.0000
  C   C120      1.0  0.18734  0.9705400000000001  0.4308  1.0000
  C   C121      1.0  0.22685  0.91839  0.38941000000000003  1.0000
  C   C122      1.0  0.3574  0.9978400000000001  0.332  1.0000
  C   C123      1.0  0.3277000000000001  0.04933  0.37549  1.0000
  C   C124      1.0  0.4466000000000001  0.01313  0.2765000000000001  1.0000
  C   C125      1.0  0.49876  0.95774  0.24069000000000004  1.0000
  C   C126      1.0  0.5858  0.97232  0.18888  1.0000
  C   C127      1.0  0.6323900000000002  0.91514  0.1481  1.0000
  C   C128      1.0  0.54208  0.8548000000000001  0.14381  1.0000
  C   C129      1.0  0.58197  0.80294  0.10288000000000003  1.0000
  C   C130      1.0  0.79664  0.8637500000000001  0.07215  1.0000
  C   C131      1.0  0.76286  0.91872  0.11104000000000003  1.0000
  C   C132      1.0  0.61823  0.04223  0.17596  1.0000
  C   C133      1.0  0.55655  0.0944  0.21325000000000005  1.0000
  C   C134      1.0  0.57335  0.16875  0.1965  1.0000
  C   C135      1.0  0.65454  0.25088  0.12808000000000003  1.0000
  C   C136      1.0  0.58264  0.3029  0.16219  1.0000
  C   C137      1.0  0.5066600000000001  0.22179  0.23169000000000006  1.0000
  C   C138      1.0  0.9372500000000001  0.17913000000000007  0.4992  1.0000
  C   C139      1.0  0.30777  0.96789  0.5677800000000001  1.0000
  C   C140      1.0  0.27859000000000006  0.9173700000000001  0.61187  1.0000
  C   C141      1.0  0.14275  0.99646  0.66778  1.0000
  C   C142      1.0  0.16581  0.04658  0.6224800000000001  1.0000
  C   C143      1.0  0.05406  0.012260000000000002  0.72341  1.0000
  C   C144      1.0  0.003310000000000001  0.95713  0.75985  1.0000
  C   C145      1.0  0.9157400000000001  0.97209  0.8114800000000001  1.0000
  C   C146      1.0  0.86605  0.91529  0.85212  1.0000
  C   C147      1.0  0.95375  0.8542800000000002  0.85723  1.0000
  C   C148      1.0  0.90863  0.8024800000000001  0.8974300000000002  1.0000
  C   C149      1.0  0.69449  0.865  0.92594  1.0000
  C   C150      1.0  0.73359  0.9200600000000002  0.8879300000000002  1.0000
  C   C151      1.0  0.8837300000000002  0.0421  0.8241000000000002  1.0000
  C   C152      1.0  0.9446000000000001  0.09404000000000001  0.7864100000000003  1.0000
  C   C153      1.0  0.92842  0.16841000000000006  0.8032800000000002  1.0000
  C   C154      1.0  0.8516000000000002  0.25005  0.87298  1.0000
  C   C155      1.0  0.92115  0.30239  0.83848  1.0000
  C   C156      1.0  0.9934200000000001  0.22160000000000002  0.7679300000000001  1.0000
  N   N1        1.0  0.7575000000000002  0.96434  0.57503  1.0000
  N   N2        1.0  0.68939  0.06845000000000001  0.65999  1.0000
  N   N3        1.0  0.52791  0.9196  0.73701  1.0000
  N   N4        1.0  0.34966  0.81617  0.8550300000000002  1.0000
  N   N5        1.0  0.48923000000000005  0.7112500000000002  0.78525  1.0000
  N   N6        1.0  0.29306  0.19327  0.93302  1.0000
  N   N7        1.0  0.9540000000000001  0.85674  0.49575  1.0000
  N   N8        1.0  0.75298  0.9680600000000001  0.4278500000000001  1.0000
  N   N9        1.0  0.8038  0.06908  0.33844000000000013  1.0000
  N   N10       1.0  0.9724700000000001  0.92034  0.26370000000000005  1.0000
  N   N11       1.0  0.14598  0.81679  0.14445000000000002  1.0000
  N   N12       1.0  0.0103  0.7114200000000002  0.21483000000000005  1.0000
  N   N13       1.0  0.21935000000000004  0.19291000000000005  0.06851  1.0000
  N   N14       1.0  0.7425  0.46434000000000003  0.07504  1.0000
  N   N15       1.0  0.81066  0.5684500000000001  0.15999  1.0000
  N   N16       1.0  0.9721100000000001  0.41959  0.23701  1.0000
  N   N17       1.0  0.15039  0.31616  0.35502  1.0000
  N   N18       1.0  0.01076  0.21125  0.28525000000000006  1.0000
  N   N19       1.0  0.20693  0.69327  0.43302  1.0000
  N   N20       1.0  0.5459700000000001  0.35674  0.99575  1.0000
  N   N21       1.0  0.74701  0.46806  0.92786  1.0000
  N   N22       1.0  0.69623  0.56908  0.83844  1.0000
  N   N23       1.0  0.52757  0.42035  0.7637  1.0000
  N   N24       1.0  0.3541  0.3168  0.64443  1.0000
  N   N25       1.0  0.48971000000000003  0.21142  0.7148300000000001  1.0000
  N   N26       1.0  0.28063  0.69291  0.5685200000000001  1.0000
  N   N27       1.0  0.2575100000000001  0.53567  0.92496  1.0000
  N   N28       1.0  0.18936000000000006  0.43155  0.84001  1.0000
  N   N29       1.0  0.02789  0.58041  0.76299  1.0000
  N   N30       1.0  0.84962  0.6838500000000002  0.6449800000000001  1.0000
  N   N31       1.0  0.98924  0.78875  0.7147500000000001  1.0000
  N   N32       1.0  0.79308  0.30674  0.56698  1.0000
  N   N33       1.0  0.45404  0.64328  0.00425  1.0000
  N   N34       1.0  0.253  0.53195  0.07213  1.0000
  N   N35       1.0  0.30378  0.4309200000000001  0.16155  1.0000
  N   N36       1.0  0.47245000000000004  0.57966  0.2363  1.0000
  N   N37       1.0  0.64593  0.68321  0.3555600000000001  1.0000
  N   N38       1.0  0.51029  0.78859  0.28517  1.0000
  N   N39       1.0  0.71937  0.30710000000000004  0.43148  1.0000
  N   N40       1.0  0.24249  0.035660000000000004  0.42497  1.0000
  N   N41       1.0  0.31064  0.9315500000000001  0.34002000000000004  1.0000
  N   N42       1.0  0.47209000000000007  0.08041  0.26299000000000006  1.0000
  N   N43       1.0  0.6503400000000003  0.18383  0.14496000000000003  1.0000
  N   N44       1.0  0.5107800000000001  0.28875000000000006  0.21475  1.0000
  N   N45       1.0  0.7069500000000002  0.80674  0.06698  1.0000
  N   N46       1.0  0.046  0.14327000000000004  0.5042500000000001  1.0000
  N   N47       1.0  0.24701  0.03195  0.5721500000000002  1.0000
  N   N48       1.0  0.19621  0.9309300000000001  0.66156  1.0000
  N   N49       1.0  0.02755  0.07966  0.7363  1.0000
  N   N50       1.0  0.8540400000000002  0.18321000000000004  0.8555600000000002  1.0000
  N   N51       1.0  0.9897  0.28859  0.7851700000000001  1.0000
  N   N52       1.0  0.7806600000000002  0.8070900000000001  0.93148  1.0000
