data_image0
_chemical_formula_structural       Ca8H114C132O40
_chemical_formula_sum              "Ca8 H114 C132 O40"
_cell_length_a       15.20601
_cell_length_b       20.10314
_cell_length_c       20.37299
_cell_angle_alpha    117.09955999999998
_cell_angle_beta     96.28637000000002
_cell_angle_gamma    103.60961

_symmetry_space_group_name_H-M    'P 1'
_symmetry_Int_Tables_number       1

loop_
  _symmetry_equiv_pos_as_xyz
  'x,y,z'

loop_
  _atom_site_type_symbol
  _atom_site_label
  _atom_site_symmetry_multiplicity
  _atom_site_fract_x
  _atom_site_fract_y
  _atom_site_fract_z
  _atom_site_occupancy
  Ca  Ca1       1.0  0.13889999999999997  0.12724  0.76595  1.0000
  Ca  Ca2       1.0  0.92181  0.18134999999999987  0.8028299999999999  1.0000
  Ca  Ca3       1.0  0.32430999999999993  0.16484999999999989  0.89729  1.0000
  Ca  Ca4       1.0  0.5298  0.1519099999999999  0.86827  1.0000
  Ca  Ca5       1.0  0.86109  0.8727599999999999  0.23405  1.0000
  Ca  Ca6       1.0  0.07817999999999999  0.8186499999999999  0.19716999999999998  1.0000
  Ca  Ca7       1.0  0.67568  0.8351499999999998  0.10271  1.0000
  Ca  Ca8       1.0  0.47019999999999995  0.84809  0.13173  1.0000
  H   H1        1.0  0.68214  0.6302099999999999  0.7220699999999998  1.0000
  H   H2        1.0  0.7363099999999999  0.5649299999999998  0.7292499999999997  1.0000
  H   H3        1.0  0.6165099999999999  0.5500299999999998  0.7299699999999998  1.0000
  H   H4        1.0  0.6263  0.5099  0.38672  1.0000
  H   H5        1.0  0.73168  0.5711699999999998  0.45724999999999993  1.0000
  H   H6        1.0  0.63042  0.59976  0.46479  1.0000
  H   H7        1.0  0.49324  0.28269  0.50225  1.0000
  H   H8        1.0  0.5175399999999999  0.2715099999999999  0.4150899999999999  1.0000
  H   H9        1.0  0.42055  0.30044999999999994  0.44274999999999987  1.0000
  H   H10       1.0  0.79097  0.64032  0.6595  1.0000
  H   H11       1.0  0.7816299999999999  0.63127  0.56821  1.0000
  H   H12       1.0  0.65861  0.8208899999999999  0.69493  1.0000
  H   H13       1.0  0.75742  0.9559  0.7270999999999999  1.0000
  H   H14       1.0  0.97648  0.8646  0.6498  1.0000
  H   H15       1.0  0.87856  0.73038  0.61326  1.0000
  H   H16       1.0  0.45697999999999994  0.34261999999999987  0.3622399999999999  1.0000
  H   H17       1.0  0.52114  0.42149  0.3517699999999999  1.0000
  H   H18       1.0  0.68325  0.25668  0.26127  1.0000
  H   H19       1.0  0.66093  0.19319999999999998  0.11984999999999998  1.0000
  H   H20       1.0  0.41994999999999993  0.26632  0.10205  1.0000
  H   H21       1.0  0.44120999999999994  0.32968000000000003  0.24111  1.0000
  H   H22       1.0  0.58768  0.34057  0.6019  1.0000
  H   H23       1.0  0.62455  0.43362  0.6861  1.0000
  H   H24       1.0  0.5949799999999997  0.33220999999999995  0.7065  1.0000
  H   H25       1.0  0.54542  0.26742  0.78  1.0000
  H   H26       1.0  0.27127  0.28722  0.74101  1.0000
  H   H27       1.0  0.3202  0.35270999999999997  0.66617  1.0000
  H   H28       1.0  0.97221  0.3012  0.27275  1.0000
  H   H29       1.0  0.9099  0.32419  0.3448  1.0000
  H   H30       1.0  0.00222000000000001  0.28673  0.34992  1.0000
  H   H31       1.0  0.22232999999999997  0.6364499999999998  0.3870299999999999  1.0000
  H   H32       1.0  0.11837999999999996  0.5784099999999999  0.31464  1.0000
  H   H33       1.0  0.21808  0.54723  0.30687  1.0000
  H   H34       1.0  0.23009999999999997  0.61164  0.6173499999999997  1.0000
  H   H35       1.0  0.19888  0.51425  0.60089  1.0000
  H   H36       1.0  0.11476999999999987  0.5631899999999997  0.6138099999999997  1.0000
  H   H37       1.0  0.03102999999999996  0.44568999999999986  0.5549299999999999  1.0000
  H   H38       1.0  0.9664499999999999  0.36128  0.46694  1.0000
  H   H39       1.0  0.95892  0.3663  0.58406  1.0000
  H   H40       1.0  0.9349599999999999  0.3054899999999998  0.6656999999999997  1.0000
  H   H41       1.0  0.15792  0.21108  0.60864  1.0000
  H   H42       1.0  0.18482999999999994  0.27317  0.52726  1.0000
  H   H43       1.0  0.97851  0.38302  0.23515  1.0000
  H   H44       1.0  0.07511999999999998  0.45437999999999995  0.23762  1.0000
  H   H45       1.0  0.19028  0.25753  0.1731  1.0000
  H   H46       1.0  0.20061  0.18904  0.03879  1.0000
  H   H47       1.0  0.016020000000000038  0.2985  0.9810099999999999  1.0000
  H   H48       1.0  0.006299999999999988  0.36646999999999996  0.11402  1.0000
  H   H49       1.0  0.28678  0.65622  0.5663  1.0000
  H   H50       1.0  0.29079  0.6654  0.48476  1.0000
  H   H51       1.0  0.08844  0.79017  0.56123  1.0000
  H   H52       1.0  0.13632000000000005  0.93099  0.66328  1.0000
  H   H53       1.0  0.40932  0.92094  0.73103  1.0000
  H   H54       1.0  0.36165  0.78073  0.63024  1.0000
  H   H55       1.0  0.8292  0.2110599999999999  0.92522  1.0000
  H   H56       1.0  0.74045  0.20761  0.86136  1.0000
  H   H57       1.0  0.66722  0.2599399999999999  0.85022  1.0000
  H   H58       1.0  0.31785  0.36979  0.27793  1.0000
  H   H59       1.0  0.26369  0.43507  0.27075  1.0000
  H   H60       1.0  0.38348  0.44997  0.27002999999999994  1.0000
  H   H61       1.0  0.37368999999999997  0.4900999999999999  0.61328  1.0000
  H   H62       1.0  0.26830999999999994  0.4288299999999999  0.5427499999999998  1.0000
  H   H63       1.0  0.36957999999999996  0.40023999999999993  0.5352  1.0000
  H   H64       1.0  0.50676  0.71731  0.49775  1.0000
  H   H65       1.0  0.48245  0.72849  0.58491  1.0000
  H   H66       1.0  0.5794399999999998  0.69955  0.55724  1.0000
  H   H67       1.0  0.20902  0.35968  0.3405  1.0000
  H   H68       1.0  0.21835999999999994  0.3687299999999999  0.4317899999999999  1.0000
  H   H69       1.0  0.34138  0.17911  0.30507  1.0000
  H   H70       1.0  0.24257  0.04410000000000002  0.27289  1.0000
  H   H71       1.0  0.023519999999999992  0.13539999999999996  0.3502  1.0000
  H   H72       1.0  0.12143  0.26962  0.38674  1.0000
  H   H73       1.0  0.5430099999999999  0.65737  0.6377599999999999  1.0000
  H   H74       1.0  0.47886000000000006  0.57851  0.64823  1.0000
  H   H75       1.0  0.31674  0.74332  0.73872  1.0000
  H   H76       1.0  0.3390599999999999  0.8068  0.88014  1.0000
  H   H77       1.0  0.58005  0.73368  0.89794  1.0000
  H   H78       1.0  0.55879  0.67032  0.75889  1.0000
  H   H79       1.0  0.41231  0.65943  0.3981  1.0000
  H   H80       1.0  0.37545  0.56638  0.3139  1.0000
  H   H81       1.0  0.40502  0.66779  0.2934999999999999  1.0000
  H   H82       1.0  0.45457  0.73258  0.22  1.0000
  H   H83       1.0  0.7287199999999999  0.7127799999999999  0.25899  1.0000
  H   H84       1.0  0.67979  0.64729  0.33383  1.0000
  H   H85       1.0  0.02777999999999996  0.6987999999999999  0.72724  1.0000
  H   H86       1.0  0.0901  0.67581  0.6552  1.0000
  H   H87       1.0  0.99778  0.71327  0.65008  1.0000
  H   H88       1.0  0.7776599999999999  0.36354999999999993  0.6129699999999999  1.0000
  H   H89       1.0  0.88161  0.42158999999999996  0.6853599999999997  1.0000
  H   H90       1.0  0.78191  0.45276999999999984  0.6931299999999998  1.0000
  H   H91       1.0  0.7699  0.38836  0.38265  1.0000
  H   H92       1.0  0.80111  0.48575  0.39911  1.0000
  H   H93       1.0  0.88522  0.4368099999999999  0.38619  1.0000
  H   H94       1.0  0.96896  0.55431  0.4450699999999999  1.0000
  H   H95       1.0  0.03354000000000002  0.63872  0.53305  1.0000
  H   H96       1.0  0.04106999999999999  0.6337  0.41594  1.0000
  H   H97       1.0  0.06504  0.6945100000000001  0.33429  1.0000
  H   H98       1.0  0.8420699999999999  0.7889199999999998  0.39136  1.0000
  H   H99       1.0  0.81517  0.7268300000000001  0.47274  1.0000
  H   H100      1.0  0.02147999999999999  0.61698  0.76485  1.0000
  H   H101      1.0  0.9248699999999999  0.5456199999999998  0.7623699999999998  1.0000
  H   H102      1.0  0.80971  0.7424699999999999  0.8268999999999999  1.0000
  H   H103      1.0  0.7993799999999999  0.8109599999999998  0.96121  1.0000
  H   H104      1.0  0.98398  0.70149  0.01899  1.0000
  H   H105      1.0  0.9937  0.6335299999999999  0.88598  1.0000
  H   H106      1.0  0.71322  0.34377999999999986  0.43369999999999986  1.0000
  H   H107      1.0  0.7092  0.33459999999999995  0.51524  1.0000
  H   H108      1.0  0.91155  0.20983  0.43877  1.0000
  H   H109      1.0  0.86367  0.06900999999999995  0.3367199999999999  1.0000
  H   H110      1.0  0.59067  0.07905999999999998  0.26896  1.0000
  H   H111      1.0  0.63834  0.21926999999999996  0.36976  1.0000
  H   H112      1.0  0.1708  0.78894  0.07477  1.0000
  H   H113      1.0  0.25954  0.79239  0.13864  1.0000
  H   H114      1.0  0.33277  0.74006  0.14978  1.0000
  C   C1        1.0  0.6671499999999998  0.55138  0.57345  1.0000
  C   C2        1.0  0.63037  0.5087199999999998  0.49366999999999994  1.0000
  C   C3        1.0  0.57079  0.43017999999999995  0.4594599999999999  1.0000
  C   C4        1.0  0.55246  0.39323  0.50342  1.0000
  C   C5        1.0  0.58797  0.43728  0.58296  1.0000
  C   C6        1.0  0.64132  0.51774  0.61854  1.0000
  C   C7        1.0  0.67052  0.56788  0.7043  1.0000
  C   C8        1.0  0.6556  0.54884  0.448  1.0000
  C   C9        1.0  0.49356999999999995  0.30746999999999997  0.46432999999999996  1.0000
  C   C10       1.0  0.742  0.63013  0.60954  1.0000
  C   C11       1.0  0.76199  0.7669899999999998  0.6522  1.0000
  C   C12       1.0  0.7278  0.831  0.68442  1.0000
  C   C13       1.0  0.78278  0.90574  0.70242  1.0000
  C   C14       1.0  0.87292  0.91865  0.6900299999999998  1.0000
  C   C15       1.0  0.90654  0.8546299999999999  0.65887  1.0000
  C   C16       1.0  0.85171  0.7791399999999999  0.6394499999999999  1.0000
  C   C17       1.0  0.9319900000000001  0.99912  0.71068  1.0000
  C   C18       1.0  0.52719  0.3830299999999999  0.37532999999999994  1.0000
  C   C19       1.0  0.56575  0.29938  0.26047  1.0000
  C   C20       1.0  0.6265399999999999  0.25903  0.22575  1.0000
  C   C21       1.0  0.61374  0.22348999999999997  0.14737  1.0000
  C   C22       1.0  0.53974  0.22639999999999996  0.10174  1.0000
  C   C23       1.0  0.47766999999999993  0.26424999999999993  0.1368  1.0000
  C   C24       1.0  0.48987  0.30046  0.21542  1.0000
  C   C25       1.0  0.52983  0.19288  0.019079999999999996  1.0000
  C   C26       1.0  0.5748499999999999  0.3976100000000001  0.62993  1.0000
  C   C27       1.0  0.46036  0.34728  0.68177  1.0000
  C   C28       1.0  0.52432  0.32313  0.71378  1.0000
  C   C29       1.0  0.49666  0.28685000000000005  0.75564  1.0000
  C   C30       1.0  0.40564999999999996  0.27374999999999994  0.7665299999999999  1.0000
  C   C31       1.0  0.34188  0.29761  0.73322  1.0000
  C   C32       1.0  0.36881  0.33393999999999996  0.69161  1.0000
  C   C33       1.0  0.37836999999999993  0.23774999999999996  0.8122  1.0000
  C   C34       1.0  0.07726999999999996  0.44557  0.45922999999999997  1.0000
  C   C35       1.0  0.04767999999999997  0.40965999999999997  0.37945  1.0000
  C   C36       1.0  0.08291999999999992  0.45223999999999986  0.3436799999999999  1.0000
  C   C37       1.0  0.14653  0.52997  0.38722  1.0000
  C   C38       1.0  0.17797999999999992  0.5642199999999999  0.46695999999999993  1.0000
  C   C39       1.0  0.14366  0.52167  0.50314  1.0000
  C   C40       1.0  0.97953  0.32649  0.33402  1.0000
  C   C41       1.0  0.17845  0.57552  0.3473  1.0000
  C   C42       1.0  0.174  0.5550799999999999  0.58811  1.0000
  C   C43       1.0  0.03651999999999998  0.40329  0.499  1.0000
  C   C44       1.0  0.07632999999999998  0.32627  0.55304  1.0000
  C   C45       1.0  0.004419999999999988  0.33449  0.5908  1.0000
  C   C46       1.0  0.99022  0.29964999999999986  0.6359099999999998  1.0000
  C   C47       1.0  0.04599999999999999  0.25609999999999994  0.64402  1.0000
  C   C48       1.0  0.11587000000000003  0.24633  0.6039  1.0000
  C   C49       1.0  0.13133999999999998  0.28097999999999995  0.5588499999999998  1.0000
  C   C50       1.0  0.030869999999999998  0.22213  0.69506  1.0000
  C   C51       1.0  0.05452999999999996  0.4124799999999999  0.25792999999999994  1.0000
  C   C52       1.0  0.09950999999999999  0.31749  0.15270999999999996  1.0000
  C   C53       1.0  0.15389  0.26667  0.13045  1.0000
  C   C54       1.0  0.15938  0.22877  0.055609999999999986  1.0000
  C   C55       1.0  0.10985999999999999  0.23890999999999996  0.99928  1.0000
  C   C56       1.0  0.05421  0.28901  0.02259  1.0000
  C   C57       1.0  0.04921  0.32813  0.09815  1.0000
  C   C58       1.0  0.11695999999999993  0.1991499999999999  0.9213699999999999  1.0000
  C   C59       1.0  0.2431599999999999  0.6479799999999999  0.51502  1.0000
  C   C60       1.0  0.22091999999999995  0.7761999999999998  0.59001  1.0000
  C   C61       1.0  0.15822  0.81965  0.59931  1.0000
  C   C62       1.0  0.18563000000000002  0.89821  0.65557  1.0000
  C   C63       1.0  0.27703  0.9364599999999998  0.7044099999999998  1.0000
  C   C64       1.0  0.33930999999999994  0.8924099999999999  0.69356  1.0000
  C   C65       1.0  0.31228999999999996  0.8132199999999999  0.6369  1.0000
  C   C66       1.0  0.30375999999999986  0.01829999999999999  0.76575  1.0000
  C   C67       1.0  0.3328499999999999  0.44862  0.4265499999999999  1.0000
  C   C68       1.0  0.36962  0.49128  0.50633  1.0000
  C   C69       1.0  0.4292099999999999  0.5698199999999999  0.54053  1.0000
  C   C70       1.0  0.4475399999999998  0.6067699999999999  0.49657999999999997  1.0000
  C   C71       1.0  0.41202  0.56272  0.41703999999999997  1.0000
  C   C72       1.0  0.35867999999999994  0.48226  0.38146  1.0000
  C   C73       1.0  0.32947  0.43211999999999995  0.2957  1.0000
  C   C74       1.0  0.3443899999999999  0.45115999999999995  0.552  1.0000
  C   C75       1.0  0.5064299999999999  0.6925299999999998  0.53567  1.0000
  C   C76       1.0  0.25799  0.3698699999999999  0.39046  1.0000
  C   C77       1.0  0.23799999999999993  0.23301  0.3478  1.0000
  C   C78       1.0  0.27219  0.169  0.31558  1.0000
  C   C79       1.0  0.21721  0.09426  0.29758  1.0000
  C   C80       1.0  0.12707999999999994  0.08134999999999995  0.3099699999999999  1.0000
  C   C81       1.0  0.09344999999999996  0.14536999999999994  0.3411299999999999  1.0000
  C   C82       1.0  0.14828999999999992  0.22085999999999992  0.3605499999999999  1.0000
  C   C83       1.0  0.068  0.0008800000000000136  0.28931  1.0000
  C   C84       1.0  0.4728  0.61697  0.62467  1.0000
  C   C85       1.0  0.4342399999999999  0.7006199999999998  0.7395299999999998  1.0000
  C   C86       1.0  0.3734499999999999  0.7409699999999998  0.7742399999999998  1.0000
  C   C87       1.0  0.38625  0.77651  0.85263  1.0000
  C   C88       1.0  0.46025  0.7736  0.89826  1.0000
  C   C89       1.0  0.52232  0.7357499999999999  0.8631999999999997  1.0000
  C   C90       1.0  0.51012  0.69954  0.78458  1.0000
  C   C91       1.0  0.4701599999999999  0.8071199999999998  0.9809199999999999  1.0000
  C   C92       1.0  0.42515  0.60239  0.37007  1.0000
  C   C93       1.0  0.53963  0.65272  0.31822  1.0000
  C   C94       1.0  0.47568  0.67686  0.28622  1.0000
  C   C95       1.0  0.5033300000000003  0.71315  0.24435999999999997  1.0000
  C   C96       1.0  0.59434  0.7262399999999999  0.23345999999999997  1.0000
  C   C97       1.0  0.65811  0.7023900000000001  0.26678  1.0000
  C   C98       1.0  0.63119  0.66605  0.30839  1.0000
  C   C99       1.0  0.62163  0.7622499999999999  0.18779  1.0000
  C   C100      1.0  0.92272  0.55443  0.54077  1.0000
  C   C101      1.0  0.95232  0.59034  0.62055  1.0000
  C   C102      1.0  0.9170699999999999  0.5477599999999998  0.6563199999999999  1.0000
  C   C103      1.0  0.85347  0.47002  0.61278  1.0000
  C   C104      1.0  0.82202  0.43577999999999995  0.53304  1.0000
  C   C105      1.0  0.85633  0.47833  0.49686  1.0000
  C   C106      1.0  0.020459999999999867  0.6735099999999998  0.6659799999999998  1.0000
  C   C107      1.0  0.8215399999999999  0.42447999999999986  0.6526999999999997  1.0000
  C   C108      1.0  0.8259899999999999  0.44492  0.41189  1.0000
  C   C109      1.0  0.9634699999999999  0.5966999999999998  0.5009899999999998  1.0000
  C   C110      1.0  0.92366  0.67373  0.44695  1.0000
  C   C111      1.0  0.99557  0.66551  0.4092  1.0000
  C   C112      1.0  0.00976999999999991  0.7003499999999998  0.36409  1.0000
  C   C113      1.0  0.95399  0.7438999999999999  0.35598  1.0000
  C   C114      1.0  0.8841200000000001  0.75367  0.39609  1.0000
  C   C115      1.0  0.86866  0.7190199999999998  0.44114999999999993  1.0000
  C   C116      1.0  0.9691199999999999  0.7778699999999998  0.30494  1.0000
  C   C117      1.0  0.9454699999999996  0.5875199999999999  0.7420699999999998  1.0000
  C   C118      1.0  0.9004899999999999  0.68251  0.84729  1.0000
  C   C119      1.0  0.8460999999999997  0.73333  0.86955  1.0000
  C   C120      1.0  0.84062  0.77123  0.94439  1.0000
  C   C121      1.0  0.8901299999999999  0.76109  0.0007199999999999999  1.0000
  C   C122      1.0  0.94578  0.7109899999999999  0.97741  1.0000
  C   C123      1.0  0.95079  0.6718699999999999  0.90185  1.0000
  C   C124      1.0  0.88304  0.80085  0.07861999999999997  1.0000
  C   C125      1.0  0.75683  0.35202  0.48497999999999997  1.0000
  C   C126      1.0  0.7790699999999999  0.2238  0.40998999999999997  1.0000
  C   C127      1.0  0.84178  0.18035  0.40069  1.0000
  C   C128      1.0  0.81436  0.10179  0.34443  1.0000
  C   C129      1.0  0.72297  0.06353999999999996  0.29558999999999996  1.0000
  C   C130      1.0  0.66068  0.10758999999999999  0.30643  1.0000
  C   C131      1.0  0.6877  0.18677999999999992  0.36309999999999987  1.0000
  C   C132      1.0  0.69624  0.98169  0.23424  1.0000
  O   O1        1.0  0.70219  0.69444  0.6336  1.0000
  O   O2        1.0  0.89328  0.05328999999999997  0.7316  1.0000
  O   O3        1.0  0.017259999999999942  0.010549999999999914  0.7076899999999998  1.0000
  O   O4        1.0  0.5865  0.33679  0.33832  1.0000
  O   O5        1.0  0.5906  0.1653600000000001  0.9875  1.0000
  O   O6        1.0  0.45815  0.19451  0.97883  1.0000
  O   O7        1.0  0.48061999999999994  0.38403  0.63993  1.0000
  O   O8        1.0  0.29352  0.22240999999999997  0.81973  1.0000
  O   O9        1.0  0.43967999999999996  0.22168000000000007  0.84762  1.0000
  O   O10       1.0  0.09752000000000002  0.36047  0.5092  1.0000
  O   O11       1.0  0.96438  0.23299999999999998  0.7284  1.0000
  O   O12       1.0  0.08468999999999999  0.18512  0.70398  1.0000
  O   O13       1.0  0.10187999999999997  0.35390999999999995  0.22917999999999997  1.0000
  O   O14       1.0  0.06418000000000001  0.19987000000000008  0.86664  1.0000
  O   O15       1.0  0.17735  0.16128999999999988  0.90313  1.0000
  O   O16       1.0  0.18376999999999996  0.69783  0.53485  1.0000
  O   O17       1.0  0.24376  0.05636000000000001  0.77549  1.0000
  O   O18       1.0  0.38591  0.05353000000000001  0.81396  1.0000
  O   O19       1.0  0.81782  0.20606  0.87513  1.0000
  O   O20       1.0  0.6598  0.20888  0.84614  1.0000
  O   O21       1.0  0.2978  0.30556  0.3664  1.0000
  O   O22       1.0  0.10671  0.94671  0.2684  1.0000
  O   O23       1.0  0.9827299999999995  0.9894399999999999  0.29231  1.0000
  O   O24       1.0  0.41349  0.66321  0.66168  1.0000
  O   O25       1.0  0.40939  0.83464  0.0125  1.0000
  O   O26       1.0  0.54185  0.80549  0.021169999999999994  1.0000
  O   O27       1.0  0.51937  0.61597  0.36007  1.0000
  O   O28       1.0  0.7064699999999999  0.77759  0.18027  1.0000
  O   O29       1.0  0.56032  0.7783199999999999  0.15236999999999995  1.0000
  O   O30       1.0  0.90247  0.63953  0.4908  1.0000
  O   O31       1.0  0.035610000000000024  0.7670000000000001  0.2716  1.0000
  O   O32       1.0  0.9153099999999998  0.8148799999999999  0.29602  1.0000
  O   O33       1.0  0.89811  0.64609  0.77082  1.0000
  O   O34       1.0  0.9358099999999998  0.80013  0.13336  1.0000
  O   O35       1.0  0.8226399999999999  0.8387099999999998  0.09686999999999997  1.0000
  O   O36       1.0  0.81623  0.30217  0.46515  1.0000
  O   O37       1.0  0.75623  0.94363  0.22450999999999996  1.0000
  O   O38       1.0  0.6140899999999999  0.9464699999999998  0.18602999999999995  1.0000
  O   O39       1.0  0.18217  0.79394  0.12487  1.0000
  O   O40       1.0  0.34018999999999994  0.7911199999999998  0.15384999999999993  1.0000
