data_image0
_chemical_formula_structural       Zn8H88C144N16O32
_chemical_formula_sum              "Zn8 H88 C144 N16 O32"
_cell_length_a       10.41949
_cell_length_b       11.991929999999998
_cell_length_c       32.13775
_cell_angle_alpha    89.96559
_cell_angle_beta     90.00951
_cell_angle_gamma    89.95085

_space_group_name_H-M_alt    "P 1"
_space_group_IT_number       1

loop_
  _space_group_symop_operation_xyz
  'x, y, z'

loop_
  _atom_site_type_symbol
  _atom_site_label
  _atom_site_symmetry_multiplicity
  _atom_site_fract_x
  _atom_site_fract_y
  _atom_site_fract_z
  _atom_site_occupancy
  Zn  Zn1       1.0  0.61326  0.83075  0.04457  1.0000
  Zn  Zn2       1.0  0.8796000000000002  0.04674  0.6461400000000003  1.0000
  Zn  Zn3       1.0  0.88676  0.16937000000000005  0.54454  1.0000
  Zn  Zn4       1.0  0.6204  0.9532600000000001  0.14606  1.0000
  Zn  Zn5       1.0  0.38695  0.3311700000000001  0.4554100000000001  1.0000
  Zn  Zn6       1.0  0.12061  0.54699  0.85403  1.0000
  Zn  Zn7       1.0  0.11306  0.6688400000000002  0.95546  1.0000
  Zn  Zn8       1.0  0.37908  0.45299000000000006  0.35399000000000014  1.0000
  H   H1        1.0  0.24023  0.92445  0.03929  1.0000
  H   H2        1.0  0.00194  0.9160300000000001  0.03445  1.0000
  H   H3        1.0  0.86447  0.80026  0.17069  1.0000
  H   H4        1.0  0.97333  0.7355000000000003  0.23422  1.0000
  H   H5        1.0  0.21408000000000002  0.72202  0.23566  1.0000
  H   H6        1.0  0.33853  0.78174  0.17464  1.0000
  H   H7        1.0  0.52035  0.22252  0.06154  1.0000
  H   H8        1.0  0.49005000000000004  0.4120300000000001  0.03029  1.0000
  H   H9        1.0  0.66664  0.66592  0.13138  1.0000
  H   H10       1.0  0.74833  0.6456  0.20273  1.0000
  H   H11       1.0  0.76625  0.4567400000000001  0.23552  1.0000
  H   H12       1.0  0.69778  0.28995  0.19625  1.0000
  H   H13       1.0  0.53859  0.06764  0.78845  1.0000
  H   H14       1.0  0.44547  0.9941800000000002  0.85342  1.0000
  H   H15       1.0  0.82781  0.94774  0.90331  1.0000
  H   H16       1.0  0.9190900000000001  0.02195  0.83812  1.0000
  H   H17       1.0  0.7068  0.9748000000000001  0.72737  1.0000
  H   H18       1.0  0.9924000000000001  0.22074  0.71165  1.0000
  H   H19       1.0  0.91896  0.21900000000000006  0.79461  1.0000
  H   H20       1.0  0.7511500000000001  0.91002  0.95923  1.0000
  H   H21       1.0  0.3644  0.83625  0.98742  1.0000
  H   H22       1.0  0.37456  0.9108600000000002  0.90648  1.0000
  H   H23       1.0  0.25936  0.07529000000000001  0.53933  1.0000
  H   H24       1.0  0.49765000000000004  0.08387  0.5344  1.0000
  H   H25       1.0  0.63543  0.19979000000000002  0.67064  1.0000
  H   H26       1.0  0.52645  0.26433000000000006  0.73413  1.0000
  H   H27       1.0  0.28573  0.27786  0.73554  1.0000
  H   H28       1.0  0.16133  0.21823  0.6745  1.0000
  H   H29       1.0  0.97908  0.7774  0.56168  1.0000
  H   H30       1.0  0.00942  0.58773  0.53064  1.0000
  H   H31       1.0  0.83259  0.3343  0.63183  1.0000
  H   H32       1.0  0.7511500000000001  0.3547400000000001  0.70322  1.0000
  H   H33       1.0  0.73338  0.54369  0.73587  1.0000
  H   H34       1.0  0.80194  0.7104000000000001  0.69651  1.0000
  H   H35       1.0  0.9617300000000001  0.93223  0.28845  1.0000
  H   H36       1.0  0.05502  0.0056500000000000005  0.35336  1.0000
  H   H37       1.0  0.67279  0.05228000000000001  0.40328  1.0000
  H   H38       1.0  0.58134  0.97798  0.33817  1.0000
  H   H39       1.0  0.79336  0.02524  0.22733  1.0000
  H   H40       1.0  0.50762  0.77941  0.21170000000000003  1.0000
  H   H41       1.0  0.58113  0.781  0.29463  1.0000
  H   H42       1.0  0.74938  0.09015000000000001  0.4591  1.0000
  H   H43       1.0  0.1361  0.16384000000000004  0.4874  1.0000
  H   H44       1.0  0.12608  0.08906000000000001  0.40653  1.0000
  H   H45       1.0  0.75741  0.42429  0.46044  1.0000
  H   H46       1.0  0.99552  0.4161200000000001  0.46555  1.0000
  H   H47       1.0  0.13457  0.30057000000000006  0.32959  1.0000
  H   H48       1.0  0.02682  0.236  0.26589  1.0000
  H   H49       1.0  0.7861900000000002  0.22218000000000004  0.2641  1.0000
  H   H50       1.0  0.66069  0.28124  0.32503  1.0000
  H   H51       1.0  0.47919  0.7225700000000002  0.43844  1.0000
  H   H52       1.0  0.50944  0.91221  0.46944000000000013  1.0000
  H   H53       1.0  0.33281  0.16577  0.36813  1.0000
  H   H54       1.0  0.25116  0.14528  0.29676  1.0000
  H   H55       1.0  0.23343000000000003  0.9562900000000001  0.26415  1.0000
  H   H56       1.0  0.30193  0.78955  0.30357  1.0000
  H   H57       1.0  0.46164  0.5679000000000001  0.71165  1.0000
  H   H58       1.0  0.55513  0.4944900000000001  0.64676  1.0000
  H   H59       1.0  0.1729  0.44779000000000013  0.59682  1.0000
  H   H60       1.0  0.0814  0.52216  0.66192  1.0000
  H   H61       1.0  0.29324  0.4747000000000001  0.77274  1.0000
  H   H62       1.0  0.007369999999999998  0.7207900000000003  0.78838  1.0000
  H   H63       1.0  0.08096  0.71931  0.70545  1.0000
  H   H64       1.0  0.24944000000000002  0.4096000000000001  0.54094  1.0000
  H   H65       1.0  0.63649  0.3362  0.51273  1.0000
  H   H66       1.0  0.6262300000000001  0.4110800000000001  0.59352  1.0000
  H   H67       1.0  0.74153  0.5757500000000001  0.96052  1.0000
  H   H68       1.0  0.50342  0.5842500000000002  0.96551  1.0000
  H   H69       1.0  0.36469  0.6996600000000001  0.82939  1.0000
  H   H70       1.0  0.4727  0.7643200000000001  0.76575  1.0000
  H   H71       1.0  0.71349  0.77805  0.76414  1.0000
  H   H72       1.0  0.83859  0.7186500000000001  0.82517  1.0000
  H   H73       1.0  0.02022  0.27743000000000007  0.93849  1.0000
  H   H74       1.0  0.99059  0.08793  0.96976  1.0000
  H   H75       1.0  0.16695  0.8339300000000002  0.86852  1.0000
  H   H76       1.0  0.24831  0.85437  0.79716  1.0000
  H   H77       1.0  0.26612  0.04327  0.76443  1.0000
  H   H78       1.0  0.19777  0.21006  0.80378  1.0000
  H   H79       1.0  0.03871  0.43227  0.21163  1.0000
  H   H80       1.0  0.9452900000000001  0.50575  0.14668  1.0000
  H   H81       1.0  0.32758  0.5522400000000001  0.09679  1.0000
  H   H82       1.0  0.41897  0.47795000000000004  0.16199  1.0000
  H   H83       1.0  0.2069  0.5253  0.27266  1.0000
  H   H84       1.0  0.49250000000000005  0.2790500000000001  0.28851  1.0000
  H   H85       1.0  0.41924000000000006  0.28072  0.20552  1.0000
  H   H86       1.0  0.25091  0.5901700000000001  0.04084  1.0000
  H   H87       1.0  0.8638500000000001  0.66383  0.01265  1.0000
  H   H88       1.0  0.8742400000000001  0.58911  0.09352  1.0000
  C   C1        1.0  0.24833000000000002  0.867  0.10213  1.0000
  C   C2        1.0  0.18433  0.89684  0.06589  1.0000
  C   C3        1.0  0.05003  0.89473  0.06344  1.0000
  C   C4        1.0  0.9753800000000001  0.86615  0.09759  1.0000
  C   C5        1.0  0.03684  0.83199  0.13573  1.0000
  C   C6        1.0  0.9680700000000001  0.7975800000000002  0.17185  1.0000
  C   C7        1.0  0.029740000000000003  0.7609200000000002  0.20731  1.0000
  C   C8        1.0  0.16466000000000003  0.75386  0.20826  1.0000
  C   C9        1.0  0.23498  0.78696  0.17410000000000006  1.0000
  C   C10       1.0  0.17561  0.82952  0.13749  1.0000
  C   C11       1.0  0.3915100000000001  0.88108  0.10228  1.0000
  C   C12       1.0  0.8329000000000001  0.87108  0.09144  1.0000
  C   C13       1.0  0.59908  0.28501  0.11834  1.0000
  C   C14       1.0  0.5500900000000001  0.29661  0.0785  1.0000
  C   C15       1.0  0.53483  0.4030100000000001  0.0607  1.0000
  C   C16       1.0  0.5753  0.49817  0.08133  1.0000
  C   C17       1.0  0.63198  0.48928  0.12192000000000003  1.0000
  C   C18       1.0  0.6724  0.58368  0.14544  1.0000
  C   C19       1.0  0.7194600000000001  0.57188  0.18539  1.0000
  C   C20       1.0  0.72992  0.4653000000000001  0.2039  1.0000
  C   C21       1.0  0.69205  0.37202000000000013  0.18201  1.0000
  C   C22       1.0  0.6414  0.38071  0.141  1.0000
  C   C23       1.0  0.59738  0.17145000000000002  0.13781  1.0000
  C   C24       1.0  0.55325  0.60839  0.0602  1.0000
  C   C25       1.0  0.73456  0.049250000000000016  0.80955  1.0000
  C   C26       1.0  0.60152  0.041  0.8136  1.0000
  C   C27       1.0  0.54916  0.99964  0.85047  1.0000
  C   C28       1.0  0.63035  0.9666800000000002  0.88294  1.0000
  C   C29       1.0  0.76385  0.97495  0.87857  1.0000
  C   C30       1.0  0.81565  0.01662  0.84194  1.0000
  C   C31       1.0  0.77355  0.04193  0.73342  1.0000
  C   C32       1.0  0.9221  0.1694  0.72729  1.0000
  C   C33       1.0  0.8862000000000001  0.16937000000000005  0.76835  1.0000
  C   C34       1.0  0.6476900000000001  0.9019900000000002  0.95615  1.0000
  C   C35       1.0  0.44544  0.8655  0.9695300000000002  1.0000
  C   C36       1.0  0.44993  0.9021200000000003  0.92931  1.0000
  C   C37       1.0  0.2515  0.13287  0.6021100000000003  1.0000
  C   C38       1.0  0.3154  0.10298  0.56588  1.0000
  C   C39       1.0  0.44968  0.10517000000000003  0.56339  1.0000
  C   C40       1.0  0.52447  0.13378000000000004  0.59752  1.0000
  C   C41       1.0  0.46305  0.16794000000000003  0.63565  1.0000
  C   C42       1.0  0.53182  0.20237  0.67177  1.0000
  C   C43       1.0  0.47008  0.23896000000000006  0.70722  1.0000
  C   C44       1.0  0.33516  0.24603000000000003  0.70816  1.0000
  C   C45       1.0  0.26487  0.21295000000000006  0.674  1.0000
  C   C46       1.0  0.32428  0.1704  0.63743  1.0000
  C   C47       1.0  0.10835  0.11887  0.60226  1.0000
  C   C48       1.0  0.66698  0.12891000000000002  0.59138  1.0000
  C   C49       1.0  0.90035  0.71513  0.61854  1.0000
  C   C50       1.0  0.94917  0.7033900000000002  0.57869  1.0000
  C   C51       1.0  0.9642900000000001  0.59694  0.56099  1.0000
  C   C52       1.0  0.9235200000000001  0.50198  0.58173  1.0000
  C   C53       1.0  0.86704  0.51101  0.62229  1.0000
  C   C54       1.0  0.8267800000000001  0.41657  0.64585  1.0000
  C   C55       1.0  0.7799400000000001  0.42842000000000013  0.68581  1.0000
  C   C56       1.0  0.7696200000000001  0.53505  0.70425  1.0000
  C   C57       1.0  0.80752  0.6283100000000001  0.68232  1.0000
  C   C58       1.0  0.85792  0.61958  0.64129  1.0000
  C   C59       1.0  0.9024300000000001  0.82867  0.63794  1.0000
  C   C60       1.0  0.94635  0.3915600000000001  0.56097  1.0000
  C   C61       1.0  0.76577  0.95066  0.30955  1.0000
  C   C62       1.0  0.8988400000000001  0.9588700000000002  0.3136  1.0000
  C   C63       1.0  0.95131  0.00021000000000000004  0.35045  1.0000
  C   C64       1.0  0.8702200000000001  0.03322  0.3829100000000001  1.0000
  C   C65       1.0  0.73671  0.02494  0.37856  1.0000
  C   C66       1.0  0.6848  0.9832800000000003  0.34195  1.0000
  C   C67       1.0  0.72656  0.9581300000000003  0.2334  1.0000
  C   C68       1.0  0.57796  0.8307100000000002  0.22732  1.0000
  C   C69       1.0  0.61395  0.83067  0.26837  1.0000
  C   C70       1.0  0.85284  0.09812000000000003  0.4560800000000001  1.0000
  C   C71       1.0  0.05505  0.13459  0.46952  1.0000
  C   C72       1.0  0.05063  0.09785  0.42932  1.0000
  C   C73       1.0  0.74966  0.36675000000000013  0.39769  1.0000
  C   C74       1.0  0.8136799999999998  0.39669000000000004  0.43391  1.0000
  C   C75       1.0  0.94801  0.3945600000000001  0.43652000000000013  1.0000
  C   C76       1.0  0.02321  0.36596  0.4024800000000001  1.0000
  C   C77       1.0  0.9617400000000002  0.33181000000000005  0.36433  1.0000
  C   C78       1.0  0.030990000000000004  0.29765  0.32829  1.0000
  C   C79       1.0  0.96995  0.26113  0.29273  1.0000
  C   C80       1.0  0.83509  0.25387  0.29161  1.0000
  C   C81       1.0  0.7641900000000001  0.28672  0.32569  1.0000
  C   C82       1.0  0.8228600000000001  0.32920000000000005  0.36241  1.0000
  C   C83       1.0  0.60633  0.38052000000000014  0.39773  1.0000
  C   C84       1.0  0.16604  0.37104  0.40864  1.0000
  C   C85       1.0  0.40029  0.78481  0.38157000000000013  1.0000
  C   C86       1.0  0.44919000000000003  0.79659  0.42142  1.0000
  C   C87       1.0  0.46428  0.90309  0.43909  1.0000
  C   C88       1.0  0.42348  0.9981000000000001  0.41835  1.0000
  C   C89       1.0  0.36704  0.9890300000000001  0.37777  1.0000
  C   C90       1.0  0.32684  0.08346000000000002  0.35416  1.0000
  C   C91       1.0  0.27998  0.07160000000000001  0.3142  1.0000
  C   C92       1.0  0.26965  0.9649400000000001  0.29578  1.0000
  C   C93       1.0  0.30751  0.87166  0.31775  1.0000
  C   C94       1.0  0.35789  0.8804  0.35879  1.0000
  C   C95       1.0  0.40251  0.67124  0.36217  1.0000
  C   C96       1.0  0.44638  0.10863000000000002  0.43905  1.0000
  C   C97       1.0  0.26576  0.54946  0.69054  1.0000
  C   C98       1.0  0.39883  0.5412300000000001  0.68649  1.0000
  C   C99       1.0  0.45138  0.49987  0.64964  1.0000
  C   C100      1.0  0.37033  0.4668100000000001  0.61717  1.0000
  C   C101      1.0  0.23682  0.4751100000000001  0.62154  1.0000
  C   C102      1.0  0.18485  0.5168200000000001  0.65814  1.0000
  C   C103      1.0  0.22639  0.5418600000000001  0.76666  1.0000
  C   C104      1.0  0.0777  0.66943  0.77274  1.0000
  C   C105      1.0  0.11379  0.66954  0.7317  1.0000
  C   C106      1.0  0.35294  0.40176  0.54398  1.0000
  C   C107      1.0  0.55525  0.36541000000000007  0.53055  1.0000
  C   C108      1.0  0.55075  0.40217000000000014  0.57074  1.0000
  C   C109      1.0  0.74959  0.6335500000000001  0.89775  1.0000
  C   C110      1.0  0.68549  0.6034600000000001  0.9339500000000002  1.0000
  C   C111      1.0  0.55117  0.6054600000000001  0.93647  1.0000
  C   C112      1.0  0.47613000000000005  0.6339000000000001  0.9023800000000002  1.0000
  C   C113      1.0  0.53746  0.66813  0.86423  1.0000
  C   C114      1.0  0.46828  0.7024300000000001  0.82815  1.0000
  C   C115      1.0  0.52948  0.73904  0.79261  1.0000
  C   C116      1.0  0.6643600000000001  0.7462100000000002  0.79158  1.0000
  C   C117      1.0  0.7350800000000001  0.71331  0.82571  1.0000
  C   C118      1.0  0.67631  0.67087  0.86241  1.0000
  C   C119      1.0  0.8930300000000001  0.61983  0.89784  1.0000
  C   C120      1.0  0.3335  0.6289  0.90853  1.0000
  C   C121      1.0  0.0993  0.21499  0.88171  1.0000
  C   C122      1.0  0.0503  0.20336000000000007  0.92155  1.0000
  C   C123      1.0  0.03526  0.09694000000000001  0.9393300000000002  1.0000
  C   C124      1.0  0.0757  0.00175  0.91868  1.0000
  C   C125      1.0  0.13238  0.010640000000000002  0.8781  1.0000
  C   C126      1.0  0.17275  0.9162400000000002  0.85453  1.0000
  C   C127      1.0  0.21962  0.92808  0.81456  1.0000
  C   C128      1.0  0.22998000000000002  0.034690000000000006  0.7960700000000003  1.0000
  C   C129      1.0  0.19221  0.12797  0.81801  1.0000
  C   C130      1.0  0.14172  0.11926  0.85904  1.0000
  C   C131      1.0  0.09722  0.32860000000000006  0.86224  1.0000
  C   C132      1.0  0.05328  0.8914800000000003  0.9397400000000002  1.0000
  C   C133      1.0  0.23456  0.45064  0.19052  1.0000
  C   C134      1.0  0.10151000000000002  0.45892000000000005  0.18647  1.0000
  C   C135      1.0  0.04901  0.50032  0.1496  1.0000
  C   C136      1.0  0.13012  0.53331  0.11713  1.0000
  C   C137      1.0  0.26364  0.52503  0.12152  1.0000
  C   C138      1.0  0.31554  0.48331  0.15815  1.0000
  C   C139      1.0  0.27363  0.45805  0.26663  1.0000
  C   C140      1.0  0.42224000000000006  0.33043000000000006  0.27282  1.0000
  C   C141      1.0  0.38638000000000006  0.33043000000000006  0.23176  1.0000
  C   C142      1.0  0.1474  0.5981000000000001  0.04392  1.0000
  C   C143      1.0  0.94505  0.6345600000000001  0.0305  1.0000
  C   C144      1.0  0.94963  0.5979  0.07071  1.0000
  N   N1        1.0  0.7913400000000002  0.08824  0.77175  1.0000
  N   N2        1.0  0.85189  0.08968000000000002  0.70596  1.0000
  N   N3        1.0  0.5786  0.9251700000000002  0.92088  1.0000
  N   N4        1.0  0.56873  0.8663100000000002  0.98582  1.0000
  N   N5        1.0  0.70885  0.9117700000000001  0.27175  1.0000
  N   N6        1.0  0.64815  0.9104500000000002  0.20596  1.0000
  N   N7        1.0  0.92198  0.07478000000000001  0.42085  1.0000
  N   N8        1.0  0.9317100000000001  0.13389  0.48577  1.0000
  N   N9        1.0  0.20877  0.5883700000000001  0.72832  1.0000
  N   N10       1.0  0.14788  0.58953  0.79409  1.0000
  N   N11       1.0  0.42206  0.4251800000000001  0.57921  1.0000
  N   N12       1.0  0.4319  0.36602000000000007  0.51429  1.0000
  N   N13       1.0  0.29145  0.41164000000000006  0.22832  1.0000
  N   N14       1.0  0.35196  0.41029  0.29411  1.0000
  N   N15       1.0  0.07833  0.5748600000000001  0.07917  1.0000
  N   N16       1.0  0.06836  0.63378  0.01424  1.0000
  O   O1        1.0  0.44838  0.8883600000000003  0.1375  1.0000
  O   O2        1.0  0.44748  0.8894600000000001  0.06716  1.0000
  O   O3        1.0  0.75885  0.8551700000000001  0.12265  1.0000
  O   O4        1.0  0.7911199999999999  0.8889000000000001  0.0546  1.0000
  O   O5        1.0  0.6551  0.09344000000000001  0.11682  1.0000
  O   O6        1.0  0.53991  0.15543  0.17155000000000006  1.0000
  O   O7        1.0  0.44936000000000004  0.62738  0.04195  1.0000
  O   O8        1.0  0.6489  0.67791  0.06246  1.0000
  O   O9        1.0  0.05152000000000001  0.11161000000000001  0.63749  1.0000
  O   O10       1.0  0.05243  0.11053000000000002  0.56714  1.0000
  O   O11       1.0  0.74101  0.14477000000000004  0.6226  1.0000
  O   O12       1.0  0.7088000000000001  0.11115000000000003  0.55454  1.0000
  O   O13       1.0  0.84489  0.9067300000000001  0.61688  1.0000
  O   O14       1.0  0.95993  0.8446300000000001  0.67169  1.0000
  O   O15       1.0  0.051669999999999994  0.37237  0.54368  1.0000
  O   O16       1.0  0.8506000000000001  0.3221300000000001  0.56248  1.0000
  O   O17       1.0  0.54724  0.38150000000000006  0.36273  1.0000
  O   O18       1.0  0.55151  0.39465000000000006  0.43281  1.0000
  O   O19       1.0  0.24014  0.35543  0.37741  1.0000
  O   O20       1.0  0.2081  0.38873000000000013  0.44546  1.0000
  O   O21       1.0  0.34493000000000007  0.5931500000000001  0.38315  1.0000
  O   O22       1.0  0.4602800000000001  0.6553200000000001  0.32847  1.0000
  O   O23       1.0  0.55171  0.12776  0.45633  1.0000
  O   O24       1.0  0.35074  0.17829000000000003  0.43748  1.0000
  O   O25       1.0  0.9519600000000001  0.61828  0.8628100000000002  1.0000
  O   O26       1.0  0.9480000000000001  0.6059  0.93292  1.0000
  O   O27       1.0  0.25951  0.6446700000000001  0.87728  1.0000
  O   O28       1.0  0.29152  0.6111600000000001  0.94535  1.0000
  O   O29       1.0  0.15476  0.40669  0.88321  1.0000
  O   O30       1.0  0.03959  0.34459  0.8285200000000003  1.0000
  O   O31       1.0  0.9492  0.8726400000000001  0.95788  1.0000
  O   O32       1.0  0.14877  0.8217000000000002  0.9375400000000003  1.0000
