data_image0
_chemical_formula_structural       Ni6H64C120O36
_chemical_formula_sum              "Ni6 H64 C120 O36"
_cell_length_a       10.66491
_cell_length_b       14.188750000000002
_cell_length_c       27.64693
_cell_angle_alpha    89.95609000000002
_cell_angle_beta     89.91986
_cell_angle_gamma    89.89006

_symmetry_space_group_name_H-M    'P 1'
_symmetry_Int_Tables_number       1

loop_
  _symmetry_equiv_pos_as_xyz
  'x,y,z'

loop_
  _atom_site_type_symbol
  _atom_site_label
  _atom_site_symmetry_multiplicity
  _atom_site_fract_x
  _atom_site_fract_y
  _atom_site_fract_z
  _atom_site_occupancy
  Ni  Ni1       1.0  0.84813  0.30231  0.9999800000000001  1.0000
  Ni  Ni2       1.0  0.14378  0.80234  0.5004500000000001  1.0000
  Ni  Ni3       1.0  0.84972  0.20313  0.50013  1.0000
  Ni  Ni4       1.0  0.14431  0.69999  0.0012700000000000003  1.0000
  Ni  Ni5       1.0  0.9958  0.50136  0.99978  1.0000
  Ni  Ni6       1.0  0.99835  0.003210000000000001  0.50073  1.0000
  H   H1        1.0  0.33182  0.39947  0.18881  1.0000
  H   H2        1.0  0.22309999999999997  0.43427  0.11145000000000002  1.0000
  H   H3        1.0  0.08036  0.16559  0.21333  1.0000
  H   H4        1.0  0.9773599999999999  0.19836  0.13422  1.0000
  H   H5        1.0  0.41100999999999993  0.34294000000000013  0.33729  1.0000
  H   H6        1.0  0.60071  0.12238  0.25880000000000003  1.0000
  H   H7        1.0  0.72245  0.08133  0.33327  1.0000
  H   H8        1.0  0.54263  0.30783  0.41001  1.0000
  H   H9        1.0  0.6596  0.89742  0.31289  1.0000
  H   H10       1.0  0.7684899999999999  0.9353100000000002  0.38935000000000003  1.0000
  H   H11       1.0  0.91571  0.6663100000000002  0.2887700000000001  1.0000
  H   H12       1.0  0.02065  0.7025300000000002  0.3670400000000001  1.0000
  H   H13       1.0  0.57755  0.84481  0.16301000000000002  1.0000
  H   H14       1.0  0.39339  0.62191  0.24429000000000006  1.0000
  H   H15       1.0  0.26349999999999996  0.58487  0.17158000000000007  1.0000
  H   H16       1.0  0.43587  0.80958  0.09263  1.0000
  H   H17       1.0  0.33308  0.10162000000000003  0.31163  1.0000
  H   H18       1.0  0.22513  0.06743  0.38894  1.0000
  H   H19       1.0  0.08054  0.33486  0.28667  1.0000
  H   H20       1.0  0.9769399999999999  0.30278  0.36571  1.0000
  H   H21       1.0  0.41403999999999996  0.15635000000000004  0.16097000000000006  1.0000
  H   H22       1.0  0.59852  0.3753700000000001  0.24179  1.0000
  H   H23       1.0  0.72151  0.41984  0.16814  1.0000
  H   H24       1.0  0.54759  0.19389000000000006  0.08904000000000001  1.0000
  H   H25       1.0  0.66318  0.6038200000000001  0.19085000000000005  1.0000
  H   H26       1.0  0.7690799999999999  0.56568  0.11368000000000003  1.0000
  H   H27       1.0  0.9166  0.83665  0.21279000000000006  1.0000
  H   H28       1.0  0.01969  0.80007  0.13403000000000004  1.0000
  H   H29       1.0  0.58222  0.65544  0.3392  1.0000
  H   H30       1.0  0.39829999999999993  0.87472  0.25797  1.0000
  H   H31       1.0  0.27149  0.9176300000000002  0.33135  1.0000
  H   H32       1.0  0.44580999999999993  0.6926  0.41087  1.0000
  H   H33       1.0  0.65902  0.60415  0.81095  1.0000
  H   H34       1.0  0.76859  0.56696  0.88781  1.0000
  H   H35       1.0  0.91326  0.83706  0.78731  1.0000
  H   H36       1.0  0.01736  0.80127  0.8656100000000001  1.0000
  H   H37       1.0  0.57845  0.65441  0.6619500000000003  1.0000
  H   H38       1.0  0.39142  0.8747900000000002  0.74174  1.0000
  H   H39       1.0  0.27111  0.9188200000000002  0.66748  1.0000
  H   H40       1.0  0.44648999999999994  0.6920800000000001  0.58951  1.0000
  H   H41       1.0  0.3348  0.10371  0.68849  1.0000
  H   H42       1.0  0.22590999999999994  0.06825  0.61163  1.0000
  H   H43       1.0  0.08151  0.33685  0.7130600000000002  1.0000
  H   H44       1.0  0.9761799999999999  0.30218  0.63452  1.0000
  H   H45       1.0  0.41217  0.15696  0.83935  1.0000
  H   H46       1.0  0.59725  0.37584  0.7579900000000003  1.0000
  H   H47       1.0  0.72236  0.4191  0.83149  1.0000
  H   H48       1.0  0.54704  0.1943  0.9110200000000003  1.0000
  H   H49       1.0  0.65745  0.89908  0.6893400000000002  1.0000
  H   H50       1.0  0.7657  0.93596  0.61206  1.0000
  H   H51       1.0  0.9110899999999998  0.66695  0.7134800000000002  1.0000
  H   H52       1.0  0.01609  0.7011500000000002  0.6347800000000001  1.0000
  H   H53       1.0  0.57809  0.84403  0.83744  1.0000
  H   H54       1.0  0.39421  0.6234  0.7579500000000002  1.0000
  H   H55       1.0  0.26809  0.5823500000000003  0.8318600000000003  1.0000
  H   H56       1.0  0.44546  0.8088600000000001  0.90958  1.0000
  H   H57       1.0  0.33441  0.39845000000000014  0.8114300000000001  1.0000
  H   H58       1.0  0.22637  0.4347100000000001  0.8887600000000002  1.0000
  H   H59       1.0  0.0797  0.16665  0.78743  1.0000
  H   H60       1.0  0.97644  0.20100000000000007  0.86647  1.0000
  H   H61       1.0  0.41144  0.34372  0.6629500000000003  1.0000
  H   H62       1.0  0.599  0.12271  0.7413700000000001  1.0000
  H   H63       1.0  0.72096  0.08116  0.66676  1.0000
  H   H64       1.0  0.54332  0.30856  0.59009  1.0000
  C   C1        1.0  0.04013  0.33949000000000007  0.06865  1.0000
  C   C2        1.0  0.21768  0.27742  0.20596000000000006  1.0000
  C   C3        1.0  0.49452  0.23306  0.29357  1.0000
  C   C4        1.0  0.09905999999999998  0.31512  0.11662000000000003  1.0000
  C   C5        1.0  0.25517  0.35451  0.17691  1.0000
  C   C6        1.0  0.19645  0.37352  0.13319000000000003  1.0000
  C   C7        1.0  0.11366  0.22336  0.1907  1.0000
  C   C8        1.0  0.0562  0.24109  0.14623  1.0000
  C   C9        1.0  0.48001999999999995  0.28615  0.33633000000000013  1.0000
  C   C10       1.0  0.5869599999999999  0.16166  0.29221  1.0000
  C   C11       1.0  0.65435  0.13868  0.3334700000000001  1.0000
  C   C12       1.0  0.6375299999999999  0.19035000000000002  0.3763100000000001  1.0000
  C   C13       1.0  0.71349  0.16065000000000004  0.4194600000000001  1.0000
  C   C14       1.0  0.55176  0.26589  0.37722  1.0000
  C   C15       1.0  0.9560199999999999  0.84312  0.43132  1.0000
  C   C16       1.0  0.77669  0.77653  0.29572  1.0000
  C   C17       1.0  0.50034  0.7325  0.20759000000000005  1.0000
  C   C18       1.0  0.8969599999999999  0.8187300000000001  0.38378  1.0000
  C   C19       1.0  0.73778  0.8536700000000003  0.32439  1.0000
  C   C20       1.0  0.79694  0.8750300000000001  0.3675600000000001  1.0000
  C   C21       1.0  0.8822199999999998  0.7241900000000002  0.3111000000000001  1.0000
  C   C22       1.0  0.94045  0.74393  0.35502  1.0000
  C   C23       1.0  0.50974  0.7868900000000001  0.16482  1.0000
  C   C24       1.0  0.40671999999999997  0.66164  0.21074  1.0000
  C   C25       1.0  0.33377  0.64046  0.17078000000000002  1.0000
  C   C26       1.0  0.34581  0.69236  0.12785  1.0000
  C   C27       1.0  0.25747  0.66728  0.08803  1.0000
  C   C28       1.0  0.4316999999999999  0.76729  0.12547  1.0000
  C   C29       1.0  0.03896  0.16102  0.43053000000000013  1.0000
  C   C30       1.0  0.2185  0.22391  0.29419  1.0000
  C   C31       1.0  0.4946  0.26567  0.20576  1.0000
  C   C32       1.0  0.0981  0.18508  0.38279  1.0000
  C   C33       1.0  0.25641  0.14692000000000005  0.32323  1.0000
  C   C34       1.0  0.19728999999999997  0.12745  0.36678  1.0000
  C   C35       1.0  0.11402  0.27763  0.30946  1.0000
  C   C36       1.0  0.05559  0.25969  0.35364  1.0000
  C   C37       1.0  0.48141999999999996  0.21376  0.16260000000000005  1.0000
  C   C38       1.0  0.58586  0.33744  0.20803000000000005  1.0000
  C   C39       1.0  0.65414  0.36215  0.1674  1.0000
  C   C40       1.0  0.6388299999999999  0.3111800000000001  0.12432  1.0000
  C   C41       1.0  0.71824  0.34163  0.08238  1.0000
  C   C42       1.0  0.55446  0.23513000000000003  0.12221  1.0000
  C   C43       1.0  0.9511899999999999  0.6608  0.06908  1.0000
  C   C44       1.0  0.77769  0.7259  0.20657  1.0000
  C   C45       1.0  0.50127  0.7645  0.29466  1.0000
  C   C46       1.0  0.8954  0.68445  0.11754000000000002  1.0000
  C   C47       1.0  0.74012  0.64784  0.17838000000000007  1.0000
  C   C48       1.0  0.7977999999999998  0.62683  0.13475  1.0000
  C   C49       1.0  0.8828899999999998  0.77833  0.19084000000000007  1.0000
  C   C50       1.0  0.9399899999999999  0.7586300000000002  0.14652  1.0000
  C   C51       1.0  0.51324  0.7122800000000001  0.33772  1.0000
  C   C52       1.0  0.40947  0.83622  0.29179  1.0000
  C   C53       1.0  0.34004  0.8605800000000002  0.33227  1.0000
  C   C54       1.0  0.35423  0.81003  0.3756000000000001  1.0000
  C   C55       1.0  0.2735  0.84096  0.4172  1.0000
  C   C56       1.0  0.43915999999999994  0.73408  0.37787  1.0000
  C   C57       1.0  0.95448  0.66033  0.93056  1.0000
  C   C58       1.0  0.7741  0.72583  0.79426  1.0000
  C   C59       1.0  0.49834  0.76548  0.70579  1.0000
  C   C60       1.0  0.89584  0.68451  0.8825400000000002  1.0000
  C   C61       1.0  0.73653  0.64827  0.82296  1.0000
  C   C62       1.0  0.7966199999999999  0.6274900000000002  0.8661500000000001  1.0000
  C   C63       1.0  0.87924  0.7788700000000002  0.80947  1.0000
  C   C64       1.0  0.93816  0.75917  0.85339  1.0000
  C   C65       1.0  0.51167  0.71265  0.6629100000000002  1.0000
  C   C66       1.0  0.40623  0.83706  0.70794  1.0000
  C   C67       1.0  0.33895999999999993  0.86136  0.66704  1.0000
  C   C68       1.0  0.35552  0.81066  0.62398  1.0000
  C   C69       1.0  0.27951999999999994  0.84288  0.58167  1.0000
  C   C70       1.0  0.43923999999999996  0.7340200000000001  0.62233  1.0000
  C   C71       1.0  0.04057  0.16290000000000002  0.56924  1.0000
  C   C72       1.0  0.21889999999999996  0.22558000000000006  0.70582  1.0000
  C   C73       1.0  0.4943699999999999  0.26571  0.7941700000000002  1.0000
  C   C74       1.0  0.09897  0.18609  0.61715  1.0000
  C   C75       1.0  0.25687  0.14819  0.67704  1.0000
  C   C76       1.0  0.19785  0.12845  0.63353  1.0000
  C   C77       1.0  0.11396  0.27877  0.69056  1.0000
  C   C78       1.0  0.055729999999999995  0.26006  0.64647  1.0000
  C   C79       1.0  0.48088  0.21366  0.83736  1.0000
  C   C80       1.0  0.58579  0.33738000000000007  0.7917100000000001  1.0000
  C   C81       1.0  0.65462  0.3616600000000001  0.8322000000000003  1.0000
  C   C82       1.0  0.6390599999999999  0.3108  0.87534  1.0000
  C   C83       1.0  0.71717  0.34179  0.9174900000000001  1.0000
  C   C84       1.0  0.55431  0.23494000000000007  0.87761  1.0000
  C   C85       1.0  0.9572999999999998  0.8443  0.5709  1.0000
  C   C86       1.0  0.77349  0.77831  0.7061100000000001  1.0000
  C   C87       1.0  0.49697  0.7340100000000003  0.7935500000000001  1.0000
  C   C88       1.0  0.89484  0.81875  0.6179300000000001  1.0000
  C   C89       1.0  0.73493  0.85512  0.6771800000000002  1.0000
  C   C90       1.0  0.7944499999999998  0.8755800000000001  0.63381  1.0000
  C   C91       1.0  0.87795  0.7246600000000002  0.6908800000000003  1.0000
  C   C92       1.0  0.93677  0.74354  0.64686  1.0000
  C   C93       1.0  0.5101099999999998  0.7868400000000002  0.8363800000000002  1.0000
  C   C94       1.0  0.40570999999999996  0.66214  0.79166  1.0000
  C   C95       1.0  0.33741  0.6388  0.8326  1.0000
  C   C96       1.0  0.35256  0.6905800000000001  0.8756300000000002  1.0000
  C   C97       1.0  0.27105  0.6622900000000002  0.91751  1.0000
  C   C98       1.0  0.43793  0.76599  0.87707  1.0000
  C   C99       1.0  0.03963  0.3425  0.9308400000000001  1.0000
  C   C100      1.0  0.21778  0.2778  0.7944800000000002  1.0000
  C   C101      1.0  0.49424  0.23374  0.70654  1.0000
  C   C102      1.0  0.09868  0.31749  0.88318  1.0000
  C   C103      1.0  0.25659  0.3545800000000001  0.82335  1.0000
  C   C104      1.0  0.19815999999999998  0.37446  0.86699  1.0000
  C   C105      1.0  0.11314999999999999  0.22443  0.80984  1.0000
  C   C106      1.0  0.05567  0.24301000000000006  0.85416  1.0000
  C   C107      1.0  0.4799399999999999  0.28682  0.66385  1.0000
  C   C108      1.0  0.58579  0.16183  0.7079500000000001  1.0000
  C   C109      1.0  0.65341  0.13886  0.66681  1.0000
  C   C110      1.0  0.6377599999999999  0.19132  0.6242  1.0000
  C   C111      1.0  0.71808  0.16252  0.58201  1.0000
  C   C112      1.0  0.55214  0.26693  0.62301  1.0000
  C   C113      1.0  0.28836  0.25055  0.24996000000000004  1.0000
  C   C114      1.0  0.41811  0.2493  0.24965  1.0000
  C   C115      1.0  0.7080899999999999  0.75068  0.25112  1.0000
  C   C116      1.0  0.57841  0.74844  0.25105  1.0000
  C   C117      1.0  0.70359  0.75183  0.7502400000000002  1.0000
  C   C118      1.0  0.57392  0.75009  0.74988  1.0000
  C   C119      1.0  0.28805  0.25148  0.7502400000000002  1.0000
  C   C120      1.0  0.4177199999999999  0.25015  0.75041  1.0000
  O   O1        1.0  0.96706  0.27687  0.0501  1.0000
  O   O2        1.0  0.0681  0.4194200000000001  0.05192  1.0000
  O   O3        1.0  0.72539  0.22509  0.45290000000000014  1.0000
  O   O4        1.0  0.76052  0.08023  0.42029  1.0000
  O   O5        1.0  0.0251  0.77904  0.45101  1.0000
  O   O6        1.0  0.9291499999999998  0.92326  0.44794  1.0000
  O   O7        1.0  0.26905  0.71889  0.04892  1.0000
  O   O8        1.0  0.18131999999999998  0.60186  0.09485000000000003  1.0000
  O   O9        1.0  0.96697  0.22384  0.44965000000000005  1.0000
  O   O10       1.0  0.06689  0.08107000000000002  0.44733000000000006  1.0000
  O   O11       1.0  0.72379  0.28074  0.04683000000000001  1.0000
  O   O12       1.0  0.77423  0.41864  0.08415  1.0000
  O   O13       1.0  0.02304  0.7240800000000001  0.05007000000000002  1.0000
  O   O14       1.0  0.9164399999999998  0.5838  0.05075  1.0000
  O   O15       1.0  0.26629  0.78064  0.45292  1.0000
  O   O16       1.0  0.21934  0.91903  0.4149100000000001  1.0000
  O   O17       1.0  0.02681  0.7231600000000002  0.9494500000000001  1.0000
  O   O18       1.0  0.9233399999999999  0.5810100000000002  0.94744  1.0000
  O   O19       1.0  0.26765999999999995  0.7804100000000003  0.5472  1.0000
  O   O20       1.0  0.23244999999999996  0.92321  0.5826000000000002  1.0000
  O   O21       1.0  0.96716  0.22527  0.55052  1.0000
  O   O22       1.0  0.07336999999999999  0.08463000000000002  0.55172  1.0000
  O   O23       1.0  0.7229  0.28079  0.95297  1.0000
  O   O24       1.0  0.77227  0.41933  0.9159600000000002  1.0000
  O   O25       1.0  0.026149999999999996  0.78021  0.55096  1.0000
  O   O26       1.0  0.93347  0.9261  0.55548  1.0000
  O   O27       1.0  0.2706  0.7193400000000002  0.9548700000000002  1.0000
  O   O28       1.0  0.20856  0.58849  0.9137000000000002  1.0000
  O   O29       1.0  0.96617  0.28085  0.94989  1.0000
  O   O30       1.0  0.06879999999999999  0.42217  0.94752  1.0000
  O   O31       1.0  0.72533  0.22448  0.5470700000000001  1.0000
  O   O32       1.0  0.77493  0.08536000000000003  0.58301  1.0000
  O   O33       1.0  0.85027  0.43265  2e-05  1.0000
  O   O34       1.0  0.1434  0.9334600000000001  0.4999800000000001  1.0000
  O   O35       1.0  0.8528899999999999  0.07141  0.50078  1.0000
  O   O36       1.0  0.1397  0.56893  0.0013200000000000004  1.0000
