data_image0
_chemical_formula_structural       Cd8H128C164N16O48
_chemical_formula_sum              "Cd8 H128 C164 N16 O48"
_cell_length_a       13.92369
_cell_length_b       20.80366
_cell_length_c       20.79305
_cell_angle_alpha    61.96629999999999
_cell_angle_beta     70.47926
_cell_angle_gamma    70.45295

_space_group_name_H-M_alt    "P 1"
_space_group_IT_number       1

loop_
  _space_group_symop_operation_xyz
  'x, y, z'

loop_
  _atom_site_type_symbol
  _atom_site_label
  _atom_site_symmetry_multiplicity
  _atom_site_fract_x
  _atom_site_fract_y
  _atom_site_fract_z
  _atom_site_occupancy
  Cd  Cd1       1.0  0.21053  0.70878  0.08764  1.0000
  Cd  Cd2       1.0  0.9929599999999996  0.58812  0.20911  1.0000
  Cd  Cd3       1.0  0.71045  0.08811000000000001  0.70854  1.0000
  Cd  Cd4       1.0  0.49309  0.20900999999999995  0.58821  1.0000
  Cd  Cd5       1.0  0.28954  0.9118799999999999  0.2914599999999999  1.0000
  Cd  Cd6       1.0  0.50691  0.79098  0.41179  1.0000
  Cd  Cd7       1.0  0.78947  0.29121999999999987  0.91236  1.0000
  Cd  Cd8       1.0  0.007039999999999951  0.4118800000000001  0.79089  1.0000
  H   H1        1.0  0.49018000000000017  0.8542499999999998  0.9275599999999999  1.0000
  H   H2        1.0  0.5520199999999998  0.9664800000000002  0.8211799999999999  1.0000
  H   H3        1.0  0.24903999999999996  0.051160000000000025  0.76655  1.0000
  H   H4        1.0  0.19198999999999994  0.93545  0.86891  1.0000
  H   H5        1.0  0.2361699999999999  0.70181  0.93181  1.0000
  H   H6        1.0  0.30772000000000005  0.6153  0.86684  1.0000
  H   H7        1.0  0.42079  0.4476899999999999  0.06425  1.0000
  H   H8        1.0  0.34697000000000006  0.5419  0.11986999999999999  1.0000
  H   H9        1.0  0.43370000000000003  0.48791999999999996  0.82396  1.0000
  H   H10       1.0  0.3013499999999999  0.5151800000000001  0.8676099999999999  1.0000
  H   H11       1.0  0.5137499999999999  0.35637  0.85403  1.0000
  H   H12       1.0  0.48571  0.3266  0.95138  1.0000
  H   H13       1.0  0.41617  0.13948  0.93737  1.0000
  H   H14       1.0  0.5211799999999999  0.07075000000000005  0.8560099999999998  1.0000
  H   H15       1.0  0.6965199999999997  0.23219000000000006  0.7242899999999999  1.0000
  H   H16       1.0  0.6071600000000001  0.30437000000000003  0.80144  1.0000
  H   H17       1.0  0.72868  0.42605  0.3534999999999999  1.0000
  H   H18       1.0  0.6614499999999998  0.31965000000000005  0.46585  1.0000
  H   H19       1.0  0.9335899999999999  0.2660899999999999  0.55081  1.0000
  H   H20       1.0  0.0030200000000000417  0.36973  0.4355799999999999  1.0000
  H   H21       1.0  0.13130000000000006  0.43200999999999995  0.20252  1.0000
  H   H22       1.0  0.2101499999999999  0.36634  0.11655  1.0000
  H   H23       1.0  0.06638999999999998  0.5626499999999999  0.94895  1.0000
  H   H24       1.0  0.9916399999999999  0.61917  0.04262  1.0000
  H   H25       1.0  0.25246999999999986  0.32281  0.9891899999999999  1.0000
  H   H26       1.0  0.31471  0.36573  0.01668  1.0000
  H   H27       1.0  0.27454999999999996  0.35313000000000005  0.85733  1.0000
  H   H28       1.0  0.23478999999999994  0.4504200000000001  0.82852  1.0000
  H   H29       1.0  0.50571  0.43787999999999994  0.64032  1.0000
  H   H30       1.0  0.55269  0.35598  0.5721199999999999  1.0000
  H   H31       1.0  0.34782999999999986  0.22391  0.7328499999999999  1.0000
  H   H32       1.0  0.28615000000000007  0.3012899999999999  0.80473  1.0000
  H   H33       1.0  0.9908899999999999  0.9278899999999999  0.8538699999999998  1.0000
  H   H34       1.0  0.05273999999999999  0.82108  0.96571  1.0000
  H   H35       1.0  0.7500100000000001  0.76663  0.04989  1.0000
  H   H36       1.0  0.6922899999999997  0.8697699999999998  0.93468  1.0000
  H   H37       1.0  0.7360099999999999  0.93176  0.70192  1.0000
  H   H38       1.0  0.80762  0.8668399999999999  0.61533  1.0000
  H   H39       1.0  0.9206799999999997  0.06412999999999999  0.4478  1.0000
  H   H40       1.0  0.8467999999999996  0.11972999999999999  0.54204  1.0000
  H   H41       1.0  0.9337099999999999  0.8240099999999999  0.48797999999999997  1.0000
  H   H42       1.0  0.8013899999999999  0.86765  0.51516  1.0000
  H   H43       1.0  0.0140600000000001  0.8541999999999997  0.35638  1.0000
  H   H44       1.0  0.9855300000000001  0.95153  0.32647999999999994  1.0000
  H   H45       1.0  0.91627  0.93734  0.13941  1.0000
  H   H46       1.0  0.02098000000000006  0.8560799999999998  0.07063  1.0000
  H   H47       1.0  0.19618999999999998  0.7239199999999999  0.23235000000000003  1.0000
  H   H48       1.0  0.10680999999999989  0.8009100000000001  0.30466  1.0000
  H   H49       1.0  0.2288299999999998  0.35322  0.42609  1.0000
  H   H50       1.0  0.16127999999999978  0.46578  0.31991  1.0000
  H   H51       1.0  0.43341  0.55057  0.26645  1.0000
  H   H52       1.0  0.5030399999999996  0.43522  0.37002  1.0000
  H   H53       1.0  0.6308499999999998  0.20247999999999997  0.43231  1.0000
  H   H54       1.0  0.7100199999999999  0.11669999999999997  0.36642  1.0000
  H   H55       1.0  0.5665099999999997  0.9489200000000002  0.56253  1.0000
  H   H56       1.0  0.49166999999999994  0.04236000000000008  0.6193499999999998  1.0000
  H   H57       1.0  0.7525900000000001  0.98942  0.32264999999999994  1.0000
  H   H58       1.0  0.81492  0.016640000000000044  0.36570999999999987  1.0000
  H   H59       1.0  0.77476  0.8574  0.35289  1.0000
  H   H60       1.0  0.7348099999999995  0.82872  0.4502  1.0000
  H   H61       1.0  0.005760000000000056  0.64027  0.43805999999999995  1.0000
  H   H62       1.0  0.052840000000000116  0.5720499999999998  0.35620999999999997  1.0000
  H   H63       1.0  0.8481300000000002  0.7327299999999999  0.22380999999999998  1.0000
  H   H64       1.0  0.7863799999999999  0.80467  0.30116  1.0000
  H   H65       1.0  0.009110000000000012  0.0721  0.14613  1.0000
  H   H66       1.0  0.9472599999999998  0.17892  0.03429  1.0000
  H   H67       1.0  0.24999  0.23336999999999997  0.95011  1.0000
  H   H68       1.0  0.30771  0.13021999999999997  0.06532  1.0000
  H   H69       1.0  0.2639899999999999  0.06824  0.29808  1.0000
  H   H70       1.0  0.19237999999999994  0.13315999999999997  0.38467  1.0000
  H   H71       1.0  0.07931999999999997  0.93587  0.55219  1.0000
  H   H72       1.0  0.15319000000000005  0.8802699999999999  0.45796  1.0000
  H   H73       1.0  0.06629  0.17599  0.51202  1.0000
  H   H74       1.0  0.19861  0.13235  0.48483999999999994  1.0000
  H   H75       1.0  0.9859399999999994  0.1458  0.64362  1.0000
  H   H76       1.0  0.014469999999999986  0.048470000000000006  0.67352  1.0000
  H   H77       1.0  0.08372000000000003  0.06265999999999994  0.86059  1.0000
  H   H78       1.0  0.9790199999999999  0.14392000000000002  0.9293699999999999  1.0000
  H   H79       1.0  0.80381  0.2760699999999999  0.76765  1.0000
  H   H80       1.0  0.8931899999999996  0.19907999999999995  0.69534  1.0000
  H   H81       1.0  0.7711699999999999  0.6467799999999999  0.57391  1.0000
  H   H82       1.0  0.8387199999999999  0.53422  0.68009  1.0000
  H   H83       1.0  0.5665899999999999  0.44942  0.73355  1.0000
  H   H84       1.0  0.4969599999999999  0.56477  0.62998  1.0000
  H   H85       1.0  0.36914999999999976  0.79752  0.56769  1.0000
  H   H86       1.0  0.28997999999999985  0.8833  0.63358  1.0000
  H   H87       1.0  0.4334899999999998  0.05107999999999999  0.43747  1.0000
  H   H88       1.0  0.5083300000000001  0.9576400000000002  0.38065  1.0000
  H   H89       1.0  0.24740999999999996  0.010580000000000036  0.67735  1.0000
  H   H90       1.0  0.18508  0.9833599999999998  0.63429  1.0000
  H   H91       1.0  0.22524  0.14259999999999998  0.64711  1.0000
  H   H92       1.0  0.26518999999999987  0.17127999999999996  0.5498  1.0000
  H   H93       1.0  0.99423  0.35972999999999994  0.56194  1.0000
  H   H94       1.0  0.9471600000000001  0.42794999999999994  0.64379  1.0000
  H   H95       1.0  0.15187000000000006  0.26725999999999994  0.7761899999999999  1.0000
  H   H96       1.0  0.21362000000000003  0.19532999999999995  0.69884  1.0000
  H   H97       1.0  0.50982  0.14574999999999996  0.07244  1.0000
  H   H98       1.0  0.44798000000000004  0.033519999999999994  0.17882  1.0000
  H   H99       1.0  0.7509599999999997  0.9488400000000001  0.23345  1.0000
  H   H100      1.0  0.8080099999999998  0.06455  0.13109  1.0000
  H   H101      1.0  0.7638299999999998  0.29819  0.06819  1.0000
  H   H102      1.0  0.6922799999999998  0.38469999999999993  0.13316  1.0000
  H   H103      1.0  0.5792099999999998  0.55231  0.93575  1.0000
  H   H104      1.0  0.65303  0.4581  0.88013  1.0000
  H   H105      1.0  0.5662999999999998  0.5120799999999999  0.17604  1.0000
  H   H106      1.0  0.6986499999999998  0.48480999999999996  0.13238999999999998  1.0000
  H   H107      1.0  0.48624999999999996  0.64363  0.14597  1.0000
  H   H108      1.0  0.5142900000000001  0.6733999999999999  0.04861999999999998  1.0000
  H   H109      1.0  0.58383  0.86052  0.06263  1.0000
  H   H110      1.0  0.47881999999999997  0.92924  0.14399  1.0000
  H   H111      1.0  0.30348000000000014  0.7677999999999998  0.27571  1.0000
  H   H112      1.0  0.3928400000000001  0.6956299999999999  0.19856  1.0000
  H   H113      1.0  0.27132000000000006  0.57394  0.6464899999999999  1.0000
  H   H114      1.0  0.3385499999999997  0.68034  0.53415  1.0000
  H   H115      1.0  0.06640999999999984  0.73391  0.44919  1.0000
  H   H116      1.0  0.9969799999999998  0.63026  0.56442  1.0000
  H   H117      1.0  0.8686999999999999  0.56799  0.79748  1.0000
  H   H118      1.0  0.7898499999999996  0.63366  0.88345  1.0000
  H   H119      1.0  0.9336100000000002  0.43735  0.05105  1.0000
  H   H120      1.0  0.008350000000000092  0.38083000000000006  0.9573799999999999  1.0000
  H   H121      1.0  0.74753  0.67719  0.01081  1.0000
  H   H122      1.0  0.6852899999999994  0.6342700000000001  0.98332  1.0000
  H   H123      1.0  0.7254499999999998  0.64687  0.14267  1.0000
  H   H124      1.0  0.7652099999999998  0.5495699999999999  0.17148  1.0000
  H   H125      1.0  0.49428999999999984  0.56212  0.35968  1.0000
  H   H126      1.0  0.4473  0.6440099999999999  0.42788  1.0000
  H   H127      1.0  0.6521600000000001  0.77608  0.26715  1.0000
  H   H128      1.0  0.7138399999999999  0.69871  0.19526999999999994  1.0000
  C   C1        1.0  0.3009799999999999  0.82059  0.96685  1.0000
  C   C2        1.0  0.3378899999999999  0.8882  0.90405  1.0000
  C   C3        1.0  0.43891000000000013  0.8974299999999998  0.89111  1.0000
  C   C4        1.0  0.47274  0.9602  0.83229  1.0000
  C   C5        1.0  0.40421999999999997  0.015829999999999983  0.78703  1.0000
  C   C6        1.0  0.30217000000000005  0.007409999999999974  0.80114  1.0000
  C   C7        1.0  0.2698599999999999  0.94369  0.85839  1.0000
  C   C8        1.0  0.4393899999999998  0.08267999999999999  0.72251  1.0000
  C   C9        1.0  0.2771799999999999  0.6447299999999999  0.9592400000000001  1.0000
  C   C10       1.0  0.31706000000000006  0.59618  0.9232399999999998  1.0000
  C   C11       1.0  0.36862  0.5233399999999998  0.96166  1.0000
  C   C12       1.0  0.38027  0.50352  0.03351  1.0000
  C   C13       1.0  0.33891  0.55575  0.06437999999999999  1.0000
  C   C14       1.0  0.3739700000000001  0.47298  0.87568  1.0000
  C   C15       1.0  0.45456999999999986  0.33704000000000006  0.90459  1.0000
  C   C16       1.0  0.50021  0.2291  0.87514  1.0000
  C   C17       1.0  0.47849  0.1612300000000001  0.8909099999999998  1.0000
  C   C18       1.0  0.5361700000000001  0.12332000000000001  0.84556  1.0000
  C   C19       1.0  0.63426  0.21326999999999996  0.77241  1.0000
  C   C20       1.0  0.5822  0.25434  0.81538  1.0000
  C   C21       1.0  0.9106899999999999  0.46704000000000007  0.32041  1.0000
  C   C22       1.0  0.86988  0.40370999999999996  0.38788  1.0000
  C   C23       1.0  0.77328  0.38986999999999994  0.39674  1.0000
  C   C24       1.0  0.7357499999999997  0.33098  0.45957  1.0000
  C   C25       1.0  0.7939  0.28613999999999995  0.51529  1.0000
  C   C26       1.0  0.88988  0.30072  0.50692  1.0000
  C   C27       1.0  0.9281600000000001  0.35837  0.44340999999999997  1.0000
  C   C28       1.0  0.7568399999999998  0.22163  0.58241  1.0000
  C   C29       1.0  0.11965  0.45908999999999994  0.14551  1.0000
  C   C30       1.0  0.16374999999999995  0.42274999999999996  0.09723999999999997  1.0000
  C   C31       1.0  0.14622  0.46072  0.024489999999999998  1.0000
  C   C32       1.0  0.08253  0.53251  0.00455  1.0000
  C   C33       1.0  0.0414100000000001  0.5637499999999999  0.05649  1.0000
  C   C34       1.0  0.27616000000000007  0.3742399999999999  0.9743099999999999  1.0000
  C   C35       1.0  0.30230000000000024  0.40368  0.83839  1.0000
  C   C36       1.0  0.39448  0.37518000000000007  0.72998  1.0000
  C   C37       1.0  0.4685799999999999  0.39116000000000006  0.66219  1.0000
  C   C38       1.0  0.49512  0.34555  0.62445  1.0000
  C   C39       1.0  0.3803799999999998  0.2722  0.71394  1.0000
  C   C40       1.0  0.34749999999999986  0.31529000000000007  0.7549099999999999  1.0000
  C   C41       1.0  0.8017499999999999  0.96786  0.82025  1.0000
  C   C42       1.0  0.8384499999999998  0.9046899999999998  0.88766  1.0000
  C   C43       1.0  0.9396200000000001  0.8913400000000002  0.89687  1.0000
  C   C44       1.0  0.9734499999999997  0.83222  0.9595199999999999  1.0000
  C   C45       1.0  0.9048400000000001  0.78703  0.01509  1.0000
  C   C46       1.0  0.8029399999999998  0.80134  0.0063  1.0000
  C   C47       1.0  0.7703599999999997  0.85896  0.9428199999999999  1.0000
  C   C48       1.0  0.9393799999999997  0.7224599999999999  0.08233  1.0000
  C   C49       1.0  0.7770599999999998  0.9591799999999999  0.6448399999999997  1.0000
  C   C50       1.0  0.81698  0.9231999999999998  0.59626  1.0000
  C   C51       1.0  0.8685499999999999  0.9616000000000002  0.52343  1.0000
  C   C52       1.0  0.88019  0.033410000000000016  0.50364  1.0000
  C   C53       1.0  0.8387799999999997  0.06425  0.55589  1.0000
  C   C54       1.0  0.8739900000000002  0.8757099999999998  0.47297  1.0000
  C   C55       1.0  0.9546600000000001  0.90462  0.33702  1.0000
  C   C56       1.0  0.0002700000000000315  0.8749999999999999  0.22913  1.0000
  C   C57       1.0  0.97855  0.89085  0.16118  1.0000
  C   C58       1.0  0.036139999999999964  0.84556  0.12321  1.0000
  C   C59       1.0  0.13410000000000008  0.77215  0.2133  1.0000
  C   C60       1.0  0.0820399999999999  0.81504  0.25447  1.0000
  C   C61       1.0  0.41102  0.32008  0.46697  1.0000
  C   C62       1.0  0.37002  0.38757  0.40378  1.0000
  C   C63       1.0  0.2733299999999999  0.39652000000000004  0.38999  1.0000
  C   C64       1.0  0.23566999999999974  0.45945  0.33116  1.0000
  C   C65       1.0  0.2937599999999999  0.5151599999999997  0.2863  1.0000
  C   C66       1.0  0.38974000000000003  0.5066999999999999  0.30099  1.0000
  C   C67       1.0  0.4281499999999999  0.44315  0.35861  1.0000
  C   C68       1.0  0.2569399999999999  0.58229  0.22155  1.0000
  C   C69       1.0  0.61943  0.14544999999999994  0.45931  1.0000
  C   C70       1.0  0.6636499999999999  0.09727999999999999  0.42284  1.0000
  C   C71       1.0  0.6462399999999998  0.02455000000000001  0.4607  1.0000
  C   C72       1.0  0.5825899999999996  0.004509999999999999  0.53251  1.0000
  C   C73       1.0  0.5414  0.05630999999999999  0.56391  1.0000
  C   C74       1.0  0.77625  0.9743899999999998  0.37417  1.0000
  C   C75       1.0  0.8023999999999997  0.83849  0.40353  1.0000
  C   C76       1.0  0.8945900000000001  0.72996  0.37522  1.0000
  C   C77       1.0  0.9686699999999998  0.66216  0.39127999999999996  1.0000
  C   C78       1.0  0.9952599999999994  0.62437  0.34568  1.0000
  C   C79       1.0  0.8806299999999997  0.71386  0.27215  1.0000
  C   C80       1.0  0.84772  0.75486  0.31523  1.0000
  C   C81       1.0  0.35224999999999984  0.39652000000000004  0.8978999999999999  1.0000
  C   C82       1.0  0.8523199999999999  0.8979399999999998  0.39645  1.0000
  C   C83       1.0  0.19824999999999998  0.03212999999999999  0.17975  1.0000
  C   C84       1.0  0.16155000000000003  0.09530999999999998  0.11234  1.0000
  C   C85       1.0  0.060380000000000024  0.10865999999999999  0.10313  1.0000
  C   C86       1.0  0.026549999999999994  0.16778  0.04048  1.0000
  C   C87       1.0  0.09516000000000005  0.21297000000000005  0.9849099999999998  1.0000
  C   C88       1.0  0.19705999999999987  0.19866000000000003  0.9936999999999999  1.0000
  C   C89       1.0  0.22963999999999993  0.14104  0.05718000000000001  1.0000
  C   C90       1.0  0.060609999999999914  0.27754  0.91767  1.0000
  C   C91       1.0  0.2229399999999999  0.04081999999999999  0.35516  1.0000
  C   C92       1.0  0.18302  0.07679999999999998  0.40374  1.0000
  C   C93       1.0  0.13145000000000007  0.03839999999999999  0.47657  1.0000
  C   C94       1.0  0.11980999999999999  0.96659  0.49635999999999997  1.0000
  C   C95       1.0  0.16121999999999997  0.9357499999999999  0.44411  1.0000
  C   C96       1.0  0.12601000000000004  0.12428000000000006  0.5270299999999999  1.0000
  C   C97       1.0  0.045340000000000005  0.09537000000000001  0.6629799999999999  1.0000
  C   C98       1.0  0.9997299999999998  0.125  0.77087  1.0000
  C   C99       1.0  0.021449999999999966  0.10915  0.83882  1.0000
  C   C100      1.0  0.96386  0.15443999999999994  0.87679  1.0000
  C   C101      1.0  0.8658899999999998  0.22784000000000007  0.7866999999999997  1.0000
  C   C102      1.0  0.9179599999999997  0.18496000000000004  0.74553  1.0000
  C   C103      1.0  0.5889800000000003  0.6799199999999999  0.53303  1.0000
  C   C104      1.0  0.6299799999999998  0.6124300000000001  0.59622  1.0000
  C   C105      1.0  0.7266700000000001  0.6034799999999999  0.6100099999999999  1.0000
  C   C106      1.0  0.76433  0.5405500000000001  0.6688399999999999  1.0000
  C   C107      1.0  0.7062400000000001  0.48484  0.7137  1.0000
  C   C108      1.0  0.6102600000000002  0.4932999999999999  0.69901  1.0000
  C   C109      1.0  0.5718500000000001  0.5568499999999997  0.64139  1.0000
  C   C110      1.0  0.7430599999999996  0.41770999999999997  0.77844  1.0000
  C   C111      1.0  0.3805699999999999  0.85455  0.54069  1.0000
  C   C112      1.0  0.3363500000000002  0.9027099999999999  0.57716  1.0000
  C   C113      1.0  0.3537600000000001  0.97545  0.5393  1.0000
  C   C114      1.0  0.41741  0.99549  0.46749  1.0000
  C   C115      1.0  0.45859999999999984  0.94369  0.43609  1.0000
  C   C116      1.0  0.22374999999999998  0.025609999999999987  0.62583  1.0000
  C   C117      1.0  0.19760000000000005  0.1615  0.59647  1.0000
  C   C118      1.0  0.10540999999999999  0.27004  0.62478  1.0000
  C   C119      1.0  0.031330000000000045  0.3378399999999999  0.6087199999999999  1.0000
  C   C120      1.0  0.004740000000000004  0.37562  0.65432  1.0000
  C   C121      1.0  0.11937000000000003  0.28613  0.72785  1.0000
  C   C122      1.0  0.1522800000000001  0.24513999999999989  0.6847699999999999  1.0000
  C   C123      1.0  0.69902  0.17939999999999998  0.03315  1.0000
  C   C124      1.0  0.6621099999999998  0.11179999999999998  0.09595  1.0000
  C   C125      1.0  0.5610899999999999  0.10256  0.10889  1.0000
  C   C126      1.0  0.5272599999999997  0.0398  0.16771  1.0000
  C   C127      1.0  0.5957800000000002  0.9841699999999999  0.21297  1.0000
  C   C128      1.0  0.6978300000000001  0.9925899999999999  0.19886  1.0000
  C   C129      1.0  0.73014  0.05629999999999999  0.14161  1.0000
  C   C130      1.0  0.56061  0.91732  0.27749  1.0000
  C   C131      1.0  0.7228199999999998  0.35527  0.04075  1.0000
  C   C132      1.0  0.68293  0.40381  0.07676  1.0000
  C   C133      1.0  0.63138  0.47665  0.03833999999999999  1.0000
  C   C134      1.0  0.6197199999999997  0.4964699999999999  0.96649  1.0000
  C   C135      1.0  0.6610899999999997  0.4442500000000001  0.93562  1.0000
  C   C136      1.0  0.62603  0.52701  0.12432  1.0000
  C   C137      1.0  0.5454299999999997  0.66296  0.09541  1.0000
  C   C138      1.0  0.49979000000000007  0.7708999999999998  0.12486  1.0000
  C   C139      1.0  0.5215099999999999  0.8387699999999999  0.10909  1.0000
  C   C140      1.0  0.4638300000000001  0.8766699999999998  0.15444  1.0000
  C   C141      1.0  0.36573999999999995  0.78672  0.22759000000000001  1.0000
  C   C142      1.0  0.4178000000000001  0.7456499999999998  0.18462  1.0000
  C   C143      1.0  0.08931000000000008  0.5329499999999998  0.6795899999999999  1.0000
  C   C144      1.0  0.13012  0.5962899999999999  0.61212  1.0000
  C   C145      1.0  0.2267200000000001  0.6101299999999998  0.60326  1.0000
  C   C146      1.0  0.2642499999999999  0.6690200000000001  0.54043  1.0000
  C   C147      1.0  0.2061000000000001  0.71386  0.4847099999999999  1.0000
  C   C148      1.0  0.11011999999999998  0.69927  0.49308  1.0000
  C   C149      1.0  0.07183000000000002  0.64163  0.55659  1.0000
  C   C150      1.0  0.24316000000000013  0.77837  0.41759  1.0000
  C   C151      1.0  0.8803500000000001  0.5409  0.85449  1.0000
  C   C152      1.0  0.8362499999999995  0.5772400000000001  0.90276  1.0000
  C   C153      1.0  0.8537799999999999  0.5392799999999999  0.9755100000000001  1.0000
  C   C154      1.0  0.9174599999999998  0.46749  0.99545  1.0000
  C   C155      1.0  0.9585899999999999  0.43625  0.94351  1.0000
  C   C156      1.0  0.7238399999999999  0.62576  0.025689999999999998  1.0000
  C   C157      1.0  0.69769  0.59632  0.16161  1.0000
  C   C158      1.0  0.60552  0.6248199999999999  0.27002  1.0000
  C   C159      1.0  0.53142  0.60884  0.33781  1.0000
  C   C160      1.0  0.5048699999999998  0.65445  0.37555  1.0000
  C   C161      1.0  0.6196199999999998  0.7277999999999998  0.2860599999999999  1.0000
  C   C162      1.0  0.6525  0.68471  0.24509  1.0000
  C   C163      1.0  0.14767999999999992  0.10206000000000001  0.60355  1.0000
  C   C164      1.0  0.64775  0.6034699999999998  0.1021  1.0000
  N   N1        1.0  0.28681999999999996  0.62543  0.02867  1.0000
  N   N2        1.0  0.6127199999999999  0.14902  0.7860899999999998  1.0000
  N   N3        1.0  0.060120000000000014  0.52855  0.12598  1.0000
  N   N4        1.0  0.4530600000000002  0.28578999999999993  0.64996  1.0000
  N   N5        1.0  0.78667  0.028570000000000047  0.6255499999999999  1.0000
  N   N6        1.0  0.11270000000000015  0.7860299999999998  0.14887  1.0000
  N   N7        1.0  0.5599999999999999  0.12578999999999999  0.5288  1.0000
  N   N8        1.0  0.9532599999999996  0.64985  0.28586  1.0000
  N   N9        1.0  0.21333000000000008  0.9714199999999998  0.37445  1.0000
  N   N10       1.0  0.8873000000000001  0.21397  0.85113  1.0000
  N   N11       1.0  0.43999999999999995  0.87421  0.47119999999999995  1.0000
  N   N12       1.0  0.04674000000000002  0.35015  0.71414  1.0000
  N   N13       1.0  0.7131700000000002  0.37457  0.97133  1.0000
  N   N14       1.0  0.38727999999999996  0.85097  0.21391  1.0000
  N   N15       1.0  0.9398799999999996  0.4714400000000001  0.87402  1.0000
  N   N16       1.0  0.5469399999999998  0.7141999999999998  0.35004  1.0000
  O   O1        1.0  0.21348000000000003  0.81099  0.96858  1.0000
  O   O2        1.0  0.35546000000000005  0.7770499999999999  0.01555  1.0000
  O   O3        1.0  0.37229  0.13293999999999995  0.6849  1.0000
  O   O4        1.0  0.5345900000000001  0.08722000000000005  0.7041999999999999  1.0000
  O   O5        1.0  0.4108800000000001  0.46909999999999996  0.93517  1.0000
  O   O6        1.0  0.4362999999999998  0.26641  0.91822  1.0000
  O   O7        1.0  0.004920000000000003  0.47083  0.31158  1.0000
  O   O8        1.0  0.8517100000000003  0.5140899999999999  0.2759  1.0000
  O   O9        1.0  0.8112499999999998  0.18443  0.63265  1.0000
  O   O10       1.0  0.6754099999999997  0.20294999999999996  0.58727  1.0000
  O   O11       1.0  0.18403999999999998  0.43397999999999987  0.9704  1.0000
  O   O12       1.0  0.37691999999999987  0.41825999999999997  0.76745  1.0000
  O   O13       1.0  0.7131900000000001  0.9708399999999998  0.81116  1.0000
  O   O14       1.0  0.8573299999999999  0.015610000000000018  0.77623  1.0000
  O   O15       1.0  0.8720500000000001  0.68509  0.1325  1.0000
  O   O16       1.0  0.034480000000000045  0.7038299999999998  0.08741  1.0000
  O   O17       1.0  0.91088  0.93513  0.46916  1.0000
  O   O18       1.0  0.9365299999999999  0.9181799999999999  0.26634  1.0000
  O   O19       1.0  0.5050499999999998  0.31149999999999994  0.47100999999999993  1.0000
  O   O20       1.0  0.35214  0.27545  0.51373  1.0000
  O   O21       1.0  0.3119300000000001  0.63212  0.1842  1.0000
  O   O22       1.0  0.17537999999999998  0.58742  0.2028  1.0000
  O   O23       1.0  0.6841199999999998  0.9705199999999998  0.43388999999999994  1.0000
  O   O24       1.0  0.8769899999999999  0.7675  0.41826  1.0000
  O   O25       1.0  0.28681  0.02915  0.18884  1.0000
  O   O26       1.0  0.14267000000000007  0.9843799999999999  0.22376999999999997  1.0000
  O   O27       1.0  0.12794999999999998  0.31490999999999997  0.8675  1.0000
  O   O28       1.0  0.9655199999999999  0.29617000000000004  0.9125899999999999  1.0000
  O   O29       1.0  0.08912000000000003  0.06486999999999991  0.53084  1.0000
  O   O30       1.0  0.06347  0.08182  0.73366  1.0000
  O   O31       1.0  0.4949499999999998  0.6885000000000001  0.52899  1.0000
  O   O32       1.0  0.6478599999999995  0.7245400000000001  0.4862699999999999  1.0000
  O   O33       1.0  0.6880699999999998  0.36788  0.8158  1.0000
  O   O34       1.0  0.8246199999999997  0.41258  0.7972  1.0000
  O   O35       1.0  0.31587999999999994  0.029480000000000013  0.56611  1.0000
  O   O36       1.0  0.12300999999999998  0.23249999999999998  0.58174  1.0000
  O   O37       1.0  0.78652  0.18900999999999998  0.03142  1.0000
  O   O38       1.0  0.6445399999999997  0.22295000000000004  0.98445  1.0000
  O   O39       1.0  0.62771  0.86706  0.3151  1.0000
  O   O40       1.0  0.46540000000000004  0.9127699999999999  0.29579999999999995  1.0000
  O   O41       1.0  0.5891199999999998  0.5308999999999999  0.06482999999999998  1.0000
  O   O42       1.0  0.5637  0.7335799999999999  0.08178  1.0000
  O   O43       1.0  0.9950800000000004  0.52916  0.6884199999999998  1.0000
  O   O44       1.0  0.14829  0.48590999999999995  0.7241  1.0000
  O   O45       1.0  0.18875000000000008  0.8155699999999999  0.36734999999999995  1.0000
  O   O46       1.0  0.32459  0.79705  0.41273  1.0000
  O   O47       1.0  0.8159599999999998  0.56602  0.029600000000000005  1.0000
  O   O48       1.0  0.62308  0.5817399999999999  0.23254999999999998  1.0000
