data_image0
_chemical_formula_structural       Cd12H80C120N100O4
_chemical_formula_sum              "Cd12 H80 C120 N100 O4"
_cell_length_a       14.02181
_cell_length_b       20.53468
_cell_length_c       23.59675
_cell_angle_alpha    90.0
_cell_angle_beta     90.0
_cell_angle_gamma    89.99864

_space_group_name_H-M_alt    "P 1"
_space_group_IT_number       1

loop_
  _space_group_symop_operation_xyz
  'x, y, z'

loop_
  _atom_site_type_symbol
  _atom_site_label
  _atom_site_symmetry_multiplicity
  _atom_site_fract_x
  _atom_site_fract_y
  _atom_site_fract_z
  _atom_site_occupancy
  Cd  Cd1       1.0  0.89491  0.74032  0.8306399999999999  1.0000
  Cd  Cd2       1.0  0.60509  0.25969  0.8306399999999999  1.0000
  Cd  Cd3       1.0  0.6051000000000002  0.24030000000000004  0.66938  1.0000
  Cd  Cd4       1.0  0.8949000000000003  0.7597  0.66938  1.0000
  Cd  Cd5       1.0  0.10509000000000003  0.25969  0.16937  1.0000
  Cd  Cd6       1.0  0.39491000000000004  0.74032  0.16937  1.0000
  Cd  Cd7       1.0  0.3949000000000001  0.7597  0.3306299999999999  1.0000
  Cd  Cd8       1.0  0.10510000000000003  0.24030000000000004  0.3306299999999999  1.0000
  Cd  Cd9       1.0  0.65989  0.74999  0.75  1.0000
  Cd  Cd10      1.0  0.84011  0.25002  0.75  1.0000
  Cd  Cd11      1.0  0.34011000000000013  0.25002  0.24999999999999994  1.0000
  Cd  Cd12      1.0  0.15989000000000003  0.74999  0.24999999999999994  1.0000
  H   H1        1.0  0.59846  0.67306  0.12759  1.0000
  H   H2        1.0  0.36537  0.74325  0.038169999999999996  1.0000
  H   H3        1.0  0.85922  0.06015999999999999  0.91279  1.0000
  H   H4        1.0  0.8780000000000001  0.98843  0.74138  1.0000
  H   H5        1.0  0.8456100000000001  0.17253  0.8729799999999998  1.0000
  H   H6        1.0  0.8639400000000003  0.10417  0.7082  1.0000
  H   H7        1.0  0.45112  0.73269  0.94635  1.0000
  H   H8        1.0  0.6938900000000002  0.65977  0.03917  1.0000
  H   H9        1.0  0.4794700000000001  0.7762  0.83467  1.0000
  H   H10       1.0  0.3009600000000001  0.77726  0.8382899999999998  1.0000
  H   H11       1.0  0.90154  0.32694  0.12759  1.0000
  H   H12       1.0  0.13463000000000006  0.25675  0.038169999999999996  1.0000
  H   H13       1.0  0.64078  0.9398500000000001  0.91279  1.0000
  H   H14       1.0  0.6220000000000002  0.01158  0.74138  1.0000
  H   H15       1.0  0.6543900000000002  0.82748  0.8729799999999998  1.0000
  H   H16       1.0  0.63606  0.8958300000000001  0.7082  1.0000
  H   H17       1.0  0.04888  0.26731  0.94635  1.0000
  H   H18       1.0  0.8061100000000001  0.34023  0.03917  1.0000
  H   H19       1.0  0.020530000000000003  0.2238  0.83467  1.0000
  H   H20       1.0  0.19904000000000005  0.22274  0.8382899999999998  1.0000
  H   H21       1.0  0.90154  0.17306  0.37241  1.0000
  H   H22       1.0  0.13463000000000006  0.24325000000000002  0.4618299999999999  1.0000
  H   H23       1.0  0.64078  0.56015  0.58721  1.0000
  H   H24       1.0  0.6220000000000002  0.48841  0.7586199999999999  1.0000
  H   H25       1.0  0.6543900000000002  0.67252  0.6270299999999999  1.0000
  H   H26       1.0  0.63606  0.60415  0.79181  1.0000
  H   H27       1.0  0.04888  0.23269000000000004  0.55366  1.0000
  H   H28       1.0  0.8061100000000001  0.15978  0.46083  1.0000
  H   H29       1.0  0.020530000000000003  0.2762  0.66533  1.0000
  H   H30       1.0  0.19904000000000005  0.27726  0.66172  1.0000
  H   H31       1.0  0.59846  0.8269400000000001  0.37241  1.0000
  H   H32       1.0  0.36537  0.75676  0.4618299999999999  1.0000
  H   H33       1.0  0.85922  0.43985  0.58721  1.0000
  H   H34       1.0  0.8780000000000001  0.51159  0.7586199999999999  1.0000
  H   H35       1.0  0.8456100000000001  0.32749  0.6270299999999999  1.0000
  H   H36       1.0  0.8639400000000003  0.39585  0.79181  1.0000
  H   H37       1.0  0.45112  0.76731  0.55366  1.0000
  H   H38       1.0  0.6938900000000002  0.8402299999999999  0.46083  1.0000
  H   H39       1.0  0.4794700000000001  0.7238  0.66533  1.0000
  H   H40       1.0  0.3009600000000001  0.72274  0.66172  1.0000
  H   H41       1.0  0.4015400000000001  0.32694  0.87241  1.0000
  H   H42       1.0  0.6346300000000002  0.25675  0.96183  1.0000
  H   H43       1.0  0.14078  0.9398500000000001  0.08721999999999998  1.0000
  H   H44       1.0  0.12200000000000003  0.01158  0.25862  1.0000
  H   H45       1.0  0.15439000000000005  0.82748  0.12702999999999998  1.0000
  H   H46       1.0  0.13606000000000001  0.8958300000000001  0.29180999999999996  1.0000
  H   H47       1.0  0.54888  0.26731  0.05365  1.0000
  H   H48       1.0  0.30611  0.34023  0.96083  1.0000
  H   H49       1.0  0.5205300000000002  0.2238  0.16533  1.0000
  H   H50       1.0  0.6990400000000002  0.22274  0.16171999999999997  1.0000
  H   H51       1.0  0.09846000000000003  0.67306  0.87241  1.0000
  H   H52       1.0  0.8653700000000001  0.74325  0.96183  1.0000
  H   H53       1.0  0.3592200000000001  0.06015999999999999  0.08721999999999998  1.0000
  H   H54       1.0  0.378  0.98843  0.25862  1.0000
  H   H55       1.0  0.34561  0.17253  0.12702999999999998  1.0000
  H   H56       1.0  0.36394  0.10417  0.29180999999999996  1.0000
  H   H57       1.0  0.9511200000000002  0.73269  0.05365  1.0000
  H   H58       1.0  0.19389000000000006  0.65977  0.96083  1.0000
  H   H59       1.0  0.9794700000000002  0.7762  0.16533  1.0000
  H   H60       1.0  0.8009600000000002  0.77726  0.16171999999999997  1.0000
  H   H61       1.0  0.09846000000000003  0.8269400000000001  0.62759  1.0000
  H   H62       1.0  0.8653700000000001  0.75676  0.53818  1.0000
  H   H63       1.0  0.3592200000000001  0.43985  0.4127899999999999  1.0000
  H   H64       1.0  0.378  0.51159  0.24138999999999994  1.0000
  H   H65       1.0  0.34561  0.32749  0.37297999999999987  1.0000
  H   H66       1.0  0.36394  0.39585  0.2082  1.0000
  H   H67       1.0  0.9511200000000002  0.76731  0.44635  1.0000
  H   H68       1.0  0.19389000000000006  0.8402299999999999  0.53917  1.0000
  H   H69       1.0  0.9794700000000002  0.7238  0.33467  1.0000
  H   H70       1.0  0.8009600000000002  0.72274  0.33828  1.0000
  H   H71       1.0  0.4015400000000001  0.17306  0.62759  1.0000
  H   H72       1.0  0.6346300000000002  0.24325000000000002  0.53818  1.0000
  H   H73       1.0  0.14078  0.56015  0.4127899999999999  1.0000
  H   H74       1.0  0.12200000000000003  0.48841  0.24138999999999994  1.0000
  H   H75       1.0  0.15439000000000005  0.67252  0.37297999999999987  1.0000
  H   H76       1.0  0.13606000000000001  0.60415  0.2082  1.0000
  H   H77       1.0  0.54888  0.23269000000000004  0.44635  1.0000
  H   H78       1.0  0.30611  0.15978  0.53917  1.0000
  H   H79       1.0  0.5205300000000002  0.2762  0.33467  1.0000
  H   H80       1.0  0.6990400000000002  0.27726  0.33828  1.0000
  C   C1        1.0  0.5675800000000001  0.68439  0.08655  1.0000
  C   C2        1.0  0.43771000000000004  0.72451  0.03677  1.0000
  C   C3        1.0  0.8752600000000003  0.9489800000000002  0.85153  1.0000
  C   C4        1.0  0.8703600000000001  0.015170000000000001  0.83006  1.0000
  C   C5        1.0  0.8612800000000003  0.06825  0.8672699999999999  1.0000
  C   C6        1.0  0.8715300000000002  0.02821  0.77157  1.0000
  C   C7        1.0  0.8535000000000003  0.13069  0.8451299999999999  1.0000
  C   C8        1.0  0.8635300000000002  0.09219  0.7531199999999999  1.0000
  C   C9        1.0  0.6341900000000003  0.69479  0.93232  1.0000
  C   C10       1.0  0.5801600000000002  0.69566  0.98518  1.0000
  C   C11       1.0  0.48576000000000014  0.71838  0.9856199999999998  1.0000
  C   C12       1.0  0.6209800000000001  0.67775  0.03719  1.0000
  C   C13       1.0  0.4372900000000001  0.76501  0.79729  1.0000
  C   C14       1.0  0.3382  0.76504  0.79928  1.0000
  C   C15       1.0  0.9324200000000002  0.31562  0.08655  1.0000
  C   C16       1.0  0.062290000000000005  0.27549  0.03677  1.0000
  C   C17       1.0  0.6247400000000002  0.051030000000000006  0.85153  1.0000
  C   C18       1.0  0.62965  0.9848400000000002  0.83006  1.0000
  C   C19       1.0  0.6387200000000002  0.93176  0.8672699999999999  1.0000
  C   C20       1.0  0.62847  0.9718  0.77157  1.0000
  C   C21       1.0  0.6465000000000001  0.86931  0.8451299999999999  1.0000
  C   C22       1.0  0.63647  0.90782  0.7531199999999999  1.0000
  C   C23       1.0  0.8658100000000002  0.30521  0.93232  1.0000
  C   C24       1.0  0.9198400000000002  0.30435  0.98518  1.0000
  C   C25       1.0  0.014240000000000003  0.28162  0.9856199999999998  1.0000
  C   C26       1.0  0.8790200000000002  0.32225  0.03719  1.0000
  C   C27       1.0  0.06271  0.23498999999999998  0.79729  1.0000
  C   C28       1.0  0.16180000000000003  0.23496000000000003  0.79928  1.0000
  C   C29       1.0  0.9324200000000002  0.18439  0.41344999999999993  1.0000
  C   C30       1.0  0.062290000000000005  0.22451  0.46323  1.0000
  C   C31       1.0  0.6247400000000002  0.44896  0.64847  1.0000
  C   C32       1.0  0.6296400000000002  0.51516  0.66994  1.0000
  C   C33       1.0  0.63871  0.56824  0.6327299999999999  1.0000
  C   C34       1.0  0.62847  0.52819  0.7284299999999998  1.0000
  C   C35       1.0  0.6465000000000001  0.63068  0.6548699999999998  1.0000
  C   C36       1.0  0.6364600000000002  0.59217  0.7468899999999998  1.0000
  C   C37       1.0  0.8658100000000002  0.19479999999999997  0.56769  1.0000
  C   C38       1.0  0.9198400000000002  0.19566  0.51483  1.0000
  C   C39       1.0  0.014240000000000003  0.21838000000000002  0.51439  1.0000
  C   C40       1.0  0.8790200000000002  0.17775  0.46280999999999994  1.0000
  C   C41       1.0  0.06271  0.26501  0.70272  1.0000
  C   C42       1.0  0.16180000000000003  0.26504  0.7007199999999999  1.0000
  C   C43       1.0  0.5675800000000001  0.8156200000000001  0.41344999999999993  1.0000
  C   C44       1.0  0.43771000000000004  0.77549  0.46323  1.0000
  C   C45       1.0  0.8752600000000003  0.55104  0.64847  1.0000
  C   C46       1.0  0.8703600000000001  0.48485000000000006  0.66994  1.0000
  C   C47       1.0  0.86129  0.43176000000000003  0.6327299999999999  1.0000
  C   C48       1.0  0.8715300000000002  0.47181  0.7284299999999998  1.0000
  C   C49       1.0  0.8535000000000003  0.36932  0.6548699999999998  1.0000
  C   C50       1.0  0.8635400000000001  0.40783  0.7468899999999998  1.0000
  C   C51       1.0  0.6341900000000003  0.80521  0.56769  1.0000
  C   C52       1.0  0.5801600000000002  0.8043400000000002  0.51483  1.0000
  C   C53       1.0  0.48576000000000014  0.78162  0.51439  1.0000
  C   C54       1.0  0.6209800000000001  0.82225  0.46280999999999994  1.0000
  C   C55       1.0  0.4372900000000001  0.73499  0.70272  1.0000
  C   C56       1.0  0.3382  0.73496  0.7007199999999999  1.0000
  C   C57       1.0  0.43242  0.31562  0.91345  1.0000
  C   C58       1.0  0.5622900000000001  0.27549  0.9632299999999998  1.0000
  C   C59       1.0  0.12474000000000003  0.051030000000000006  0.14848  1.0000
  C   C60       1.0  0.12965000000000002  0.9848400000000002  0.16994  1.0000
  C   C61       1.0  0.13872  0.93176  0.13274  1.0000
  C   C62       1.0  0.12847  0.9718  0.22843  1.0000
  C   C63       1.0  0.1465  0.86931  0.15487  1.0000
  C   C64       1.0  0.13647000000000004  0.90782  0.24688999999999994  1.0000
  C   C65       1.0  0.3658100000000001  0.30521  0.06768  1.0000
  C   C66       1.0  0.41984000000000005  0.30435  0.01483  1.0000
  C   C67       1.0  0.5142400000000001  0.28162  0.01439  1.0000
  C   C68       1.0  0.37902000000000013  0.32225  0.96281  1.0000
  C   C69       1.0  0.56271  0.23498999999999998  0.20271999999999996  1.0000
  C   C70       1.0  0.6618  0.23496000000000003  0.20072  1.0000
  C   C71       1.0  0.06758000000000002  0.68439  0.91345  1.0000
  C   C72       1.0  0.9377100000000003  0.72451  0.9632299999999998  1.0000
  C   C73       1.0  0.3752600000000001  0.9489800000000002  0.14848  1.0000
  C   C74       1.0  0.37035  0.015170000000000001  0.16994  1.0000
  C   C75       1.0  0.3612800000000001  0.06825  0.13274  1.0000
  C   C76       1.0  0.37153  0.02821  0.22843  1.0000
  C   C77       1.0  0.3535000000000001  0.13069  0.15487  1.0000
  C   C78       1.0  0.36353  0.09219  0.24688999999999994  1.0000
  C   C79       1.0  0.13419000000000003  0.69479  0.06768  1.0000
  C   C80       1.0  0.08016000000000002  0.69566  0.01483  1.0000
  C   C81       1.0  0.9857600000000002  0.71838  0.01439  1.0000
  C   C82       1.0  0.12098  0.67775  0.96281  1.0000
  C   C83       1.0  0.9372900000000002  0.76501  0.20271999999999996  1.0000
  C   C84       1.0  0.8382  0.76504  0.20072  1.0000
  C   C85       1.0  0.06758000000000002  0.8156200000000001  0.58655  1.0000
  C   C86       1.0  0.9377100000000003  0.77549  0.5367799999999999  1.0000
  C   C87       1.0  0.3752600000000001  0.55104  0.35153  1.0000
  C   C88       1.0  0.37036  0.48485000000000006  0.33007  1.0000
  C   C89       1.0  0.36129  0.43176000000000003  0.36727  1.0000
  C   C90       1.0  0.37153  0.47181  0.2715699999999999  1.0000
  C   C91       1.0  0.3535000000000001  0.36932  0.34513  1.0000
  C   C92       1.0  0.36354  0.40783  0.25312  1.0000
  C   C93       1.0  0.13419000000000003  0.80521  0.43232  1.0000
  C   C94       1.0  0.08016000000000002  0.8043400000000002  0.48517  1.0000
  C   C95       1.0  0.9857600000000002  0.78162  0.48561999999999994  1.0000
  C   C96       1.0  0.12098  0.82225  0.53719  1.0000
  C   C97       1.0  0.9372900000000002  0.73499  0.29728  1.0000
  C   C98       1.0  0.8382  0.73496  0.29927999999999993  1.0000
  C   C99       1.0  0.43242  0.18439  0.58655  1.0000
  C   C100      1.0  0.5622900000000001  0.22451  0.5367799999999999  1.0000
  C   C101      1.0  0.12474000000000003  0.44896  0.35153  1.0000
  C   C102      1.0  0.12964  0.51516  0.33007  1.0000
  C   C103      1.0  0.13871  0.56824  0.36727  1.0000
  C   C104      1.0  0.12847  0.52819  0.2715699999999999  1.0000
  C   C105      1.0  0.1465  0.63068  0.34513  1.0000
  C   C106      1.0  0.13646  0.59217  0.25312  1.0000
  C   C107      1.0  0.3658100000000001  0.19479999999999997  0.43232  1.0000
  C   C108      1.0  0.41984000000000005  0.19566  0.48517  1.0000
  C   C109      1.0  0.5142400000000001  0.21838000000000002  0.48561999999999994  1.0000
  C   C110      1.0  0.37902000000000013  0.17775  0.53719  1.0000
  C   C111      1.0  0.56271  0.26501  0.29728  1.0000
  C   C112      1.0  0.6618  0.26504  0.29927999999999993  1.0000
  C   C113      1.0  0.18267000000000003  0.75  0.75  1.0000
  C   C114      1.0  0.28669  0.75  0.75  1.0000
  C   C115      1.0  0.31733  0.25  0.75  1.0000
  C   C116      1.0  0.21331  0.25  0.75  1.0000
  C   C117      1.0  0.8173300000000002  0.25  0.24999999999999994  1.0000
  C   C118      1.0  0.71332  0.25  0.24999999999999994  1.0000
  C   C119      1.0  0.68267  0.75  0.24999999999999994  1.0000
  C   C120      1.0  0.7866900000000002  0.75  0.24999999999999994  1.0000
  N   N1        1.0  0.47749000000000014  0.70796  0.08695999999999998  1.0000
  N   N2        1.0  0.8827600000000002  0.84672  0.8560899999999998  1.0000
  N   N3        1.0  0.8722700000000002  0.8688900000000002  0.90995  1.0000
  N   N4        1.0  0.8678900000000003  0.93309  0.9074599999999998  1.0000
  N   N5        1.0  0.8848900000000001  0.8956100000000001  0.81877  1.0000
  N   N6        1.0  0.85488  0.14305  0.78898  1.0000
  N   N7        1.0  0.7492900000000002  0.69692  0.8736199999999997  1.0000
  N   N8        1.0  0.6674700000000002  0.70657  0.84512  1.0000
  N   N9        1.0  0.59417  0.70548  0.8810099999999997  1.0000
  N   N10       1.0  0.7300100000000003  0.68898  0.92863  1.0000
  N   N11       1.0  0.03922000000000001  0.74318  0.7778  1.0000
  N   N12       1.0  0.12867  0.7392  0.79645  1.0000
  N   N13       1.0  0.022510000000000006  0.29204  0.08695999999999998  1.0000
  N   N14       1.0  0.61724  0.15329  0.8560899999999998  1.0000
  N   N15       1.0  0.6277300000000002  0.13112  0.90995  1.0000
  N   N16       1.0  0.63211  0.06692  0.9074599999999998  1.0000
  N   N17       1.0  0.6151100000000003  0.1044  0.81877  1.0000
  N   N18       1.0  0.64512  0.85696  0.78898  1.0000
  N   N19       1.0  0.7507100000000002  0.30308  0.8736199999999997  1.0000
  N   N20       1.0  0.8325300000000002  0.29343  0.84512  1.0000
  N   N21       1.0  0.90583  0.29453  0.8810099999999997  1.0000
  N   N22       1.0  0.7699900000000002  0.31103  0.92863  1.0000
  N   N23       1.0  0.46078000000000013  0.25683  0.7778  1.0000
  N   N24       1.0  0.3713300000000001  0.2608  0.79645  1.0000
  N   N25       1.0  0.022510000000000006  0.20796  0.4130499999999999  1.0000
  N   N26       1.0  0.61724  0.3467  0.64391  1.0000
  N   N27       1.0  0.6277300000000002  0.36887  0.5900499999999999  1.0000
  N   N28       1.0  0.63211  0.43307  0.59254  1.0000
  N   N29       1.0  0.6151100000000003  0.3956  0.6812299999999999  1.0000
  N   N30       1.0  0.64512  0.64303  0.7110199999999998  1.0000
  N   N31       1.0  0.7507100000000002  0.19692  0.6263899999999999  1.0000
  N   N32       1.0  0.8325300000000002  0.20659000000000002  0.6548799999999999  1.0000
  N   N33       1.0  0.90583  0.20549  0.619  1.0000
  N   N34       1.0  0.77  0.18897  0.5713799999999999  1.0000
  N   N35       1.0  0.46078000000000013  0.24317  0.7221999999999998  1.0000
  N   N36       1.0  0.3713300000000001  0.2392  0.7035599999999997  1.0000
  N   N37       1.0  0.47749000000000014  0.79204  0.4130499999999999  1.0000
  N   N38       1.0  0.8827600000000002  0.6533  0.64391  1.0000
  N   N39       1.0  0.8722700000000002  0.63113  0.5900499999999999  1.0000
  N   N40       1.0  0.8678900000000003  0.56694  0.59254  1.0000
  N   N41       1.0  0.8848900000000001  0.60441  0.6812299999999999  1.0000
  N   N42       1.0  0.85488  0.35697  0.7110199999999998  1.0000
  N   N43       1.0  0.7492900000000002  0.80308  0.6263899999999999  1.0000
  N   N44       1.0  0.6674700000000002  0.7934200000000001  0.6548799999999999  1.0000
  N   N45       1.0  0.59417  0.79452  0.619  1.0000
  N   N46       1.0  0.7300100000000003  0.8110300000000001  0.5713799999999999  1.0000
  N   N47       1.0  0.03922000000000001  0.75683  0.7221999999999998  1.0000
  N   N48       1.0  0.12867  0.76081  0.7035599999999997  1.0000
  N   N49       1.0  0.52251  0.29204  0.9130499999999998  1.0000
  N   N50       1.0  0.11724000000000002  0.15329  0.14391  1.0000
  N   N51       1.0  0.12773  0.13112  0.09006  1.0000
  N   N52       1.0  0.13211  0.06692  0.09253999999999997  1.0000
  N   N53       1.0  0.11511000000000003  0.1044  0.18123999999999996  1.0000
  N   N54       1.0  0.14512  0.85696  0.21101999999999999  1.0000
  N   N55       1.0  0.25071  0.30308  0.12637999999999996  1.0000
  N   N56       1.0  0.3325300000000001  0.29343  0.15487999999999996  1.0000
  N   N57       1.0  0.40583000000000014  0.29453  0.11899  1.0000
  N   N58       1.0  0.26999  0.31103  0.07137  1.0000
  N   N59       1.0  0.9607800000000001  0.25683  0.2222  1.0000
  N   N60       1.0  0.8713300000000003  0.2608  0.20355999999999994  1.0000
  N   N61       1.0  0.9774900000000002  0.70796  0.9130499999999998  1.0000
  N   N62       1.0  0.38276  0.84672  0.14391  1.0000
  N   N63       1.0  0.3722700000000001  0.8688900000000002  0.09006  1.0000
  N   N64       1.0  0.36789  0.93309  0.09253999999999997  1.0000
  N   N65       1.0  0.3848900000000001  0.8956100000000001  0.18123999999999996  1.0000
  N   N66       1.0  0.35488000000000003  0.14305  0.21101999999999999  1.0000
  N   N67       1.0  0.24929000000000007  0.69692  0.12637999999999996  1.0000
  N   N68       1.0  0.16747000000000006  0.70657  0.15487999999999996  1.0000
  N   N69       1.0  0.09417000000000003  0.70548  0.11899  1.0000
  N   N70       1.0  0.23001000000000005  0.68898  0.07137  1.0000
  N   N71       1.0  0.5392200000000003  0.74318  0.2222  1.0000
  N   N72       1.0  0.6286700000000002  0.7392  0.20355999999999994  1.0000
  N   N73       1.0  0.9774900000000002  0.79204  0.58696  1.0000
  N   N74       1.0  0.38276  0.6533  0.3560899999999999  1.0000
  N   N75       1.0  0.3722700000000001  0.63113  0.40994999999999987  1.0000
  N   N76       1.0  0.36789  0.56694  0.40746999999999994  1.0000
  N   N77       1.0  0.3848900000000001  0.60441  0.31877  1.0000
  N   N78       1.0  0.35488000000000003  0.35697  0.28897999999999996  1.0000
  N   N79       1.0  0.24929000000000007  0.80308  0.37361  1.0000
  N   N80       1.0  0.16747000000000006  0.7934200000000001  0.34512  1.0000
  N   N81       1.0  0.09417000000000003  0.79452  0.3810099999999999  1.0000
  N   N82       1.0  0.23001000000000005  0.8110300000000001  0.42862  1.0000
  N   N83       1.0  0.5392200000000003  0.75683  0.27779999999999994  1.0000
  N   N84       1.0  0.6286700000000002  0.76081  0.29644999999999994  1.0000
  N   N85       1.0  0.52251  0.20796  0.58696  1.0000
  N   N86       1.0  0.11724000000000002  0.3467  0.3560899999999999  1.0000
  N   N87       1.0  0.12773  0.36887  0.40994999999999987  1.0000
  N   N88       1.0  0.13211  0.43307  0.40746999999999994  1.0000
  N   N89       1.0  0.11511000000000003  0.3956  0.31877  1.0000
  N   N90       1.0  0.14512  0.64303  0.28897999999999996  1.0000
  N   N91       1.0  0.25071  0.19692  0.37361  1.0000
  N   N92       1.0  0.3325300000000001  0.20659000000000002  0.34512  1.0000
  N   N93       1.0  0.40583000000000014  0.20549  0.3810099999999999  1.0000
  N   N94       1.0  0.26999  0.18897  0.42862  1.0000
  N   N95       1.0  0.9607800000000001  0.24317  0.27779999999999994  1.0000
  N   N96       1.0  0.8713300000000003  0.2392  0.29644999999999994  1.0000
  N   N97       1.0  0.4867300000000001  0.75  0.75  1.0000
  N   N98       1.0  0.013270000000000004  0.25  0.75  1.0000
  N   N99       1.0  0.51327  0.25  0.24999999999999994  1.0000
  N   N100      1.0  0.98673  0.75  0.24999999999999994  1.0000
  O   O1        1.0  0.8189600000000002  0.75  0.75001  1.0000
  O   O2        1.0  0.6810400000000002  0.25  0.75001  1.0000
  O   O3        1.0  0.18104000000000006  0.25  0.24999  1.0000
  O   O4        1.0  0.31896  0.75  0.24999  1.0000
