data_image0
_chemical_formula_structural       Mn12H96C168O72
_chemical_formula_sum              "Mn12 H96 C168 O72"
_cell_length_a       11.45416
_cell_length_b       18.00401
_cell_length_c       21.357440000000004
_cell_angle_alpha    89.93585
_cell_angle_beta     89.99687
_cell_angle_gamma    92.92175999999999

_space_group_name_H-M_alt    "P 1"
_space_group_IT_number       1

loop_
  _space_group_symop_operation_xyz
  'x, y, z'

loop_
  _atom_site_type_symbol
  _atom_site_label
  _atom_site_symmetry_multiplicity
  _atom_site_fract_x
  _atom_site_fract_y
  _atom_site_fract_z
  _atom_site_occupancy
  Mn  Mn1       1.0  0.8156399999999999  0.4794999999999999  0.8585300000000001  1.0000
  Mn  Mn2       1.0  0.11054  0.03614  0.5918000000000001  1.0000
  Mn  Mn3       1.0  0.18197  0.020890000000000006  0.35711  1.0000
  Mn  Mn4       1.0  0.56321  0.04239  0.58556  1.0000
  Mn  Mn5       1.0  0.88903  0.46447000000000005  0.09384  1.0000
  Mn  Mn6       1.0  0.18418  0.52096  0.14106  1.0000
  Mn  Mn7       1.0  0.88626  0.9636600000000001  0.40529  1.0000
  Mn  Mn8       1.0  0.56293  0.5422300000000001  0.9140400000000001  1.0000
  Mn  Mn9       1.0  0.11152  0.5378  0.90652  1.0000
  Mn  Mn10      1.0  0.8162299999999999  0.9789  0.64063  1.0000
  Mn  Mn11      1.0  0.4338800000000001  0.9577900000000001  0.41378  1.0000
  Mn  Mn12      1.0  0.4361  0.45771  0.08531000000000001  1.0000
  H   H1        1.0  0.23493  0.20492000000000002  0.49298  1.0000
  H   H2        1.0  0.22123000000000004  0.9580100000000001  0.78041  1.0000
  H   H3        1.0  0.08408  0.32686  0.88889  1.0000
  H   H4        1.0  0.22195000000000004  0.4579500000000001  0.7203100000000001  1.0000
  H   H5        1.0  0.28751  0.1454  0.9756100000000002  1.0000
  H   H6        1.0  0.90241  0.31375  0.38168  1.0000
  H   H7        1.0  0.61925  0.51089  0.5236  1.0000
  H   H8        1.0  0.013709999999999998  0.62019  0.44800000000000006  1.0000
  H   H9        1.0  0.53095  0.10894  0.05770000000000001  1.0000
  H   H10       1.0  0.53382  0.60801  0.44107  1.0000
  H   H11       1.0  0.77883  0.54257  0.2797200000000001  1.0000
  H   H12       1.0  0.91602  0.17559  0.38716000000000006  1.0000
  H   H13       1.0  0.09508  0.18876  0.88111  1.0000
  H   H14       1.0  0.72572  0.71696  0.00742  1.0000
  H   H15       1.0  0.46187999999999996  0.89325  0.9416300000000001  1.0000
  H   H16       1.0  0.3027  0.80199  0.35214  1.0000
  H   H17       1.0  0.24359  0.46319  0.9620600000000001  1.0000
  H   H18       1.0  0.08155  0.82629  0.60942  1.0000
  H   H19       1.0  0.27313  0.28249  0.9922400000000001  1.0000
  H   H20       1.0  0.86109  0.97642  0.030560000000000004  1.0000
  H   H21       1.0  0.23246  0.56411  0.30161  1.0000
  H   H22       1.0  0.16687  0.21407  0.6521  1.0000
  H   H23       1.0  0.60922  0.18636000000000005  0.87443  1.0000
  H   H24       1.0  0.47414  0.57668  0.7012600000000001  1.0000
  H   H25       1.0  0.03524  0.24811  0.56748  1.0000
  H   H26       1.0  0.27544  0.7843100000000001  0.50654  1.0000
  H   H27       1.0  0.52625  0.42367  0.29912  1.0000
  H   H28       1.0  0.86316  0.47693  0.4685000000000001  1.0000
  H   H29       1.0  0.83075  0.28379  0.15213  1.0000
  H   H30       1.0  0.76861  0.93606  0.80195  1.0000
  H   H31       1.0  0.34736999999999996  0.57829  0.08564000000000001  1.0000
  H   H32       1.0  0.2269  0.3425500000000001  0.48331  1.0000
  H   H33       1.0  0.58727  0.3219  0.8841000000000001  1.0000
  H   H34       1.0  0.34491  0.07833  0.41193  1.0000
  H   H35       1.0  0.82933  0.78608  0.34624  1.0000
  H   H36       1.0  0.75427  0.53759  0.03893  1.0000
  H   H37       1.0  0.1356  0.3497  0.6529600000000001  1.0000
  H   H38       1.0  0.90212  0.81246  0.11890000000000002  1.0000
  H   H39       1.0  0.23144  0.06416000000000001  0.1967  1.0000
  H   H40       1.0  0.38902  0.31459  0.37510000000000004  1.0000
  H   H41       1.0  0.37587000000000004  0.98954  0.02273  1.0000
  H   H42       1.0  0.12991  0.02402  0.9679700000000001  1.0000
  H   H43       1.0  0.65386  0.42117  0.9145200000000001  1.0000
  H   H44       1.0  0.49620999999999993  0.75709  0.93995  1.0000
  H   H45       1.0  0.64281  0.32775  0.63014  1.0000
  H   H46       1.0  0.49657000000000007  0.25486  0.55994  1.0000
  H   H47       1.0  0.50186  0.24574  0.05841  1.0000
  H   H48       1.0  0.47433  0.07603000000000001  0.7975  1.0000
  H   H49       1.0  0.86047  0.14816  0.15223000000000003  1.0000
  H   H50       1.0  0.69624  0.19743  0.64761  1.0000
  H   H51       1.0  0.09558  0.42967000000000005  0.31627  1.0000
  H   H52       1.0  0.50109  0.74434  0.43970000000000004  1.0000
  H   H53       1.0  0.28784  0.647  0.52261  1.0000
  H   H54       1.0  0.72325  0.21564  0.4927  1.0000
  H   H55       1.0  0.77188  0.65588  0.51656  1.0000
  H   H56       1.0  0.014150000000000001  0.12133  0.05025  1.0000
  H   H57       1.0  0.9165500000000001  0.67448  0.11204  1.0000
  H   H58       1.0  0.98214  0.37959  0.5497  1.0000
  H   H59       1.0  0.35522  0.17158  0.12928  1.0000
  H   H60       1.0  0.23503  0.7062300000000001  0.00607  1.0000
  H   H61       1.0  0.03553  0.74807  0.9327000000000001  1.0000
  H   H62       1.0  0.46566  0.3915  0.55937  1.0000
  H   H63       1.0  0.16769999999999996  0.71449  0.8469100000000002  1.0000
  H   H64       1.0  0.09149  0.9300100000000001  0.18393  1.0000
  H   H65       1.0  0.7116500000000001  0.85421  0.02295  1.0000
  H   H66       1.0  0.77218  0.04059  0.219  1.0000
  H   H67       1.0  0.90519  0.5710800000000001  0.68404  1.0000
  H   H68       1.0  0.96197  0.75201  0.43071  1.0000
  H   H69       1.0  0.38914999999999994  0.81473  0.12367  1.0000
  H   H70       1.0  0.9631600000000001  0.25333  0.06789  1.0000
  H   H71       1.0  0.24548  0.9624  0.53764  1.0000
  H   H72       1.0  0.65234  0.9219700000000001  0.58714  1.0000
  H   H73       1.0  0.13329  0.8496  0.8470400000000001  1.0000
  H   H74       1.0  0.41072  0.67903  0.11504  1.0000
  H   H75       1.0  0.6958  0.69864  0.8531900000000001  1.0000
  H   H76       1.0  0.90474  0.07279  0.8129400000000001  1.0000
  H   H77       1.0  0.7102800000000001  0.35295  0.47706  1.0000
  H   H78       1.0  0.097  0.6883500000000001  0.617  1.0000
  H   H79       1.0  0.5886  0.82097  0.61593  1.0000
  H   H80       1.0  0.13652  0.52286  0.5315500000000001  1.0000
  H   H81       1.0  0.64467  0.82971  0.8694400000000001  1.0000
  H   H82       1.0  0.40967  0.17887  0.38367  1.0000
  H   H83       1.0  0.30383  0.30252  0.1461  1.0000
  H   H84       1.0  0.62227  0.012110000000000004  0.97508  1.0000
  H   H85       1.0  0.76596  0.43462  0.69666  1.0000
  H   H86       1.0  0.98447  0.88011  0.9496900000000001  1.0000
  H   H87       1.0  0.86274  0.65079  0.34629000000000004  1.0000
  H   H88       1.0  0.37569  0.48811  0.47568000000000005  1.0000
  H   H89       1.0  0.35415  0.67116  0.3688  1.0000
  H   H90       1.0  0.77034  0.15993  0.98259  1.0000
  H   H91       1.0  0.76181  0.79313  0.50489  1.0000
  H   H92       1.0  0.2262  0.84362  0.01721  1.0000
  H   H93       1.0  0.7646300000000001  0.2972  0.99423  1.0000
  H   H94       1.0  0.52525  0.92359  0.19931000000000001  1.0000
  H   H95       1.0  0.7518  0.03639  0.46057  1.0000
  H   H96       1.0  0.60853  0.68533  0.62521  1.0000
  C   C1        1.0  0.2401  0.26248000000000005  0.12601000000000004  1.0000
  C   C2        1.0  0.12933000000000003  0.28578  0.10881  1.0000
  C   C3        1.0  0.18662  0.13917  0.08895  1.0000
  C   C4        1.0  0.62959  0.0028499999999999997  0.7229  1.0000
  C   C5        1.0  0.65348  0.73862  0.03362  1.0000
  C   C6        1.0  0.40188  0.35231  0.58045  1.0000
  C   C7        1.0  0.66261  0.77367  0.3922  1.0000
  C   C8        1.0  0.42672000000000004  0.39279  0.9523700000000002  1.0000
  C   C9        1.0  0.72906  0.3105800000000001  0.61712  1.0000
  C   C10       1.0  0.4304700000000001  0.31157  0.94031  1.0000
  C   C11       1.0  0.87  0.71537  0.8912  1.0000
  C   C12       1.0  0.05981999999999999  0.01416  0.78988  1.0000
  C   C13       1.0  0.9358100000000001  0.6646000000000001  0.5663100000000001  1.0000
  C   C14       1.0  0.16369  0.72963  0.03172  1.0000
  C   C15       1.0  0.47439  0.21659  0.40576000000000007  1.0000
  C   C16       1.0  0.92291  0.83996  0.92813  1.0000
  C   C17       1.0  0.7022  0.46611  0.67184  1.0000
  C   C18       1.0  0.9210600000000001  0.33931  0.57153  1.0000
  C   C19       1.0  0.62287  0.01076  0.9241400000000001  1.0000
  C   C20       1.0  0.07591999999999999  0.18203  0.44057000000000013  1.0000
  C   C21       1.0  0.46322  0.29297  0.39958  1.0000
  C   C22       1.0  0.96854  0.9947500000000001  0.2753  1.0000
  C   C23       1.0  0.66418  0.27341  0.10605  1.0000
  C   C24       1.0  0.21347999999999998  0.82987  0.8665800000000001  1.0000
  C   C25       1.0  0.78107  0.16895  0.13269000000000003  1.0000
  C   C26       1.0  0.37897  0.49452000000000007  0.29347  1.0000
  C   C27       1.0  0.29616  0.87938  0.8943  1.0000
  C   C28       1.0  0.9839  0.44691  0.3957  1.0000
  C   C29       1.0  0.39916  0.85374  0.9201300000000002  1.0000
  C   C30       1.0  0.54066  0.04836  0.88941  1.0000
  C   C31       1.0  0.42963  0.8936399999999999  0.54831  1.0000
  C   C32       1.0  0.7305200000000001  0.8119400000000001  0.88263  1.0000
  C   C33       1.0  0.1157  0.52115  0.58125  1.0000
  C   C34       1.0  0.0214  0.21277  0.90427  1.0000
  C   C35       1.0  0.37806000000000006  0.99451  0.20494  1.0000
  C   C36       1.0  0.62014  0.50983  0.57455  1.0000
  C   C37       1.0  0.15889  0.8062500000000001  0.03747  1.0000
  C   C38       1.0  0.54871  0.34137  0.42612  1.0000
  C   C39       1.0  0.18602  0.63851  0.40936  1.0000
  C   C40       1.0  0.7592000000000001  0.23757  0.62692  1.0000
  C   C41       1.0  0.01285  0.05525999999999999  0.89355  1.0000
  C   C42       1.0  0.6514  0.23745000000000002  0.46623000000000003  1.0000
  C   C43       1.0  0.59491  0.14768  0.07915  1.0000
  C   C44       1.0  0.57105  0.6074900000000001  0.04735  1.0000
  C   C45       1.0  0.027470000000000005  0.50572  0.77629  1.0000
  C   C46       1.0  0.8356100000000001  0.27341  0.96856  1.0000
  C   C47       1.0  0.7009299999999999  0.46865  0.6067600000000001  1.0000
  C   C48       1.0  0.81023  0.36096  0.58885  1.0000
  C   C49       1.0  0.7038600000000002  0.9698200000000001  0.8919300000000001  1.0000
  C   C50       1.0  0.97629  0.7889800000000001  0.09578000000000003  1.0000
  C   C51       1.0  0.97661  0.28966  0.40433  1.0000
  C   C52       1.0  0.53459  0.20729  0.8989500000000001  1.0000
  C   C53       1.0  0.2331  0.25332  0.63311  1.0000
  C   C54       1.0  0.53765  0.54668  0.6747300000000002  1.0000
  C   C55       1.0  0.62921  0.50272  0.7758600000000001  1.0000
  C   C56       1.0  0.64579  0.85527  0.3953  1.0000
  C   C57       1.0  0.57895  0.72307  0.41853000000000007  1.0000
  C   C58       1.0  0.8125200000000002  0.8620400000000001  0.91046  1.0000
  C   C59       1.0  0.7594600000000001  0.73859  0.87346  1.0000
  C   C60       1.0  0.5968900000000003  0.6472900000000001  0.41946  1.0000
  C   C61       1.0  0.6457600000000001  0.81482  0.04174  1.0000
  C   C62       1.0  0.69676  0.1205  0.10509  1.0000
  C   C63       1.0  0.29541  0.03123  0.10649000000000002  1.0000
  C   C64       1.0  0.53884  0.04678  0.8240100000000002  1.0000
  C   C65       1.0  0.95097  0.7666100000000002  0.9183600000000002  1.0000
  C   C66       1.0  0.65267  0.35552  0.10213000000000001  1.0000
  C   C67       1.0  0.44885  0.65851  0.57389  1.0000
  C   C68       1.0  0.97316  0.49481  0.22392  1.0000
  C   C69       1.0  0.83371  0.7701  0.53037  1.0000
  C   C70       1.0  0.33415000000000006  0.22603  0.60663  1.0000
  C   C71       1.0  0.4606799999999999  0.95339  0.17330000000000004  1.0000
  C   C72       1.0  0.64435  0.3137800000000001  0.45802  1.0000
  C   C73       1.0  0.34968  0.14446  0.60221  1.0000
  C   C74       1.0  0.35308  0.64588  0.8956  1.0000
  C   C75       1.0  0.7826600000000001  0.67071  0.3658  1.0000
  C   C76       1.0  0.23298  0.754  0.8663500000000001  1.0000
  C   C77       1.0  0.56877  0.10611  0.45116  1.0000
  C   C78       1.0  0.34707  0.76247  0.53316  1.0000
  C   C79       1.0  0.23887999999999998  0.7620200000000001  0.37231  1.0000
  C   C80       1.0  0.01093  0.95227  0.16705  1.0000
  C   C81       1.0  0.56602  0.18769  0.44035  1.0000
  C   C82       1.0  0.45787999999999995  0.95225  0.10789  1.0000
  C   C83       1.0  0.07613  0.6821  0.0584  1.0000
  C   C84       1.0  0.07598  0.16138  0.07176000000000002  1.0000
  C   C85       1.0  0.41788000000000003  0.77808  0.9190200000000001  1.0000
  C   C86       1.0  0.35309000000000007  0.18511  0.95693  1.0000
  C   C87       1.0  0.29935999999999996  0.37857  0.6063  1.0000
  C   C88       1.0  0.07527  0.10117000000000001  0.4531700000000001  1.0000
  C   C89       1.0  0.88442  0.47916000000000003  0.41886000000000007  1.0000
  C   C90       1.0  0.26906  0.18919  0.11653  1.0000
  C   C91       1.0  0.1622  0.98435  0.8124000000000001  1.0000
  C   C92       1.0  0.37574  0.9904800000000001  0.07366  1.0000
  C   C93       1.0  0.52393  0.7832  0.5938500000000001  1.0000
  C   C94       1.0  0.047880000000000006  0.23467  0.08188  1.0000
  C   C95       1.0  0.76382  0.7466400000000001  0.36567  1.0000
  C   C96       1.0  0.41880000000000006  0.27643  0.58096  1.0000
  C   C97       1.0  0.01357  0.78847  0.59009  1.0000
  C   C98       1.0  0.06344  0.3356  0.43293000000000004  1.0000
  C   C99       1.0  0.45832  0.45175  0.39051  1.0000
  C   C100      1.0  0.07592  0.60137  0.04541  1.0000
  C   C101      1.0  0.01517  0.2899  0.90848  1.0000
  C   C102      1.0  0.5387  0.54793  0.60928  1.0000
  C   C103      1.0  0.622  0.0056  0.7928600000000001  1.0000
  C   C104      1.0  0.69948  0.62134  0.3934  1.0000
  C   C105      1.0  0.9855000000000002  0.54823  0.66742  1.0000
  C   C106      1.0  0.81272  0.51484  0.37651  1.0000
  C   C107      1.0  0.93544  0.98679  0.20808  1.0000
  C   C108      1.0  0.44916  0.15829  0.92495  1.0000
  C   C109      1.0  0.9843  0.04972  0.8303400000000001  1.0000
  C   C110      1.0  0.07529  0.66049  0.42656  1.0000
  C   C111      1.0  0.46145  0.45323  0.32511  1.0000
  C   C112      1.0  0.8995400000000001  0.63659  0.8837300000000001  1.0000
  C   C113      1.0  0.8386  0.19668  0.9624  1.0000
  C   C114      1.0  0.47552999999999995  0.71711  0.09336  1.0000
  C   C115      1.0  0.29577  0.53078  0.39197000000000004  1.0000
  C   C116      1.0  0.70459  0.9672  0.8268400000000001  1.0000
  C   C117      1.0  0.98447  0.71197  0.09215  1.0000
  C   C118      1.0  0.8391699999999999  0.69352  0.53645  1.0000
  C   C119      1.0  0.21535  0.32939  0.63342  1.0000
  C   C120      1.0  0.83126  0.0152  0.18646  1.0000
  C   C121      1.0  0.29625  0.53322  0.32694  1.0000
  C   C122      1.0  0.11076999999999998  0.02238  0.9180700000000003  1.0000
  C   C123      1.0  0.33451  0.72727  0.89275  1.0000
  C   C124      1.0  0.18371  0.98628  0.87666  1.0000
  C   C125      1.0  0.95032  0.26617  0.58176  1.0000
  C   C126      1.0  0.37581  0.48960000000000004  0.42474000000000006  1.0000
  C   C127      1.0  0.76429  0.24505000000000002  0.13276000000000002  1.0000
  C   C128      1.0  0.62053  0.50512  0.7058700000000001  1.0000
  C   C129      1.0  0.9239599999999999  0.32054  0.94208  1.0000
  C   C130      1.0  0.37004  0.99697  0.27487000000000006  1.0000
  C   C131      1.0  0.8812000000000001  0.9782300000000002  0.08034  1.0000
  C   C132      1.0  0.80809  0.01338  0.12235000000000003  1.0000
  C   C133      1.0  0.52268  0.28356000000000003  0.9057  1.0000
  C   C134      1.0  0.34524  0.2612300000000001  0.9656600000000001  1.0000
  C   C135      1.0  0.83703  0.51682  0.31256  1.0000
  C   C136      1.0  0.046900000000000004  0.7338200000000001  0.41659  1.0000
  C   C137      1.0  0.35369  0.68621  0.54167  1.0000
  C   C138      1.0  0.53459  0.7068000000000001  0.6004  1.0000
  C   C139      1.0  0.16364  0.48377000000000003  0.68757  1.0000
  C   C140      1.0  0.01649000000000001  0.55371  0.6044700000000001  1.0000
  C   C141      1.0  0.37093  0.497  0.22355000000000003  1.0000
  C   C142      1.0  0.9407699999999999  0.4874800000000001  0.29137  1.0000
  C   C143      1.0  0.29528  0.03324  0.1715  1.0000
  C   C144      1.0  0.9335899999999999  0.16658  0.93186  1.0000
  C   C145      1.0  0.89881  0.13560999999999998  0.6163500000000001  1.0000
  C   C146      1.0  0.18749  0.48551000000000005  0.6235700000000001  1.0000
  C   C147      1.0  0.9842800000000002  0.21259000000000003  0.40726  1.0000
  C   C148      1.0  0.43264  0.8121000000000002  0.55898  1.0000
  C   C149      1.0  0.92118  0.81797  0.55662  1.0000
  C   C150      1.0  0.02826  0.00568  0.72242  1.0000
  C   C151      1.0  0.06271  0.83555  0.06743  1.0000
  C   C152      1.0  0.015240000000000005  0.45253000000000004  0.33283000000000007  1.0000
  C   C153      1.0  0.92063  0.8987  0.54364  1.0000
  C   C154      1.0  0.56775  0.68873  0.059010000000000014  1.0000
  C   C155      1.0  0.54919  0.84199  0.07302  1.0000
  C   C156      1.0  0.9807299999999999  0.94638  0.10414000000000001  1.0000
  C   C157      1.0  0.16372  0.22894  0.46764  1.0000
  C   C158      1.0  0.26808  0.68874  0.3817  1.0000
  C   C159      1.0  0.10097  0.36476  0.11626  1.0000
  C   C160      1.0  0.15940999999999997  0.30568  0.46264000000000005  1.0000
  C   C161      1.0  0.09977999999999998  0.8644000000000001  0.38225000000000003  1.0000
  C   C162      1.0  0.060070000000000005  0.51323  0.70885  1.0000
  C   C163      1.0  0.12809  0.78527  0.38968  1.0000
  C   C164      1.0  0.02231000000000001  0.7115300000000002  0.5941  1.0000
  C   C165      1.0  0.57906  0.22379000000000002  0.07983000000000001  1.0000
  C   C166      1.0  0.46379999999999993  0.7934  0.09948  1.0000
  C   C167      1.0  0.92468  0.40149000000000007  0.95473  1.0000
  C   C168      1.0  0.86995  0.21465  0.60917  1.0000
  O   O1        1.0  0.51424  0.06362  0.41178000000000003  1.0000
  O   O2        1.0  0.73193  0.90042  0.38406  1.0000
  O   O3        1.0  0.8974500000000001  0.91871  0.48907  1.0000
  O   O4        1.0  0.05713000000000001  0.41215  0.43764  1.0000
  O   O5        1.0  0.45209  0.1256  0.58682  1.0000
  O   O6        1.0  0.93705  0.08964000000000001  0.93419  1.0000
  O   O7        1.0  0.09742  0.58131  0.9907400000000001  1.0000
  O   O8        1.0  0.78682  0.9341499999999999  0.9269100000000001  1.0000
  O   O9        1.0  0.21165  0.067  0.07238  1.0000
  O   O10       1.0  0.10895000000000002  0.50408  0.8161300000000001  1.0000
  O   O11       1.0  0.4228199999999999  0.45192999999999994  0.18976  1.0000
  O   O12       1.0  0.57742  0.04791  0.6890700000000001  1.0000
  O   O13       1.0  0.29089  0.53693  0.07662  1.0000
  O   O14       1.0  0.9167499999999998  0.5005600000000001  0.78694  1.0000
  O   O15       1.0  0.07933000000000001  0.9997900000000001  0.28577  1.0000
  O   O16       1.0  0.09701999999999998  0.08097  0.5078  1.0000
  O   O17       1.0  0.88684  0.99647  0.3151  1.0000
  O   O18       1.0  0.8913899999999999  0.49653  0.18428000000000003  1.0000
  O   O19       1.0  0.90315  0.42239  0.00913  1.0000
  O   O20       1.0  0.62738  0.58477  0.9998100000000001  1.0000
  O   O21       1.0  0.71325  0.5455400000000001  0.40038000000000007  1.0000
  O   O22       1.0  0.8128  0.5890800000000002  0.8791400000000001  1.0000
  O   O23       1.0  0.94727  0.44787  0.90835  1.0000
  O   O24       1.0  0.45207  0.58178  0.57508  1.0000
  O   O25       1.0  0.8177800000000001  0.04493  0.4314400000000001  1.0000
  O   O26       1.0  0.2815  0.95499  0.9018900000000001  1.0000
  O   O27       1.0  0.00611  0.11921000000000001  0.6163400000000001  1.0000
  O   O28       1.0  0.9937500000000001  0.3811  0.11768  1.0000
  O   O29       1.0  0.70853  0.46357  0.92303  1.0000
  O   O30       1.0  0.05287  0.55487  0.09158  1.0000
  O   O31       1.0  0.0075499999999999925  0.62158  0.88221  1.0000
  O   O32       1.0  0.4809399999999999  0.43679000000000007  0.91393  1.0000
  O   O33       1.0  0.69697  0.9520600000000001  0.70184  1.0000
  O   O34       1.0  0.55304  0.37762  0.08528000000000001  1.0000
  O   O35       1.0  0.18759  0.91117  0.3775000000000001  1.0000
  O   O36       1.0  0.26289  0.09958000000000002  0.61292  1.0000
  O   O37       1.0  0.70889  0.04453  0.09817000000000001  1.0000
  O   O38       1.0  0.57756  0.54787  0.8096300000000001  1.0000
  O   O39       1.0  0.0838  0.49961000000000005  0.21294  1.0000
  O   O40       1.0  0.30173  0.0475  0.29572  1.0000
  O   O41       1.0  0.37115  0.41494000000000003  0.00035000000000000005  1.0000
  O   O42       1.0  0.54276  0.87389  0.40992000000000006  1.0000
  O   O43       1.0  0.54401  0.41804  0.42533000000000004  1.0000
  O   O44       1.0  0.10957  0.00357  0.68254  1.0000
  O   O45       1.0  0.45351  0.08165000000000003  0.92353  1.0000
  O   O46       1.0  0.18864  0.41156  0.12087  1.0000
  O   O47       1.0  0.056420000000000005  0.91215  0.06328  1.0000
  O   O48       1.0  0.28971  0.03646  0.42136  1.0000
  O   O49       1.0  0.30307  0.5477  0.20266  1.0000
  O   O50       1.0  0.51508  0.5641  0.08568  1.0000
  O   O51       1.0  0.5434  0.9185200000000001  0.07307  1.0000
  O   O52       1.0  0.26773  0.59959  0.88572  1.0000
  O   O53       1.0  0.45759999999999995  0.6287200000000001  0.90858  1.0000
  O   O54       1.0  0.70833  0.9632900000000001  0.5772800000000001  1.0000
  O   O55       1.0  0.81138  0.08883  0.62217  1.0000
  O   O56       1.0  0.74194  0.39756  0.11474  1.0000
  O   O57       1.0  0.17751  0.4555100000000001  0.9329200000000002  1.0000
  O   O58       1.0  0.8174999999999999  0.54545  0.06982  1.0000
  O   O59       1.0  0.42233  0.95211  0.30863  1.0000
  O   O60       1.0  0.28666  0.45449000000000006  0.5996500000000001  1.0000
  O   O61       1.0  0.21185  0.56645  0.42605  1.0000
  O   O62       1.0  0.17726  0.9545200000000001  0.5654000000000001  1.0000
  O   O63       1.0  0.9444099999999999  0.94514  0.5896300000000001  1.0000
  O   O64       1.0  0.91771  0.00015999999999999977  0.7116700000000001  1.0000
  O   O65       1.0  0.37415000000000004  0.91822  0.50112  1.0000
  O   O66       1.0  0.99254  0.88098  0.38082  1.0000
  O   O67       1.0  0.48469999999999996  0.93595  0.58765  1.0000
  O   O68       1.0  0.783  0.43269  0.57155  1.0000
  O   O69       1.0  0.62342  0.08171  0.49867000000000006  1.0000
  O   O70       1.0  0.69714  0.45210000000000006  0.7969500000000002  1.0000
  O   O71       1.0  0.94285  0.58802  0.56245  1.0000
  O   O72       1.0  0.05183  0.055000000000000014  0.40692  1.0000
