data_image0
_chemical_formula_structural       Co8H80C88N16O40
_chemical_formula_sum              "Co8 H80 C88 N16 O40"
_cell_length_a       11.39472
_cell_length_b       11.39143
_cell_length_c       25.03324
_cell_angle_alpha    89.96060000000001
_cell_angle_beta     90.02884
_cell_angle_gamma    90.05545

_symmetry_space_group_name_H-M    'P 1'
_symmetry_Int_Tables_number       1

loop_
  _symmetry_equiv_pos_as_xyz
  'x,y,z'

loop_
  _atom_site_type_symbol
  _atom_site_label
  _atom_site_symmetry_multiplicity
  _atom_site_fract_x
  _atom_site_fract_y
  _atom_site_fract_z
  _atom_site_occupancy
  Co  Co1       1.0  0.09782  0.90397  0.8755  1.0000
  Co  Co2       1.0  0.90567  0.09823  0.37459  1.0000
  Co  Co3       1.0  0.09458000000000001  0.09706999999999999  0.6248  1.0000
  Co  Co4       1.0  0.90572  0.90185  0.1253  1.0000
  Co  Co5       1.0  0.0003800000000000002  0.79358  9.999999999999999e-05  1.0000
  Co  Co6       1.0  0.99862  0.20859  0.5011  1.0000
  Co  Co7       1.0  0.2039  0.99998  0.74984  1.0000
  Co  Co8       1.0  0.7965300000000001  0.99998  0.25  1.0000
  H   H1        1.0  0.06112000000000001  0.05238  0.050249999999999996  1.0000
  H   H2        1.0  0.75777  0.92259  0.80729  1.0000
  H   H3        1.0  0.54618  0.93666  0.7789599999999999  1.0000
  H   H4        1.0  0.4372  0.82431  0.9346099999999999  1.0000
  H   H5        1.0  0.30393  0.99708  0.93553  1.0000
  H   H6        1.0  0.64863  0.8009799999999999  0.96176  1.0000
  H   H7        1.0  0.40952  0.11158  0.01652  1.0000
  H   H8        1.0  0.32209  0.20769000000000004  0.9761699999999999  1.0000
  H   H9        1.0  0.20963  0.23206999999999994  0.05653999999999999  1.0000
  H   H10       1.0  0.2623  0.09699  0.08426  1.0000
  H   H11       1.0  0.94048  0.94972  0.54927  1.0000
  H   H12       1.0  0.24435  0.07693  0.30773  1.0000
  H   H13       1.0  0.45599000000000006  0.0623  0.27971  1.0000
  H   H14       1.0  0.56441  0.17649  0.43516  1.0000
  H   H15       1.0  0.69682  0.008290000000000002  0.4353599999999999  1.0000
  H   H16       1.0  0.35275  0.19961999999999996  0.46204  1.0000
  H   H17       1.0  0.59174  0.89071  0.51594  1.0000
  H   H18       1.0  0.67913  0.7964099999999998  0.4747799999999999  1.0000
  H   H19       1.0  0.79231  0.76959  0.5549  1.0000
  H   H20       1.0  0.73991  0.90379  0.58344  1.0000
  H   H21       1.0  0.9488000000000001  0.05985  0.79915  1.0000
  H   H22       1.0  0.0772  0.7568  0.55657  1.0000
  H   H23       1.0  0.06525  0.54499  0.52842  1.0000
  H   H24       1.0  0.17574  0.43742999999999993  0.6846399999999999  1.0000
  H   H25       1.0  0.00291  0.30348  0.68446  1.0000
  H   H26       1.0  0.19767  0.6492  0.71146  1.0000
  H   H27       1.0  0.8907300000000001  0.40855  0.76615  1.0000
  H   H28       1.0  0.7929700000000001  0.32248  0.72598  1.0000
  H   H29       1.0  0.76916  0.20817999999999998  0.80592  1.0000
  H   H30       1.0  0.90447  0.26052  0.83357  1.0000
  H   H31       1.0  0.05201  0.94038  0.29971  1.0000
  H   H32       1.0  0.92319  0.24298  0.05661  1.0000
  H   H33       1.0  0.93646  0.45519  0.02901  1.0000
  H   H34       1.0  0.82434  0.5608999999999998  0.18516  1.0000
  H   H35       1.0  0.9965300000000001  0.6963399999999998  0.18548  1.0000
  H   H36       1.0  0.80183  0.34865  0.21147  1.0000
  H   H37       1.0  0.11045  0.59158  0.26688  1.0000
  H   H38       1.0  0.20730000000000004  0.67822  0.22649  1.0000
  H   H39       1.0  0.23161000000000004  0.79206  0.30652  1.0000
  H   H40       1.0  0.09631000000000002  0.73968  0.3342  1.0000
  H   H41       1.0  0.93937  0.05176  0.94995  1.0000
  H   H42       1.0  0.24474000000000004  0.9229599999999999  0.19209  1.0000
  H   H43       1.0  0.45655  0.9377099999999999  0.22012999999999996  1.0000
  H   H44       1.0  0.56451  0.82348  0.0647  1.0000
  H   H45       1.0  0.6968000000000001  0.99398  0.06444  1.0000
  H   H46       1.0  0.35274  0.8001899999999998  0.03779  1.0000
  H   H47       1.0  0.59095  0.11019  0.9838499999999999  1.0000
  H   H48       1.0  0.67867  0.20552999999999996  0.0245  1.0000
  H   H49       1.0  0.7909  0.23143  0.9441399999999999  1.0000
  H   H50       1.0  0.7381900000000001  0.09664999999999999  0.9161  1.0000
  H   H51       1.0  0.061  0.9479399999999999  0.4498599999999999  1.0000
  H   H52       1.0  0.75532  0.07700999999999998  0.69273  1.0000
  H   H53       1.0  0.54344  0.06265  0.72061  1.0000
  H   H54       1.0  0.43592000000000003  0.17642999999999998  0.56493  1.0000
  H   H55       1.0  0.30353  0.00581  0.56442  1.0000
  H   H56       1.0  0.64774  0.19989  0.53825  1.0000
  H   H57       1.0  0.40924  0.89041  0.48375  1.0000
  H   H58       1.0  0.32216  0.79438  0.52438  1.0000
  H   H59       1.0  0.20954  0.76857  0.44408  1.0000
  H   H60       1.0  0.26156  0.90374  0.41611  1.0000
  H   H61       1.0  0.051800000000000006  0.05968  0.20032  1.0000
  H   H62       1.0  0.92265  0.75744  0.44354  1.0000
  H   H63       1.0  0.9373000000000001  0.54539  0.47112  1.0000
  H   H64       1.0  0.82467  0.43885  0.31509  1.0000
  H   H65       1.0  0.99706  0.3038  0.31445  1.0000
  H   H66       1.0  0.80124  0.65096  0.28872  1.0000
  H   H67       1.0  0.11092  0.40847  0.23303  1.0000
  H   H68       1.0  0.20773  0.322  0.27347  1.0000
  H   H69       1.0  0.23178  0.20806  0.19347999999999999  1.0000
  H   H70       1.0  0.09645000000000001  0.26023  0.16578  1.0000
  H   H71       1.0  0.9474500000000002  0.93996  0.70008  1.0000
  H   H72       1.0  0.07615  0.24419  0.94304  1.0000
  H   H73       1.0  0.06275  0.45630999999999994  0.97042  1.0000
  H   H74       1.0  0.17666  0.56218  0.81449  1.0000
  H   H75       1.0  0.00601  0.69664  0.81417  1.0000
  H   H76       1.0  0.19856000000000001  0.34993  0.78823  1.0000
  H   H77       1.0  0.88984  0.59114  0.73348  1.0000
  H   H78       1.0  0.79414  0.67785  0.77427  1.0000
  H   H79       1.0  0.76797  0.79085  0.69403  1.0000
  H   H80       1.0  0.9030900000000001  0.7393199999999999  0.6660299999999999  1.0000
  C   C1        1.0  0.16189  0.007389999999999999  0.9848799999999999  1.0000
  C   C2        1.0  0.47956  0.8838699999999999  0.85521  1.0000
  C   C3        1.0  0.84147  0.8543999999999999  0.9041499999999999  1.0000
  C   C4        1.0  0.35458  0.90213  0.83816  1.0000
  C   C5        1.0  0.68721  0.8998499999999999  0.8347  1.0000
  C   C6        1.0  0.71559  0.8610599999999998  0.8864  1.0000
  C   C7        1.0  0.57027  0.9090499999999999  0.81906  1.0000
  C   C8        1.0  0.50785  0.84505  0.9069  1.0000
  C   C9        1.0  0.62495  0.83212  0.9221  1.0000
  C   C10       1.0  0.32084  0.12883  0.0015  1.0000
  C   C11       1.0  0.23088000000000006  0.14027  0.04772  1.0000
  C   C12       1.0  0.8386600000000001  0.9969  0.48453  1.0000
  C   C13       1.0  0.52245  0.1163  0.35581999999999997  1.0000
  C   C14       1.0  0.16014  0.14551  0.40429999999999994  1.0000
  C   C15       1.0  0.64756  0.09939  0.3385099999999999  1.0000
  C   C16       1.0  0.3148  0.09993  0.33517  1.0000
  C   C17       1.0  0.28619  0.13909  0.38676999999999995  1.0000
  C   C18       1.0  0.43176  0.09057  0.3196799999999999  1.0000
  C   C19       1.0  0.49389  0.15546  0.40741  1.0000
  C   C20       1.0  0.3766900000000001  0.16828  0.42247999999999997  1.0000
  C   C21       1.0  0.68032  0.87438  0.50063  1.0000
  C   C22       1.0  0.77086  0.86161  0.54659  1.0000
  C   C23       1.0  0.99266  0.16109  0.7337199999999999  1.0000
  C   C24       1.0  0.11748000000000001  0.47907  0.60491  1.0000
  C   C25       1.0  0.14463  0.84132  0.6533599999999999  1.0000
  C   C26       1.0  0.10062  0.35414  0.58775  1.0000
  C   C27       1.0  0.1001  0.68652  0.58412  1.0000
  C   C28       1.0  0.1381  0.71534  0.63588  1.0000
  C   C29       1.0  0.09213000000000002  0.56946  0.56857  1.0000
  C   C30       1.0  0.15511  0.50777  0.6567299999999998  1.0000
  C   C31       1.0  0.16708  0.62507  0.67178  1.0000
  C   C32       1.0  0.87228  0.32023  0.75097  1.0000
  C   C33       1.0  0.8609  0.22962999999999997  0.7970299999999998  1.0000
  C   C34       1.0  0.00762  0.83893  0.23446  1.0000
  C   C35       1.0  0.88359  0.52013  0.10555999999999999  1.0000
  C   C36       1.0  0.85536  0.15788  0.15328  1.0000
  C   C37       1.0  0.90217  0.64517  0.0891  1.0000
  C   C38       1.0  0.90011  0.31302  0.08421  1.0000
  C   C39       1.0  0.86176  0.28374  0.13585  1.0000
  C   C40       1.0  0.90884  0.43024999999999997  0.069  1.0000
  C   C41       1.0  0.8450000000000001  0.49085999999999996  0.15716  1.0000
  C   C42       1.0  0.83255  0.37345  0.1719  1.0000
  C   C43       1.0  0.1283  0.68004  0.25167  1.0000
  C   C44       1.0  0.13984  0.77064  0.29765  1.0000
  C   C45       1.0  0.83849  0.00556  0.015189999999999999  1.0000
  C   C46       1.0  0.52268  0.88375  0.14401  1.0000
  C   C47       1.0  0.16052  0.85436  0.09574  1.0000
  C   C48       1.0  0.64781  0.9006199999999999  0.16137  1.0000
  C   C49       1.0  0.31518000000000007  0.8999499999999999  0.1647  1.0000
  C   C50       1.0  0.28651  0.8606399999999998  0.11312  1.0000
  C   C51       1.0  0.43215  0.90944  0.18016999999999997  1.0000
  C   C52       1.0  0.49405  0.84448  0.09243  1.0000
  C   C53       1.0  0.37681000000000003  0.8315  0.07737  1.0000
  C   C54       1.0  0.67968  0.12712  0.99893  1.0000
  C   C55       1.0  0.76967  0.13945  0.9527399999999999  1.0000
  C   C56       1.0  0.16141  0.9937599999999999  0.51533  1.0000
  C   C57       1.0  0.4776  0.11620999999999998  0.6443  1.0000
  C   C58       1.0  0.83973  0.1473  0.59668  1.0000
  C   C59       1.0  0.3524  0.09936  0.66145  1.0000
  C   C60       1.0  0.68495  0.10019  0.66529  1.0000
  C   C61       1.0  0.7137300000000001  0.13994  0.61379  1.0000
  C   C62       1.0  0.56794  0.09064999999999998  0.68063  1.0000
  C   C63       1.0  0.50634  0.15548  0.59273  1.0000
  C   C64       1.0  0.6236  0.16874  0.57784  1.0000
  C   C65       1.0  0.32068  0.87297  0.49887  1.0000
  C   C66       1.0  0.23051  0.86057  0.45274  1.0000
  C   C67       1.0  0.00777  0.16115  0.26548  1.0000
  C   C68       1.0  0.8842600000000002  0.48004  0.39458999999999994  1.0000
  C   C69       1.0  0.85512  0.84213  0.34680999999999995  1.0000
  C   C70       1.0  0.90269  0.35494999999999993  0.41088  1.0000
  C   C71       1.0  0.8999500000000001  0.68723  0.4159399999999999  1.0000
  C   C72       1.0  0.8613800000000003  0.71629  0.3643  1.0000
  C   C73       1.0  0.90936  0.57004  0.4311399999999999  1.0000
  C   C74       1.0  0.8453000000000002  0.50909  0.34301  1.0000
  C   C75       1.0  0.83231  0.6264  0.32827  1.0000
  C   C76       1.0  0.1287  0.32006  0.24827999999999995  1.0000
  C   C77       1.0  0.14006  0.22939  0.20233  1.0000
  C   C78       1.0  0.99332  0.83895  0.76522  1.0000
  C   C79       1.0  0.11636  0.52144  0.89395  1.0000
  C   C80       1.0  0.14498  0.15868  0.84666  1.0000
  C   C81       1.0  0.09943  0.64671  0.9105499999999997  1.0000
  C   C82       1.0  0.09935  0.31417  0.9153599999999998  1.0000
  C   C83       1.0  0.13833  0.28475999999999996  0.86383  1.0000
  C   C84       1.0  0.09047  0.43144  0.9304499999999999  1.0000
  C   C85       1.0  0.15521  0.49206999999999995  0.84241  1.0000
  C   C86       1.0  0.16756  0.37462  0.82775  1.0000
  C   C87       1.0  0.87255  0.67961  0.7486999999999999  1.0000
  C   C88       1.0  0.85994  0.77006  0.7026699999999998  1.0000
  N   N1        1.0  0.12842  0.07841  0.02599  1.0000
  N   N2        1.0  0.27499  0.027909999999999994  0.972  1.0000
  N   N3        1.0  0.87295  0.92433  0.52499  1.0000
  N   N4        1.0  0.72548  0.97662  0.47176999999999997  1.0000
  N   N5        1.0  0.92247  0.12735  0.7750599999999999  1.0000
  N   N6        1.0  0.9721300000000002  0.27415  0.7208999999999999  1.0000
  N   N7        1.0  0.07824  0.87292  0.27562  1.0000
  N   N8        1.0  0.027870000000000002  0.72577  0.22185999999999997  1.0000
  N   N9        1.0  0.87213  0.07741  0.97431  1.0000
  N   N10       1.0  0.72536  0.02558  0.02806  1.0000
  N   N11       1.0  0.12785  0.9220299999999999  0.47441  1.0000
  N   N12       1.0  0.27464  0.97407  0.52813  1.0000
  N   N13       1.0  0.07837  0.1271  0.22438999999999995  1.0000
  N   N14       1.0  0.02826  0.27431  0.2781  1.0000
  N   N15       1.0  0.92141  0.8727499999999999  0.72443  1.0000
  N   N16       1.0  0.97385  0.7255699999999999  0.7779  1.0000
  O   O1        1.0  0.91624  0.91044  0.87565  1.0000
  O   O2        1.0  0.27821  0.9106599999999999  0.87585  1.0000
  O   O3        1.0  0.33419000000000004  0.9102499999999999  0.78867  1.0000
  O   O4        1.0  0.86283  0.7966199999999999  0.9464  1.0000
  O   O5        1.0  0.09515000000000001  0.9343  0.9609799999999997  1.0000
  O   O6        1.0  0.08659  0.08857  0.37534  1.0000
  O   O7        1.0  0.72499  0.09516  0.37594999999999995  1.0000
  O   O8        1.0  0.66638  0.08975999999999999  0.2889  1.0000
  O   O9        1.0  0.13756  0.2026  0.44649  1.0000
  O   O10       1.0  0.90454  0.07148  0.4608999999999999  1.0000
  O   O11       1.0  0.08895000000000002  0.91575  0.62458  1.0000
  O   O12       1.0  0.08945  0.27732  0.62509  1.0000
  O   O13       1.0  0.09586  0.33376  0.53809  1.0000
  O   O14       1.0  0.20238  0.86335  0.69556  1.0000
  O   O15       1.0  0.06572  0.09467  0.7095299999999999  1.0000
  O   O16       1.0  0.9110000000000003  0.08355  0.12451  1.0000
  O   O17       1.0  0.91077  0.7213699999999998  0.12695  1.0000
  O   O18       1.0  0.91075  0.66666  0.03976  1.0000
  O   O19       1.0  0.79775  0.13604  0.19554  1.0000
  O   O20       1.0  0.93447  0.9053399999999999  0.21023999999999998  1.0000
  O   O21       1.0  0.08710000000000001  0.9111699999999998  0.12465  1.0000
  O   O22       1.0  0.7252  0.9049099999999999  0.12398  1.0000
  O   O23       1.0  0.66646  0.9101  0.21102  1.0000
  O   O24       1.0  0.13761  0.79696  0.05359  1.0000
  O   O25       1.0  0.90498  0.9322199999999999  0.03901  1.0000
  O   O26       1.0  0.91291  0.08803  0.62462  1.0000
  O   O27       1.0  0.27518  0.09507  0.62401  1.0000
  O   O28       1.0  0.33357  0.08995  0.71113  1.0000
  O   O29       1.0  0.8628800000000002  0.20808  0.55547  1.0000
  O   O30       1.0  0.09456  0.06644  0.53931  1.0000
  O   O31       1.0  0.9108500000000002  0.91654  0.37558  1.0000
  O   O32       1.0  0.91119  0.27901  0.37305  1.0000
  O   O33       1.0  0.9107300000000002  0.3332  0.46029  1.0000
  O   O34       1.0  0.79774  0.86388  0.30447  1.0000
  O   O35       1.0  0.93443  0.09472999999999998  0.28961  1.0000
  O   O36       1.0  0.08895000000000002  0.08462  0.87571  1.0000
  O   O37       1.0  0.09517000000000002  0.7235499999999999  0.8728  1.0000
  O   O38       1.0  0.08956  0.66722  0.95997  1.0000
  O   O39       1.0  0.20231  0.13625  0.80447  1.0000
  O   O40       1.0  0.06656  0.9055399999999999  0.7891199999999999  1.0000
