data_image0
_chemical_formula_structural       Zn8H72C106N16O40
_chemical_formula_sum              "Zn8 H72 C106 N16 O40"
_cell_length_a       17.4852
_cell_length_b       17.55215
_cell_length_c       17.49461
_cell_angle_alpha    88.91718000000002
_cell_angle_beta     120.67663
_cell_angle_gamma    120.63043

_symmetry_space_group_name_H-M    'P 1'
_symmetry_Int_Tables_number       1

loop_
  _symmetry_equiv_pos_as_xyz
  'x,y,z'

loop_
  _atom_site_type_symbol
  _atom_site_label
  _atom_site_symmetry_multiplicity
  _atom_site_fract_x
  _atom_site_fract_y
  _atom_site_fract_z
  _atom_site_occupancy
  Zn  Zn1       1.0  0.03646000000000001  0.5635  0.24679  1.0000
  Zn  Zn2       1.0  0.4660599999999999  0.21250000000000005  0.02722  1.0000
  Zn  Zn3       1.0  0.68586  0.47356999999999994  0.93833  1.0000
  Zn  Zn4       1.0  0.81572  0.25438000000000005  0.28745  1.0000
  Zn  Zn5       1.0  0.3141399999999999  0.5264300000000001  0.06167  1.0000
  Zn  Zn6       1.0  0.18427999999999994  0.74562  0.71255  1.0000
  Zn  Zn7       1.0  0.9635400000000001  0.4365  0.75321  1.0000
  Zn  Zn8       1.0  0.5339400000000002  0.7875000000000002  0.97278  1.0000
  H   H1        1.0  0.8565900000000001  0.34481000000000006  0.92961  1.0000
  H   H2        1.0  0.0038999999999999933  0.3168400000000001  0.99344  1.0000
  H   H3        1.0  0.15935  0.39485  0.16236  1.0000
  H   H4        1.0  0.2197299999999999  0.74611  0.40103  1.0000
  H   H5        1.0  0.2648600000000001  0.9029100000000002  0.43675  1.0000
  H   H6        1.0  0.99851  0.8231800000000002  0.14553  1.0000
  H   H7        1.0  0.9624700000000002  0.6654100000000002  0.12364  1.0000
  H   H8        1.0  0.31875  0.04476999999999999  0.40607  1.0000
  H   H9        1.0  0.23462999999999998  0.019209999999999977  0.44583  1.0000
  H   H10       1.0  0.6429099999999998  0.07225000000000002  0.9875299999999999  1.0000
  H   H11       1.0  0.49322000000000005  0.9865900000000002  0.81269  1.0000
  H   H12       1.0  0.33879  0.0009600000000000008  0.73551  1.0000
  H   H13       1.0  0.28362  0.18344  0.02825  1.0000
  H   H14       1.0  0.23729  0.17203000000000004  0.13979  1.0000
  H   H15       1.0  0.50308  0.14663  0.32551  1.0000
  H   H16       1.0  0.5403  0.16287000000000001  0.20395  1.0000
  H   H17       1.0  0.18162  0.08546  0.22657  1.0000
  H   H18       1.0  0.26584  0.20914000000000005  0.28451  1.0000
  H   H19       1.0  0.58456  0.51015  0.15504  1.0000
  H   H20       1.0  0.67337  0.6846500000000002  0.18201  1.0000
  H   H21       1.0  0.76408  0.7626000000000002  0.1039  1.0000
  H   H22       1.0  0.65401  0.47365  0.75425  1.0000
  H   H23       1.0  0.53222  0.36123  0.59691  1.0000
  H   H24       1.0  0.32304000000000005  0.1747700000000001  0.67769  1.0000
  H   H25       1.0  0.45962  0.29662  0.83606  1.0000
  H   H26       1.0  0.36058  0.27245  0.45494  1.0000
  H   H27       1.0  0.42633000000000004  0.21438  0.48113  1.0000
  H   H28       1.0  0.9163800000000001  0.5714900000000003  0.42530999999999997  1.0000
  H   H29       1.0  0.8283899999999998  0.50983  0.512  1.0000
  H   H30       1.0  0.73792  0.34205000000000013  0.49963  1.0000
  H   H31       1.0  0.84555  0.10153  0.31874  1.0000
  H   H32       1.0  0.96661  0.06457000000000003  0.32901  1.0000
  H   H33       1.0  0.17881999999999998  0.35371  0.35265  1.0000
  H   H34       1.0  0.04260000000000005  0.3765900000000001  0.33714  1.0000
  H   H35       1.0  0.14016  0.09461000000000001  0.4135  1.0000
  H   H36       1.0  0.07376999999999997  0.05427  0.2893899999999999  1.0000
  H   H37       1.0  0.4154500000000001  0.4898500000000001  0.84496  1.0000
  H   H38       1.0  0.32663999999999993  0.31535  0.818  1.0000
  H   H39       1.0  0.23592  0.23740000000000006  0.8961  1.0000
  H   H40       1.0  0.34598999999999996  0.52635  0.24575  1.0000
  H   H41       1.0  0.46778999999999993  0.63877  0.40309  1.0000
  H   H42       1.0  0.6769600000000001  0.8252300000000002  0.32231999999999994  1.0000
  H   H43       1.0  0.54038  0.7033800000000001  0.16395  1.0000
  H   H44       1.0  0.63943  0.72755  0.54506  1.0000
  H   H45       1.0  0.5736800000000001  0.7856200000000002  0.51888  1.0000
  H   H46       1.0  0.08362000000000004  0.4285100000000001  0.57469  1.0000
  H   H47       1.0  0.17161000000000007  0.4901700000000001  0.48801  1.0000
  H   H48       1.0  0.26208  0.65795  0.50037  1.0000
  H   H49       1.0  0.15445000000000014  0.8984700000000002  0.68126  1.0000
  H   H50       1.0  0.0333899999999999  0.9354299999999999  0.6709999999999999  1.0000
  H   H51       1.0  0.82118  0.64629  0.64735  1.0000
  H   H52       1.0  0.9574  0.62342  0.66286  1.0000
  H   H53       1.0  0.85984  0.9053900000000003  0.5865  1.0000
  H   H54       1.0  0.92623  0.9457300000000001  0.71061  1.0000
  H   H55       1.0  0.14341  0.65519  0.0704  1.0000
  H   H56       1.0  0.9960999999999999  0.68316  0.006559999999999999  1.0000
  H   H57       1.0  0.84065  0.60515  0.83764  1.0000
  H   H58       1.0  0.7802699999999999  0.25389  0.59897  1.0000
  H   H59       1.0  0.73514  0.09709000000000005  0.56325  1.0000
  H   H60       1.0  0.0015000000000000395  0.17682000000000006  0.85448  1.0000
  H   H61       1.0  0.03753000000000002  0.33459  0.87636  1.0000
  H   H62       1.0  0.6812600000000001  0.9552300000000002  0.59393  1.0000
  H   H63       1.0  0.7653700000000001  0.9807900000000003  0.55417  1.0000
  H   H64       1.0  0.3570899999999999  0.92775  0.01248  1.0000
  H   H65       1.0  0.50678  0.013409999999999995  0.18730999999999998  1.0000
  H   H66       1.0  0.6612100000000001  0.9990400000000002  0.2645  1.0000
  H   H67       1.0  0.71638  0.8165600000000001  0.9717599999999998  1.0000
  H   H68       1.0  0.76271  0.82797  0.86021  1.0000
  H   H69       1.0  0.4969200000000002  0.8533700000000003  0.67449  1.0000
  H   H70       1.0  0.45969999999999994  0.83713  0.79606  1.0000
  H   H71       1.0  0.8183800000000002  0.9145400000000002  0.77343  1.0000
  H   H72       1.0  0.73416  0.79086  0.71549  1.0000
  C   C1        1.0  0.85701  0.4615300000000001  0.03853  1.0000
  C   C2        1.0  0.9357999999999999  0.4364800000000001  0.06461  1.0000
  C   C3        1.0  0.92604  0.37704  0.00311  1.0000
  C   C4        1.0  0.007469999999999994  0.36195  0.03888  1.0000
  C   C5        1.0  0.0951900000000001  0.40550000000000014  0.13399  1.0000
  C   C6        1.0  0.09947000000000002  0.46393  0.1915  1.0000
  C   C7        1.0  0.18845000000000012  0.5150900000000003  0.2967  1.0000
  C   C8        1.0  0.17316  0.76538  0.34542  1.0000
  C   C9        1.0  0.1989600000000001  0.8549100000000002  0.36523  1.0000
  C   C10       1.0  0.13606000000000007  0.8768700000000001  0.29248  1.0000
  C   C11       1.0  0.04997000000000017  0.8087900000000002  0.20322  1.0000
  C   C12       1.0  0.030140000000000108  0.7215600000000002  0.19044  1.0000
  C   C13       1.0  0.24408999999999997  0.035429999999999996  0.38899  1.0000
  C   C14       1.0  0.64491  0.18341000000000005  0.10394999999999999  1.0000
  C   C15       1.0  0.56511  0.12967  0.00018  1.0000
  C   C16       1.0  0.5736199999999999  0.07654000000000001  0.95054  1.0000
  C   C17       1.0  0.49102999999999997  0.029830000000000006  0.85424  1.0000
  C   C18       1.0  0.40359000000000006  0.037590000000000026  0.81017  1.0000
  C   C19       1.0  0.40053000000000005  0.09211000000000005  0.8643  1.0000
  C   C20       1.0  0.31177  0.10859000000000006  0.82706  1.0000
  C   C21       1.0  0.32992  0.17404999999999998  0.09398  1.0000
  C   C22       1.0  0.30345  0.16687000000000002  0.15763  1.0000
  C   C23       1.0  0.3655399999999999  0.15596  0.24211  1.0000
  C   C24       1.0  0.45196000000000003  0.15343000000000007  0.2599  1.0000
  C   C25       1.0  0.47254  0.16175  0.1926  1.0000
  C   C26       1.0  0.25612  0.14305  0.29188  1.0000
  C   C27       1.0  0.5798999999999999  0.39569000000000004  0.04010999999999999  1.0000
  C   C28       1.0  0.6294  0.499  0.06436  1.0000
  C   C29       1.0  0.6256999999999999  0.54784  0.12296  1.0000
  C   C30       1.0  0.67484  0.6438  0.13734  1.0000
  C   C31       1.0  0.7262  0.68821  0.0938  1.0000
  C   C32       1.0  0.72673  0.63485  0.03602  1.0000
  C   C33       1.0  0.7805399999999998  0.6730100000000002  0.98471  1.0000
  C   C34       1.0  0.57959  0.40757  0.73519  1.0000
  C   C35       1.0  0.50947  0.34356  0.64536  1.0000
  C   C36       1.0  0.41522999999999993  0.25853  0.62352  1.0000
  C   C37       1.0  0.39487  0.24070000000000003  0.69205  1.0000
  C   C38       1.0  0.46979  0.3082800000000001  0.77966  1.0000
  C   C39       1.0  0.35295  0.20748  0.46448  1.0000
  C   C40       1.0  0.92181  0.46170000000000005  0.31567  1.0000
  C   C41       1.0  0.8718700000000003  0.43641000000000013  0.36934  1.0000
  C   C42       1.0  0.8753899999999999  0.49848999999999993  0.42191  1.0000
  C   C43       1.0  0.82655  0.4638200000000001  0.46922  1.0000
  C   C44       1.0  0.77527  0.36926  0.46243  1.0000
  C   C45       1.0  0.77447  0.3111  0.40811  1.0000
  C   C46       1.0  0.72059  0.20635000000000006  0.39216  1.0000
  C   C47       1.0  0.9204699999999999  0.15627000000000005  0.3274  1.0000
  C   C48       1.0  0.9903000000000001  0.13584  0.33401  1.0000
  C   C49       1.0  0.08523000000000003  0.20772000000000002  0.3436600000000001  1.0000
  C   C50       1.0  0.10641000000000006  0.2966100000000001  0.34626  1.0000
  C   C51       1.0  0.031720000000000005  0.30996  0.33849  1.0000
  C   C52       1.0  0.14737  0.11106000000000003  0.35563  1.0000
  C   C53       1.0  0.25007999999999997  0.12428  0.3752  1.0000
  C   C54       1.0  0.4201  0.6043100000000002  0.95989  1.0000
  C   C55       1.0  0.3706  0.50101  0.93564  1.0000
  C   C56       1.0  0.3743  0.45216  0.87704  1.0000
  C   C57       1.0  0.32515999999999995  0.3562  0.8626599999999999  1.0000
  C   C58       1.0  0.2738  0.3117900000000001  0.9062  1.0000
  C   C59       1.0  0.27327  0.36515  0.96399  1.0000
  C   C60       1.0  0.21946000000000004  0.3269900000000001  0.015289999999999998  1.0000
  C   C61       1.0  0.42040999999999995  0.59243  0.26481  1.0000
  C   C62       1.0  0.49053000000000013  0.6564400000000002  0.35464  1.0000
  C   C63       1.0  0.5847799999999997  0.74147  0.37649  1.0000
  C   C64       1.0  0.6051299999999997  0.7593  0.30795999999999996  1.0000
  C   C65       1.0  0.53022  0.69172  0.22035  1.0000
  C   C66       1.0  0.64705  0.7925200000000002  0.53552  1.0000
  C   C67       1.0  0.07819000000000009  0.5383000000000002  0.68433  1.0000
  C   C68       1.0  0.12813  0.56359  0.63066  1.0000
  C   C69       1.0  0.12461000000000003  0.5015100000000001  0.57809  1.0000
  C   C70       1.0  0.17345000000000008  0.5361800000000002  0.53079  1.0000
  C   C71       1.0  0.22473000000000004  0.6307400000000001  0.53757  1.0000
  C   C72       1.0  0.2255300000000001  0.6889100000000002  0.59189  1.0000
  C   C73       1.0  0.2794099999999999  0.7936599999999999  0.6078399999999999  1.0000
  C   C74       1.0  0.07952999999999999  0.84373  0.6726  1.0000
  C   C75       1.0  0.009700000000000097  0.8641600000000003  0.666  1.0000
  C   C76       1.0  0.9147700000000001  0.79229  0.65634  1.0000
  C   C77       1.0  0.8936  0.70339  0.65375  1.0000
  C   C78       1.0  0.96828  0.6900400000000002  0.66152  1.0000
  C   C79       1.0  0.8526399999999997  0.88894  0.64437  1.0000
  C   C80       1.0  0.1429900000000001  0.5384700000000002  0.96147  1.0000
  C   C81       1.0  0.06420000000000003  0.56352  0.93539  1.0000
  C   C82       1.0  0.07395999999999994  0.62296  0.9969  1.0000
  C   C83       1.0  0.99253  0.6380500000000002  0.96112  1.0000
  C   C84       1.0  0.9048099999999998  0.5945  0.86601  1.0000
  C   C85       1.0  0.90053  0.53607  0.80851  1.0000
  C   C86       1.0  0.81155  0.48491  0.7032999999999999  1.0000
  C   C87       1.0  0.82684  0.23462  0.65458  1.0000
  C   C88       1.0  0.8010399999999999  0.14509  0.6347699999999998  1.0000
  C   C89       1.0  0.8639399999999999  0.12312999999999999  0.70752  1.0000
  C   C90       1.0  0.9500300000000002  0.19121000000000005  0.7967800000000002  1.0000
  C   C91       1.0  0.96986  0.27844  0.80956  1.0000
  C   C92       1.0  0.7559099999999997  0.96457  0.61102  1.0000
  C   C93       1.0  0.35509  0.8165900000000001  0.89605  1.0000
  C   C94       1.0  0.43489000000000005  0.8703300000000003  0.99982  1.0000
  C   C95       1.0  0.4263800000000001  0.92346  0.04947  1.0000
  C   C96       1.0  0.50897  0.9701700000000002  0.14576  1.0000
  C   C97       1.0  0.59641  0.96241  0.18984  1.0000
  C   C98       1.0  0.5994800000000001  0.9078900000000002  0.13571  1.0000
  C   C99       1.0  0.68823  0.8914100000000003  0.17294  1.0000
  C   C100      1.0  0.6700800000000002  0.8259500000000002  0.90603  1.0000
  C   C101      1.0  0.6965500000000001  0.8331400000000002  0.84237  1.0000
  C   C102      1.0  0.63446  0.84404  0.7579  1.0000
  C   C103      1.0  0.54804  0.84657  0.7400999999999999  1.0000
  C   C104      1.0  0.52746  0.83825  0.8074  1.0000
  C   C105      1.0  0.7438900000000002  0.8569500000000003  0.70813  1.0000
  C   C106      1.0  0.74992  0.8757200000000003  0.6248  1.0000
  N   N1        1.0  0.09074000000000013  0.6993500000000002  0.25994  1.0000
  N   N2        1.0  0.02099000000000008  0.4780100000000001  0.15549  1.0000
  N   N3        1.0  0.41245000000000004  0.17134000000000005  0.11002  1.0000
  N   N4        1.0  0.48010999999999987  0.1355800000000001  0.9566699999999999  1.0000
  N   N5        1.0  0.5611499999999999  0.39125  0.8018099999999999  1.0000
  N   N6        1.0  0.6784500000000001  0.5428300000000001  0.02279  1.0000
  N   N7        1.0  0.9396899999999999  0.24131999999999998  0.32959  1.0000
  N   N8        1.0  0.82286  0.3461  0.3642  1.0000
  N   N9        1.0  0.43885  0.60875  0.1982  1.0000
  N   N10       1.0  0.32155000000000017  0.45717000000000013  0.97721  1.0000
  N   N11       1.0  0.06032000000000011  0.7586800000000002  0.67041  1.0000
  N   N12       1.0  0.17714000000000005  0.6539  0.63581  1.0000
  N   N13       1.0  0.90926  0.30065000000000003  0.74006  1.0000
  N   N14       1.0  0.9790199999999998  0.52199  0.8445199999999999  1.0000
  N   N15       1.0  0.5875500000000001  0.8286600000000001  0.88998  1.0000
  N   N16       1.0  0.5198900000000001  0.8644200000000003  0.04333  1.0000
  O   O1        1.0  0.8763599999999997  0.51482  0.10318  1.0000
  O   O2        1.0  0.7759899999999998  0.4281500000000001  0.95213  1.0000
  O   O3        1.0  0.1768200000000001  0.5656900000000002  0.33674  1.0000
  O   O4        1.0  0.26276  0.5032500000000001  0.3353  1.0000
  O   O5        1.0  0.15070000000000017  0.9607600000000002  0.3012  1.0000
  O   O6        1.0  0.6266500000000002  0.22990000000000002  0.13788  1.0000
  O   O7        1.0  0.72553  0.17760000000000006  0.15161  1.0000
  O   O8        1.0  0.32482  0.16129  0.88963  1.0000
  O   O9        1.0  0.23644  0.07223000000000004  0.74115  1.0000
  O   O10       1.0  0.34943999999999986  0.14818  0.31081  1.0000
  O   O11       1.0  0.59312  0.36246  0.98805  1.0000
  O   O12       1.0  0.52609  0.3479500000000001  0.07265  1.0000
  O   O13       1.0  0.77111  0.6114400000000002  0.9345  1.0000
  O   O14       1.0  0.8297899999999999  0.7588  0.99621  1.0000
  O   O15       1.0  0.33987  0.18916  0.53926  1.0000
  O   O16       1.0  0.9099699999999997  0.39704  0.26998  1.0000
  O   O17       1.0  0.97473  0.54777  0.32123  1.0000
  O   O18       1.0  0.72945  0.16572000000000006  0.33926  1.0000
  O   O19       1.0  0.6716399999999999  0.16848  0.4292  1.0000
  O   O20       1.0  0.16060000000000002  0.19859000000000004  0.34992  1.0000
  O   O21       1.0  0.4068800000000001  0.6375400000000002  0.01196  1.0000
  O   O22       1.0  0.47391  0.65205  0.92735  1.0000
  O   O23       1.0  0.22889  0.38856  0.06551  1.0000
  O   O24       1.0  0.17020999999999997  0.2412  0.00379  1.0000
  O   O25       1.0  0.6601300000000001  0.8108400000000002  0.46074999999999994  1.0000
  O   O26       1.0  0.09003000000000004  0.60296  0.73002  1.0000
  O   O27       1.0  0.025279999999999993  0.45223  0.67877  1.0000
  O   O28       1.0  0.27054999999999996  0.8342799999999999  0.66075  1.0000
  O   O29       1.0  0.32836  0.83152  0.5708  1.0000
  O   O30       1.0  0.8394000000000001  0.8014100000000001  0.65009  1.0000
  O   O31       1.0  0.12363999999999997  0.48518  0.89682  1.0000
  O   O32       1.0  0.22401  0.57185  0.047869999999999996  1.0000
  O   O33       1.0  0.82319  0.4343100000000001  0.66326  1.0000
  O   O34       1.0  0.73724  0.49675  0.66471  1.0000
  O   O35       1.0  0.8492999999999999  0.03923999999999997  0.6988099999999999  1.0000
  O   O36       1.0  0.37334999999999996  0.7701000000000001  0.8621199999999999  1.0000
  O   O37       1.0  0.27447000000000005  0.8224000000000002  0.84839  1.0000
  O   O38       1.0  0.67518  0.8387100000000002  0.11037  1.0000
  O   O39       1.0  0.76356  0.9277700000000002  0.25886  1.0000
  O   O40       1.0  0.65056  0.85182  0.68919  1.0000
