data_image0
_chemical_formula_structural       Cd12H96C204S24O48
_chemical_formula_sum              "Cd12 H96 C204 S24 O48"
_cell_length_a       19.8791
_cell_length_b       19.86774
_cell_length_c       19.7435
_cell_angle_alpha    90.10913
_cell_angle_beta     89.98084
_cell_angle_gamma    119.97521

_space_group_name_H-M_alt    "P 1"
_space_group_IT_number       1

loop_
  _space_group_symop_operation_xyz
  'x, y, z'

loop_
  _atom_site_type_symbol
  _atom_site_label
  _atom_site_symmetry_multiplicity
  _atom_site_fract_x
  _atom_site_fract_y
  _atom_site_fract_z
  _atom_site_occupancy
  Cd  Cd1       1.0  0.36591  0.60878  0.09907  1.0000
  Cd  Cd2       1.0  0.4347500000000001  0.69859  0.93419  1.0000
  Cd  Cd3       1.0  0.39149  0.75707  0.76623  1.0000
  Cd  Cd4       1.0  0.26382  0.56522  0.26759  1.0000
  Cd  Cd5       1.0  0.6973600000000001  0.26231  0.09865  1.0000
  Cd  Cd6       1.0  0.56503  0.3026  0.43204  1.0000
  Cd  Cd7       1.0  0.7373000000000001  0.43513  0.7653100000000002  1.0000
  Cd  Cd8       1.0  0.30238  0.73788  0.59991  1.0000
  Cd  Cd9       1.0  0.63398  0.39214  0.59748  1.0000
  Cd  Cd10      1.0  0.2388  0.63374  0.43299000000000004  1.0000
  Cd  Cd11      1.0  0.60703  0.24116999999999997  0.26424000000000003  1.0000
  Cd  Cd12      1.0  0.7583  0.36614  0.9304800000000001  1.0000
  H   H1        1.0  0.86984  0.52744  0.15298  1.0000
  H   H2        1.0  0.32835  0.25981  0.81504  1.0000
  H   H3        1.0  0.6938799999999999  0.81646  0.88673  1.0000
  H   H4        1.0  0.81436  0.55379  0.5324  1.0000
  H   H5        1.0  0.12205000000000002  0.30682  0.21902000000000002  1.0000
  H   H6        1.0  0.74074  0.0694  0.48156  1.0000
  H   H7        1.0  0.28188  0.24801  0.062200000000000005  1.0000
  H   H8        1.0  0.7785300000000002  0.64883  0.98368  1.0000
  H   H9        1.0  0.03512  0.28415  0.89605  1.0000
  H   H10       1.0  0.20492  0.83049  0.66484  1.0000
  H   H11       1.0  0.1045  0.30484  0.028540000000000003  1.0000
  H   H12       1.0  0.08000999999999998  0.22942  0.33109  1.0000
  H   H13       1.0  0.43738000000000005  0.10721  0.04144  1.0000
  H   H14       1.0  0.29376  0.048670000000000005  0.03478  1.0000
  H   H15       1.0  0.89655  0.6973400000000001  0.52949  1.0000
  H   H16       1.0  0.67343  0.74059  0.31526  1.0000
  H   H17       1.0  0.25870000000000004  0.33403000000000005  0.63167  1.0000
  H   H18       1.0  0.89262  0.33006  0.70834  1.0000
  H   H19       1.0  0.2137  0.71902  0.82345  1.0000
  H   H20       1.0  0.22953  0.15054  0.49659000000000003  1.0000
  H   H21       1.0  0.66994  0.56214  0.37484  1.0000
  H   H22       1.0  0.69774  0.80109  0.69627  1.0000
  H   H23       1.0  0.59793  0.61177  0.12884  1.0000
  H   H24       1.0  0.06338  0.67746  0.42581  1.0000
  H   H25       1.0  0.3325  0.43817  0.8755400000000001  1.0000
  H   H26       1.0  0.12779000000000001  0.47226000000000007  0.65401  1.0000
  H   H27       1.0  0.38595  0.06333  0.25701  1.0000
  H   H28       1.0  0.65734  0.13012  0.48627000000000004  1.0000
  H   H29       1.0  0.87831  0.69324  0.7172900000000002  1.0000
  H   H30       1.0  0.56139  0.8915700000000001  0.54242  1.0000
  H   H31       1.0  0.64848  0.8687  0.15098  1.0000
  H   H32       1.0  0.92003  0.77057  0.83026  1.0000
  H   H33       1.0  0.84994  0.07943  0.16326  1.0000
  H   H34       1.0  0.78695  0.28137  0.32201  1.0000
  H   H35       1.0  0.13009000000000007  0.77867  0.8178  1.0000
  H   H36       1.0  0.24630000000000002  0.29478  0.8682100000000001  1.0000
  H   H37       1.0  0.66668  0.92491  0.29772000000000004  1.0000
  H   H38       1.0  0.86955  0.22054  0.31657  1.0000
  H   H39       1.0  0.08430000000000003  0.16913000000000003  0.19444  1.0000
  H   H40       1.0  0.16996000000000003  0.08601  0.35954000000000014  1.0000
  H   H41       1.0  0.75513  0.7058  0.36811  1.0000
  H   H42       1.0  0.27987  0.49475  0.48991  1.0000
  H   H43       1.0  0.33408  0.07565  0.79851  1.0000
  H   H44       1.0  0.9851299999999998  0.59816  0.9621300000000002  1.0000
  H   H45       1.0  0.9249  0.25849  0.46482000000000007  1.0000
  H   H46       1.0  0.22003  0.35142  0.4844300000000001  1.0000
  H   H47       1.0  0.74115  0.66641  0.13143  1.0000
  H   H48       1.0  0.37251  0.20382  0.49649  1.0000
  H   H49       1.0  0.7178500000000001  0.50543  0.98894  1.0000
  H   H50       1.0  0.15057  0.91926  0.6647300000000002  1.0000
  H   H51       1.0  0.08504000000000003  0.91673  0.52657  1.0000
  H   H52       1.0  0.9511  0.2448  0.7017400000000001  1.0000
  H   H53       1.0  0.71663  0.75146  0.56252  1.0000
  H   H54       1.0  0.93616  0.32236  0.923  1.0000
  H   H55       1.0  0.06843  0.32826  0.64959  1.0000
  H   H56       1.0  0.91612  0.83091  0.69271  1.0000
  H   H57       1.0  0.8152700000000002  0.12249999999999998  0.050690000000000006  1.0000
  H   H58       1.0  0.7392  0.18562  0.8654100000000001  1.0000
  H   H59       1.0  0.10757  0.66917  0.20930000000000004  1.0000
  H   H60       1.0  0.24872000000000002  0.9648600000000002  0.22966  1.0000
  H   H61       1.0  0.07372999999999999  0.7414  0.9656  1.0000
  H   H62       1.0  0.18763  0.44825  0.03191  1.0000
  H   H63       1.0  0.49448000000000003  0.21358  0.65548  1.0000
  H   H64       1.0  0.52954  0.65569  0.31998  1.0000
  H   H65       1.0  0.9304800000000001  0.67158  0.14835  1.0000
  H   H66       1.0  0.19901  0.89614  0.36401  1.0000
  H   H67       1.0  0.04969000000000001  0.75489  0.20198  1.0000
  H   H68       1.0  0.3026  0.19922  0.19611  1.0000
  H   H69       1.0  0.4723  0.344  0.8194100000000001  1.0000
  H   H70       1.0  0.40176999999999996  0.38799  0.6291500000000001  1.0000
  H   H71       1.0  0.79621  0.16883  0.16315  1.0000
  H   H72       1.0  0.70503  0.95061  0.53519  1.0000
  H   H73       1.0  0.013349999999999999  0.4018  0.46188  1.0000
  H   H74       1.0  0.34394  0.87323  0.9863600000000002  1.0000
  H   H75       1.0  0.32005  0.38519  0.08883  1.0000
  H   H76       1.0  0.76961  0.85051  0.99831  1.0000
  H   H77       1.0  0.55422  0.73942  0.69984  1.0000
  H   H78       1.0  0.61227  0.0137  0.29521000000000003  1.0000
  H   H79       1.0  0.83075  0.6274  0.8292700000000001  1.0000
  H   H80       1.0  0.96585  0.71674  0.39648000000000005  1.0000
  H   H81       1.0  0.38881999999999994  0.9871599999999999  0.7966200000000001  1.0000
  H   H82       1.0  0.80045  0.10337  0.86257  1.0000
  H   H83       1.0  0.44605  0.26054  0.1991  1.0000
  H   H84       1.0  0.91534  0.08488  0.02617  1.0000
  H   H85       1.0  0.30766  0.18561  0.38424  1.0000
  H   H86       1.0  0.25968  0.81321  0.36766000000000004  1.0000
  H   H87       1.0  0.18429000000000012  0.87855  0.55279  1.0000
  H   H88       1.0  0.16933  0.37262  0.3308  1.0000
  H   H89       1.0  0.83141  0.91554  0.8612000000000001  1.0000
  H   H90       1.0  0.35116  0.13037  0.65038  1.0000
  H   H91       1.0  0.75195  0.03379  0.7291200000000002  1.0000
  H   H92       1.0  0.6149399999999999  0.9354700000000001  0.75646  1.0000
  H   H93       1.0  0.6783  0.6144  0.58949  1.0000
  H   H94       1.0  0.259  0.93227  0.98195  1.0000
  H   H95       1.0  0.62651  0.79662  0.99802  1.0000
  H   H96       1.0  0.50541  0.78546  0.15714  1.0000
  C   C1        1.0  0.14096  0.3297  0.56742  1.0000
  C   C2        1.0  0.09480000000000001  0.76685  0.23911000000000002  1.0000
  C   C3        1.0  0.70725  0.8648  0.8530700000000001  1.0000
  C   C4        1.0  0.7202100000000001  0.59232  0.40782  1.0000
  C   C5        1.0  0.24793000000000004  0.26081  0.09765  1.0000
  C   C6        1.0  0.49286  0.28379  0.73839  1.0000
  C   C7        1.0  0.87981  0.1676  0.7813700000000001  1.0000
  C   C8        1.0  0.12011  0.20427  0.94218  1.0000
  C   C9        1.0  0.26923  0.33731  0.11232  1.0000
  C   C10       1.0  0.9724600000000001  0.63679  0.9328600000000001  1.0000
  C   C11       1.0  0.09759  0.09248  0.74102  1.0000
  C   C12       1.0  0.7943100000000001  0.9435000000000001  0.23011  1.0000
  C   C13       1.0  0.23421  0.32828  0.9049600000000001  1.0000
  C   C14       1.0  0.67112  0.81153  0.23346  1.0000
  C   C15       1.0  0.10847999999999997  0.24487999999999996  0.56698  1.0000
  C   C16       1.0  0.9949  0.90237  0.0747  1.0000
  C   C17       1.0  0.7510500000000001  0.7388700000000001  0.5975300000000001  1.0000
  C   C18       1.0  0.58768  0.78555  0.6638  1.0000
  C   C19       1.0  0.87241  0.27984  0.7413  1.0000
  C   C20       1.0  0.66811  0.81973  0.6613  1.0000
  C   C21       1.0  0.30109  0.90433  0.72973  1.0000
  C   C22       1.0  0.50803  0.7155  0.23951  1.0000
  C   C23       1.0  0.76738  0.6725700000000001  0.40487  1.0000
  C   C24       1.0  0.21727  0.08104  0.33699  1.0000
  C   C25       1.0  0.72965  0.66245  0.6123300000000002  1.0000
  C   C26       1.0  0.84178  0.88222  0.61312  1.0000
  C   C27       1.0  0.77732  0.23533999999999997  0.35716000000000003  1.0000
  C   C28       1.0  0.7980700000000002  0.62237  0.02116  1.0000
  C   C29       1.0  0.41225  0.21415  0.16319  1.0000
  C   C30       1.0  0.66687  0.24591  0.40841000000000005  1.0000
  C   C31       1.0  0.02175000000000001  0.71655  0.9344700000000002  1.0000
  C   C32       1.0  0.59183  0.87175  0.5753  1.0000
  C   C33       1.0  0.78394  0.9199  0.83828  1.0000
  C   C34       1.0  0.90722  0.00461  0.40767  1.0000
  C   C35       1.0  0.8179  0.80065  0.6271500000000001  1.0000
  C   C36       1.0  0.8906099999999999  0.75518  0.06642000000000002  1.0000
  C   C37       1.0  0.2331700000000001  0.88459  0.69336  1.0000
  C   C38       1.0  0.13564  0.843  0.51951  1.0000
  C   C39       1.0  0.19988  0.01738  0.29425  1.0000
  C   C40       1.0  0.90355  0.60426  0.8946300000000001  1.0000
  C   C41       1.0  0.30684  0.02312  0.76802  1.0000
  C   C42       1.0  0.5422300000000001  0.7759700000000002  0.19193000000000002  1.0000
  C   C43       1.0  0.09558  0.39574  0.39499  1.0000
  C   C44       1.0  0.19998999999999997  0.4142  0.9961  1.0000
  C   C45       1.0  0.77499  0.6456  0.65613  1.0000
  C   C46       1.0  0.24416  0.57887  0.57658  1.0000
  C   C47       1.0  0.8502300000000002  0.55451  0.11611000000000002  1.0000
  C   C48       1.0  0.7371199999999999  0.54876  0.45359  1.0000
  C   C49       1.0  0.75048  0.56277  0.67092  1.0000
  C   C50       1.0  0.18633  0.74971  0.50848  1.0000
  C   C51       1.0  0.77808  0.31502  0.79104  1.0000
  C   C52       1.0  0.20835000000000004  0.49294  0.57285  1.0000
  C   C53       1.0  0.76103  0.99482  0.22925000000000004  1.0000
  C   C54       1.0  0.28348  0.3065  0.6009  1.0000
  C   C55       1.0  0.20299000000000003  0.9345100000000001  0.69355  1.0000
  C   C56       1.0  0.93921  0.02817  0.58634  1.0000
  C   C57       1.0  0.70022  0.09581  0.2283  1.0000
  C   C58       1.0  0.39571  0.29994  0.5619  1.0000
  C   C59       1.0  0.28196  0.40849  0.9082200000000001  1.0000
  C   C60       1.0  0.8196  0.15165  0.82758  1.0000
  C   C61       1.0  0.26711  0.20263  0.52573  1.0000
  C   C62       1.0  0.16867  0.28925  0.94745  1.0000
  C   C63       1.0  0.004380000000000062  0.7659900000000001  0.89653  1.0000
  C   C64       1.0  0.21366999999999997  0.80095  0.3315  1.0000
  C   C65       1.0  0.8640300000000001  0.78342  0.6700300000000001  1.0000
  C   C66       1.0  0.7537700000000002  0.42097  0.07501  1.0000
  C   C67       1.0  0.54856  0.8114  0.6212200000000001  1.0000
  C   C68       1.0  0.15777  0.11756  0.11357  1.0000
  C   C69       1.0  0.12873  0.77467  0.49212  1.0000
  C   C70       1.0  0.43759000000000003  0.18733  0.33866000000000007  1.0000
  C   C71       1.0  0.8577800000000001  0.67031  0.06652  1.0000
  C   C72       1.0  0.65213  0.76817  0.02645  1.0000
  C   C73       1.0  0.95987  0.84202  0.44645000000000007  1.0000
  C   C74       1.0  0.87086  0.2257  0.9896600000000001  1.0000
  C   C75       1.0  0.05585999999999998  0.85052  0.89737  1.0000
  C   C76       1.0  0.76791  0.11498  0.19186  1.0000
  C   C77       1.0  0.08047999999999991  0.86442  0.5043100000000001  1.0000
  C   C78       1.0  0.24489  0.13579  0.7330800000000001  1.0000
  C   C79       1.0  0.8508900000000001  0.51927  0.8974500000000001  1.0000
  C   C80       1.0  0.13599000000000003  0.21652000000000002  0.17131000000000002  1.0000
  C   C81       1.0  0.6461199999999999  0.87106  0.82439  1.0000
  C   C82       1.0  0.66369  0.02659  0.26599  1.0000
  C   C83       1.0  0.23403999999999994  0.23954999999999999  0.56293  1.0000
  C   C84       1.0  0.22314000000000003  0.76528  0.8584400000000001  1.0000
  C   C85       1.0  0.02834  0.08862  0.75292  1.0000
  C   C86       1.0  0.84842  0.66801  0.49429000000000006  1.0000
  C   C87       1.0  0.36318  0.33665  0.5997700000000001  1.0000
  C   C88       1.0  0.70394  0.14952  0.4493400000000001  1.0000
  C   C89       1.0  0.33739  0.97386  0.76726  1.0000
  C   C90       1.0  0.14794000000000007  0.48081000000000007  0.39738  1.0000
  C   C91       1.0  0.1495  0.20633  0.56388  1.0000
  C   C92       1.0  0.55622  0.70263  0.28335000000000005  1.0000
  C   C93       1.0  0.3648  0.25009  0.77984  1.0000
  C   C94       1.0  0.23971999999999996  0.00494  0.73015  1.0000
  C   C95       1.0  0.9056200000000001  0.23273  0.7385000000000002  1.0000
  C   C96       1.0  0.86428  0.15799  0.01783  1.0000
  C   C97       1.0  0.81199  0.14163  0.3995  1.0000
  C   C98       1.0  0.18772000000000005  0.73612  0.28855  1.0000
  C   C99       1.0  0.4629499999999999  0.77801  0.62597  1.0000
  C   C100      1.0  0.83257  0.71201  0.44776  1.0000
  C   C101      1.0  0.32705  0.09424000000000002  0.0716  1.0000
  C   C102      1.0  0.66837  0.1489  0.23191000000000003  1.0000
  C   C103      1.0  0.24957  0.886  0.94691  1.0000
  C   C104      1.0  0.7393100000000002  0.9872700000000001  0.76465  1.0000
  C   C105      1.0  0.6850100000000002  0.46315  0.45783  1.0000
  C   C106      1.0  0.78941  0.50693  0.07168000000000001  1.0000
  C   C107      1.0  0.8236699999999999  0.20121  0.3541500000000001  1.0000
  C   C108      1.0  0.56337  0.81258  0.8394  1.0000
  C   C109      1.0  0.91658  0.11937  0.77619  1.0000
  C   C110      1.0  0.24847000000000002  0.43723000000000006  0.17125  1.0000
  C   C111      1.0  0.62256  0.82273  0.1885  1.0000
  C   C112      1.0  0.26534  0.45259  0.9538400000000001  1.0000
  C   C113      1.0  0.29677  0.85283  0.94989  1.0000
  C   C114      1.0  0.12054000000000008  0.8321  0.28207  1.0000
  C   C115      1.0  0.012459999999999978  0.75106  0.43193  1.0000
  C   C116      1.0  0.8498300000000001  0.79399  0.06397  1.0000
  C   C117      1.0  0.23394  0.45816  0.52505  1.0000
  C   C118      1.0  0.9330100000000001  0.27113  0.94591  1.0000
  C   C119      1.0  0.33795  0.06684  0.27968  1.0000
  C   C120      1.0  0.37769  0.17651  0.68785  1.0000
  C   C121      1.0  0.18011  0.84781  0.32893000000000006  1.0000
  C   C122      1.0  0.5366  0.22158  0.12449000000000003  1.0000
  C   C123      1.0  0.2877  0.12009  0.11456  1.0000
  C   C124      1.0  0.22147000000000006  0.68422  0.29281  1.0000
  C   C125      1.0  0.12758999999999998  0.71941  0.24238  1.0000
  C   C126      1.0  0.81175  0.26298  0.78689  1.0000
  C   C127      1.0  0.9435199999999999  0.14955  0.39696  1.0000
  C   C128      1.0  0.4223  0.66501  0.24402000000000001  1.0000
  C   C129      1.0  0.71184  0.87966  0.6147800000000001  1.0000
  C   C130      1.0  0.88424  0.63503  0.11320000000000002  1.0000
  C   C131      1.0  0.99497  0.23404999999999998  0.3964500000000001  1.0000
  C   C132      1.0  0.63656  0.74976  0.28015  1.0000
  C   C133      1.0  0.33462  0.75681  0.91053  1.0000
  C   C134      1.0  0.57872  0.33417  0.7420700000000001  1.0000
  C   C135      1.0  0.7978  0.06481  0.19226  1.0000
  C   C136      1.0  0.76534  0.76095  0.06341  1.0000
  C   C137      1.0  0.08899  0.06141  0.91931  1.0000
  C   C138      1.0  0.35488  0.1292  0.32345  1.0000
  C   C139      1.0  0.44522000000000006  0.297  0.7827000000000001  1.0000
  C   C140      1.0  0.08405999999999998  0.88053  0.27648000000000006  1.0000
  C   C141      1.0  0.86398  0.10872  0.3993400000000001  1.0000
  C   C142      1.0  0.17619  0.79874  0.85529  1.0000
  C   C143      1.0  0.06039000000000003  0.97161  0.08636000000000003  1.0000
  C   C144      1.0  0.93456  0.73294  0.8591700000000001  1.0000
  C   C145      1.0  0.06692000000000001  0.72927  0.44794000000000006  1.0000
  C   C146      1.0  0.71609  0.69378  0.10097000000000003  1.0000
  C   C147      1.0  0.18755999999999995  0.85862  0.90037  1.0000
  C   C148      1.0  0.22439000000000003  0.35434  0.15666  1.0000
  C   C149      1.0  0.32967  0.18807  0.73327  1.0000
  C   C150      1.0  0.15296000000000004  0.33379000000000003  0.9936800000000002  1.0000
  C   C151      1.0  0.67211  0.90516  0.57207  1.0000
  C   C152      1.0  0.81223  0.24978000000000003  0.00454  1.0000
  C   C153      1.0  0.88073  0.79694  0.44245  1.0000
  C   C154      1.0  0.34709  0.23229  0.52528  1.0000
  C   C155      1.0  0.7855900000000001  0.19813  0.8296400000000002  1.0000
  C   C156      1.0  0.06519  0.26706  0.3598  1.0000
  C   C157      1.0  0.29398  0.13642  0.35138  1.0000
  C   C158      1.0  0.1183099999999999  0.95976  0.28017000000000003  1.0000
  C   C159      1.0  0.1572  0.29332  0.18558  1.0000
  C   C160      1.0  0.02641999999999999  0.36322  0.43281  1.0000
  C   C161      1.0  0.28378000000000003  0.79169  0.90596  1.0000
  C   C162      1.0  0.4580699999999999  0.22323  0.69071  1.0000
  C   C163      1.0  0.1353900000000001  0.89127  0.90003  1.0000
  C   C164      1.0  0.9724799999999999  0.9114000000000001  0.25293  1.0000
  C   C165      1.0  0.73212  0.79807  0.02689  1.0000
  C   C166      1.0  0.9772100000000002  0.28346  0.4341900000000001  1.0000
  C   C167      1.0  0.79676  0.91641  0.60932  1.0000
  C   C168      1.0  0.9111700000000001  0.93925  0.41938  1.0000
  C   C169      1.0  0.63636  0.66333  0.09982000000000002  1.0000
  C   C170      1.0  0.33325000000000005  0.85154  0.73386  1.0000
  C   C171      1.0  0.75584  0.86394  0.233  1.0000
  C   C172      1.0  0.51882  0.66821  0.06583000000000001  1.0000
  C   C173      1.0  0.040950000000000014  0.15928  0.94645  1.0000
  C   C174      1.0  0.98325  0.18312  0.96069  1.0000
  C   C175      1.0  0.60367  0.70007  0.06235000000000001  1.0000
  C   C176      1.0  0.9881500000000001  0.24985  0.93108  1.0000
  C   C177      1.0  0.66292  0.93248  0.77975  1.0000
  C   C178      1.0  0.26151  0.01199  0.26471000000000006  1.0000
  C   C179      1.0  0.09261000000000003  0.9957600000000001  0.9078400000000002  1.0000
  C   C180      1.0  0.80192  0.58757  0.49647  1.0000
  C   C181      1.0  0.18162  0.19916  0.12782  1.0000
  C   C182      1.0  0.4509699999999999  0.18798  0.12031  1.0000
  C   C183      1.0  0.7640300000000001  0.54191  0.02404  1.0000
  C   C184      1.0  0.33184  0.1802  0.16099  1.0000
  C   C185      1.0  0.84281  0.70669  0.68431  1.0000
  C   C186      1.0  0.91992  0.13693  0.003540000000000001  1.0000
  C   C187      1.0  0.20636999999999997  0.05619  0.73053  1.0000
  C   C188      1.0  0.017449999999999938  0.81816  0.46107000000000004  1.0000
  C   C189      1.0  0.8844300000000002  0.6529  0.85831  1.0000
  C   C190      1.0  0.48057999999999995  0.33168  0.56548  1.0000
  C   C191      1.0  0.80108  0.98259  0.79463  1.0000
  C   C192      1.0  0.69406  0.97719  0.26709  1.0000
  C   C193      1.0  0.11529  0.34707  0.35925000000000007  1.0000
  C   C194      1.0  0.20036  0.37777  0.52202  1.0000
  C   C195      1.0  0.20279  0.08338  0.10941  1.0000
  C   C196      1.0  0.71709  0.21018  0.40492000000000006  1.0000
  C   C197      1.0  0.00457  0.09747  0.5746900000000001  1.0000
  C   C198      1.0  0.90318  0.90747  0.24118  1.0000
  C   C199      1.0  0.7504  0.11545  0.44632000000000005  1.0000
  C   C200      1.0  0.11430999999999998  0.36481  0.61427  1.0000
  C   C201      1.0  0.88255  0.0402  0.78024  1.0000
  C   C202      1.0  0.31801  0.53819  0.9581400000000001  1.0000
  C   C203      1.0  0.14771000000000006  0.44527  0.61722  1.0000
  C   C204      1.0  0.4073  0.12739  0.07449  1.0000
  S   S1        1.0  0.84602  0.01696  0.5919300000000001  1.0000
  S   S2        1.0  0.05965000000000001  0.00019999999999999993  0.26175  1.0000
  S   S3        1.0  0.94132  0.9997900000000001  0.76214  1.0000
  S   S4        1.0  0.8140500000000002  0.82009  0.23483  1.0000
  S   S5        1.0  0.18675  0.17974  0.7343  1.0000
  S   S6        1.0  0.017040000000000017  0.17059  0.75848  1.0000
  S   S7        1.0  0.8293399999999999  0.8460600000000001  0.42490000000000006  1.0000
  S   S8        1.0  0.82  0.00663  0.40096  1.0000
  S   S9        1.0  9.000000000007289e-05  0.9411300000000001  0.42833000000000004  1.0000
  S   S10       1.0  0.17963000000000007  0.9933800000000002  0.9012800000000001  1.0000
  S   S11       1.0  0.99106  0.09509  0.39481  1.0000
  S   S12       1.0  0.94091  0.94099  0.59507  1.0000
  S   S13       1.0  0.15357000000000012  0.98284  0.09163  1.0000
  S   S14       1.0  0.99262  0.81296  0.06804  1.0000
  S   S15       1.0  0.10439  0.0086  0.72793  1.0000
  S   S16       1.0  0.05866  0.05877  0.0955  1.0000
  S   S17       1.0  0.89626  0.9911599999999999  0.22779  1.0000
  S   S18       1.0  0.17101  0.15462  0.9242100000000002  1.0000
  S   S19       1.0  0.006490000000000003  0.18675  0.5685  1.0000
  S   S20       1.0  0.0003600000000000011  0.06001  0.9284500000000001  1.0000
  S   S21       1.0  0.9044800000000001  0.89598  0.06176  1.0000
  S   S22       1.0  0.008579999999999978  0.90524  0.89503  1.0000
  S   S23       1.0  0.09513000000000002  0.10429  0.5613  1.0000
  S   S24       1.0  0.9836400000000001  0.82937  0.25860000000000005  1.0000
  O   O1        1.0  0.22906  0.60939  0.62662  1.0000
  O   O2        1.0  0.7058400000000002  0.21784  0.20523000000000002  1.0000
  O   O3        1.0  0.47793  0.60498  0.09758  1.0000
  O   O4        1.0  0.62239  0.33014  0.6947  1.0000
  O   O5        1.0  0.76877  0.3907  0.12521  1.0000
  O   O6        1.0  0.62688  0.4313  0.41762000000000005  1.0000
  O   O7        1.0  0.2754  0.69942  0.33698000000000006  1.0000
  O   O8        1.0  0.70017  0.42425  0.50167  1.0000
  O   O9        1.0  0.17512000000000005  0.6867  0.48161000000000004  1.0000
  O   O10       1.0  0.62164  0.23099  0.45866000000000007  1.0000
  O   O11       1.0  0.57555  0.27567  0.16849000000000003  1.0000
  O   O12       1.0  0.43112  0.80443  0.5859  1.0000
  O   O13       1.0  0.51227  0.81834  0.80539  1.0000
  O   O14       1.0  0.4242  0.72405  0.66983  1.0000
  O   O15       1.0  0.4877500000000001  0.70678  0.04050000000000001  1.0000
  O   O16       1.0  0.33056  0.70765  0.86442  1.0000
  O   O17       1.0  0.67007  0.29271  0.36067000000000005  1.0000
  O   O18       1.0  0.70711  0.37728  0.027120000000000005  1.0000
  O   O19       1.0  0.24203000000000002  0.79231  0.54913  1.0000
  O   O20       1.0  0.75828  0.20912  0.04725  1.0000
  O   O21       1.0  0.20964  0.45087  0.21573000000000003  1.0000
  O   O22       1.0  0.80426  0.3731  0.7509000000000001  1.0000
  O   O23       1.0  0.8211200000000001  0.30991  0.97406  1.0000
  O   O24       1.0  0.38119  0.77439  0.96004  1.0000
  O   O25       1.0  0.39525  0.87338  0.7674500000000001  1.0000
  O   O26       1.0  0.87359  0.47836  0.92878  1.0000
  O   O27       1.0  0.609  0.38025  0.79189  1.0000
  O   O28       1.0  0.29617  0.7823  0.70716  1.0000
  O   O29       1.0  0.12415999999999996  0.52189  0.42712  1.0000
  O   O30       1.0  0.29139  0.62223  0.5289  1.0000
  O   O31       1.0  0.30283  0.57836  0.0008600000000000002  1.0000
  O   O32       1.0  0.48882999999999993  0.17712  0.30966  1.0000
  O   O33       1.0  0.39294  0.61866  0.29357  1.0000
  O   O34       1.0  0.37749  0.66916  0.19781000000000004  1.0000
  O   O35       1.0  0.21813  0.51178  0.37349  1.0000
  O   O36       1.0  0.19583  0.62635  0.2524  1.0000
  O   O37       1.0  0.37682  0.56942  0.9188300000000001  1.0000
  O   O38       1.0  0.51195  0.29404  0.5386200000000001  1.0000
  O   O39       1.0  0.4510700000000001  0.24224000000000004  0.3805200000000001  1.0000
  O   O40       1.0  0.7908  0.54918  0.7138400000000001  1.0000
  O   O41       1.0  0.69044  0.51176  0.64008  1.0000
  O   O42       1.0  0.55017  0.76193  0.8854000000000001  1.0000
  O   O43       1.0  0.52121  0.39402  0.59873  1.0000
  O   O44       1.0  0.72394  0.29982  0.83485  1.0000
  O   O45       1.0  0.78133  0.48815  0.87196  1.0000
  O   O46       1.0  0.60599  0.12705  0.26503  1.0000
  O   O47       1.0  0.56855  0.19551  0.08414  1.0000
  O   O48       1.0  0.3066  0.48813000000000006  0.13844  1.0000
