data_image0
_chemical_formula_structural       Zn12H56C128O64
_chemical_formula_sum              "Zn12 H56 C128 O64"
_cell_length_a       16.55067
_cell_length_b       16.85693
_cell_length_c       18.324800000000003
_cell_angle_alpha    89.99534
_cell_angle_beta     89.9454
_cell_angle_gamma    110.57684000000002

_symmetry_space_group_name_H-M    'P 1'
_symmetry_Int_Tables_number       1

loop_
  _symmetry_equiv_pos_as_xyz
  'x,y,z'

loop_
  _atom_site_type_symbol
  _atom_site_label
  _atom_site_symmetry_multiplicity
  _atom_site_fract_x
  _atom_site_fract_y
  _atom_site_fract_z
  _atom_site_occupancy
  Zn  Zn1       1.0  0.13381  0.18987  0.61272  1.0000
  Zn  Zn2       1.0  0.35676  0.3066500000000001  0.61687  1.0000
  Zn  Zn3       1.0  0.3676  0.81075  0.11362  1.0000
  Zn  Zn4       1.0  0.14322  0.6934  0.11837  1.0000
  Zn  Zn5       1.0  0.86618  0.81013  0.38728  1.0000
  Zn  Zn6       1.0  0.64323  0.69334  0.38313  1.0000
  Zn  Zn7       1.0  0.6323900000000002  0.18924  0.8863800000000001  1.0000
  Zn  Zn8       1.0  0.85677  0.3066  0.88163  1.0000
  Zn  Zn9       1.0  0.0  0.0  0.5  1.0000
  Zn  Zn10      1.0  0.5  0.0  0.0  1.0000
  Zn  Zn11      1.0  0.5  0.5  0.5  1.0000
  Zn  Zn12      1.0  0.0  0.5  0.0  1.0000
  H   H1        1.0  0.39799  0.16555  0.76577  1.0000
  H   H2        1.0  0.33805000000000013  0.92284  0.86794  1.0000
  H   H3        1.0  0.15219  0.96953  0.7246900000000002  1.0000
  H   H4        1.0  0.2075000000000001  0.8507200000000003  0.92766  1.0000
  H   H5        1.0  0.042640000000000074  0.6093200000000002  0.8461200000000001  1.0000
  H   H6        1.0  0.14191000000000006  0.82048  0.69861  1.0000
  H   H7        1.0  0.02614  0.12039  0.3331  1.0000
  H   H8        1.0  0.1599  0.33217  0.19431  1.0000
  H   H9        1.0  0.19952  0.34981  0.42793  1.0000
  H   H10       1.0  0.16418000000000005  0.47491  0.22111000000000003  1.0000
  H   H11       1.0  0.4162  0.66349  0.25398  1.0000
  H   H12       1.0  0.34088  0.43168  0.37665  1.0000
  H   H13       1.0  0.020710000000000017  0.64521  0.6055500000000001  1.0000
  H   H14       1.0  0.9790300000000001  0.06749  0.15486  1.0000
  H   H15       1.0  0.10146000000000009  0.8348300000000002  0.26618  1.0000
  H   H16       1.0  0.16186  0.07769000000000002  0.3682200000000001  1.0000
  H   H17       1.0  0.34758  0.0303  0.22501  1.0000
  H   H18       1.0  0.29267  0.15005  0.42742000000000013  1.0000
  H   H19       1.0  0.45797  0.3914600000000001  0.34563  1.0000
  H   H20       1.0  0.35866  0.18034  0.19847000000000004  1.0000
  H   H21       1.0  0.47352  0.87966  0.8321800000000001  1.0000
  H   H22       1.0  0.3399100000000001  0.6673800000000002  0.69412  1.0000
  H   H23       1.0  0.30065  0.65021  0.92791  1.0000
  H   H24       1.0  0.33641  0.5252  0.72076  1.0000
  H   H25       1.0  0.08428000000000002  0.33648  0.75369  1.0000
  H   H26       1.0  0.15903  0.56791  0.8763500000000001  1.0000
  H   H27       1.0  0.47810000000000025  0.35318  0.10406  1.0000
  H   H28       1.0  0.5205400000000002  0.93216  0.6534500000000001  1.0000
  H   H29       1.0  0.60201  0.83445  0.23423  1.0000
  H   H30       1.0  0.66195  0.07716000000000003  0.13206  1.0000
  H   H31       1.0  0.84781  0.030470000000000007  0.27531  1.0000
  H   H32       1.0  0.79249  0.14927  0.07234  1.0000
  H   H33       1.0  0.9573500000000003  0.39067  0.15388  1.0000
  H   H34       1.0  0.85808  0.17952  0.30139  1.0000
  H   H35       1.0  0.97385  0.87961  0.6669  1.0000
  H   H36       1.0  0.84009  0.66783  0.8056900000000001  1.0000
  H   H37       1.0  0.8004800000000001  0.6501900000000003  0.57207  1.0000
  H   H38       1.0  0.8358200000000002  0.52508  0.77889  1.0000
  H   H39       1.0  0.5837900000000003  0.33651000000000003  0.7460200000000002  1.0000
  H   H40       1.0  0.65911  0.56832  0.6233500000000001  1.0000
  H   H41       1.0  0.97929  0.35479  0.39445  1.0000
  H   H42       1.0  0.020960000000000003  0.9325  0.84514  1.0000
  H   H43       1.0  0.89853  0.16517  0.73382  1.0000
  H   H44       1.0  0.83814  0.9223  0.63178  1.0000
  H   H45       1.0  0.65241  0.9697  0.77499  1.0000
  H   H46       1.0  0.7073200000000002  0.84994  0.5725800000000001  1.0000
  H   H47       1.0  0.5420200000000002  0.60853  0.65437  1.0000
  H   H48       1.0  0.6413400000000001  0.81965  0.80153  1.0000
  H   H49       1.0  0.5264800000000002  0.12034  0.16782  1.0000
  H   H50       1.0  0.6600799999999999  0.33261  0.30588  1.0000
  H   H51       1.0  0.69934  0.34978  0.07209  1.0000
  H   H52       1.0  0.6635800000000001  0.4748000000000001  0.2792400000000001  1.0000
  H   H53       1.0  0.91571  0.66352  0.24631  1.0000
  H   H54       1.0  0.8409700000000001  0.43208  0.12365  1.0000
  H   H55       1.0  0.52189  0.64681  0.89594  1.0000
  H   H56       1.0  0.47945  0.06784  0.3465500000000001  1.0000
  C   C1        1.0  0.27359  0.07257  0.73921  1.0000
  C   C2        1.0  0.35341  0.10148  0.77514  1.0000
  C   C3        1.0  0.37537  0.04758  0.82278  1.0000
  C   C4        1.0  0.31801  0.9649  0.83334  1.0000
  C   C5        1.0  0.2378  0.93536  0.7981700000000003  1.0000
  C   C6        1.0  0.21519999999999995  0.99005  0.7510900000000003  1.0000
  C   C7        1.0  0.18097999999999995  0.8468  0.8112  1.0000
  C   C8        1.0  0.17436  0.81237  0.88156  1.0000
  C   C9        1.0  0.12455999999999995  0.72733  0.8944800000000002  1.0000
  C   C10       1.0  0.08055  0.67579  0.83692  1.0000
  C   C11       1.0  0.08647000000000005  0.70968  0.76644  1.0000
  C   C12       1.0  0.13636  0.79491  0.75367  1.0000
  C   C13       1.0  0.25350000000000006  0.13246  0.68813  1.0000
  C   C14       1.0  0.4602  0.07589  0.86094  1.0000
  C   C15       1.0  0.12156000000000006  0.69251  0.9696400000000001  1.0000
  C   C16       1.0  0.03912  0.65186  0.7071400000000001  1.0000
  C   C17       1.0  0.11127  0.23155  0.38688  1.0000
  C   C18       1.0  0.0704  0.18502  0.32564000000000004  1.0000
  C   C19       1.0  0.08927000000000002  0.22162000000000007  0.25627  1.0000
  C   C20       1.0  0.14579  0.30547  0.24893000000000004  1.0000
  C   C21       1.0  0.18535  0.35355  0.31008  1.0000
  C   C22       1.0  0.16887  0.31519  0.37924000000000013  1.0000
  C   C23       1.0  0.24602999999999997  0.4412600000000001  0.29888  1.0000
  C   C24       1.0  0.22702  0.4944  0.24773000000000003  1.0000
  C   C25       1.0  0.28822  0.57434  0.23203000000000001  1.0000
  C   C26       1.0  0.36842  0.60207  0.26721  1.0000
  C   C27       1.0  0.3865  0.55067  0.31993  1.0000
  C   C28       1.0  0.3251  0.47096  0.33602  1.0000
  C   C29       1.0  0.09502999999999999  0.18890000000000004  0.45981000000000005  1.0000
  C   C30       1.0  0.05281  0.17395  0.18876  1.0000
  C   C31       1.0  0.2685  0.63272  0.17923  1.0000
  C   C32       1.0  0.4721  0.58009  0.35695  1.0000
  C   C33       1.0  0.22639  0.92746  0.23991000000000004  1.0000
  C   C34       1.0  0.14628  0.89881  0.27545  1.0000
  C   C35       1.0  0.12426000000000005  0.95298  0.32274  1.0000
  C   C36       1.0  0.18170000000000006  0.03564  0.3334  1.0000
  C   C37       1.0  0.26198  0.06514  0.29821  1.0000
  C   C38       1.0  0.28460000000000013  0.01011  0.25148  1.0000
  C   C39       1.0  0.31901000000000007  0.15371  0.31106  1.0000
  C   C40       1.0  0.32581000000000004  0.18832  0.38125  1.0000
  C   C41       1.0  0.37577  0.27333  0.39413  1.0000
  C   C42       1.0  0.41989  0.325  0.33656000000000014  1.0000
  C   C43       1.0  0.4137  0.2908  0.26613  1.0000
  C   C44       1.0  0.36382  0.20559  0.25357  1.0000
  C   C45       1.0  0.24707000000000007  0.8673300000000002  0.18948  1.0000
  C   C46       1.0  0.03923000000000002  0.9247  0.36068  1.0000
  C   C47       1.0  0.37809000000000004  0.30686  0.46957  1.0000
  C   C48       1.0  0.46039  0.34797  0.20614  1.0000
  C   C49       1.0  0.3887000000000002  0.7687200000000002  0.88654  1.0000
  C   C50       1.0  0.42932  0.815  0.82492  1.0000
  C   C51       1.0  0.4104499999999999  0.7783  0.75552  1.0000
  C   C52       1.0  0.35415  0.69435  0.74862  1.0000
  C   C53       1.0  0.31489  0.64637  0.8100100000000002  1.0000
  C   C54       1.0  0.3312700000000001  0.6849  0.87915  1.0000
  C   C55       1.0  0.25441000000000014  0.55854  0.79878  1.0000
  C   C56       1.0  0.27352  0.50554  0.7474300000000003  1.0000
  C   C57       1.0  0.2123700000000001  0.42559000000000013  0.73166  1.0000
  C   C58       1.0  0.13209000000000007  0.3978500000000001  0.76692  1.0000
  C   C59       1.0  0.11374  0.44922  0.8194900000000003  1.0000
  C   C60       1.0  0.17514  0.52883  0.8357400000000003  1.0000
  C   C61       1.0  0.40551000000000004  0.8117100000000003  0.9596000000000001  1.0000
  C   C62       1.0  0.44673  0.82576  0.68757  1.0000
  C   C63       1.0  0.23169  0.3669400000000001  0.67874  1.0000
  C   C64       1.0  0.027840000000000024  0.42005  0.85621  1.0000
  C   C65       1.0  0.7264  0.9274200000000002  0.26079  1.0000
  C   C66       1.0  0.64659  0.8985100000000003  0.22486000000000003  1.0000
  C   C67       1.0  0.62462  0.9524200000000003  0.17722  1.0000
  C   C68       1.0  0.68199  0.03509  0.16666000000000003  1.0000
  C   C69       1.0  0.76219  0.06464000000000003  0.20183  1.0000
  C   C70       1.0  0.7848  0.00994  0.24891000000000002  1.0000
  C   C71       1.0  0.81902  0.1532  0.1888  1.0000
  C   C72       1.0  0.8256399999999999  0.18762  0.11844000000000002  1.0000
  C   C73       1.0  0.87544  0.27267  0.10552  1.0000
  C   C74       1.0  0.91945  0.32421  0.16308  1.0000
  C   C75       1.0  0.91353  0.29032  0.23356  1.0000
  C   C76       1.0  0.86363  0.20509  0.24633  1.0000
  C   C77       1.0  0.7465  0.86754  0.31187  1.0000
  C   C78       1.0  0.53979  0.92411  0.13906  1.0000
  C   C79       1.0  0.8784400000000002  0.30749  0.03036  1.0000
  C   C80       1.0  0.96088  0.34814  0.29286000000000006  1.0000
  C   C81       1.0  0.8887199999999998  0.76845  0.61312  1.0000
  C   C82       1.0  0.92959  0.81498  0.67436  1.0000
  C   C83       1.0  0.9107300000000005  0.77838  0.74373  1.0000
  C   C84       1.0  0.8542100000000004  0.6945300000000002  0.75107  1.0000
  C   C85       1.0  0.8146400000000001  0.6464500000000002  0.68992  1.0000
  C   C86       1.0  0.83112  0.68481  0.62076  1.0000
  C   C87       1.0  0.75397  0.55873  0.70112  1.0000
  C   C88       1.0  0.7729699999999999  0.50559  0.75227  1.0000
  C   C89       1.0  0.71177  0.42566000000000004  0.76797  1.0000
  C   C90       1.0  0.63157  0.39793  0.7327900000000002  1.0000
  C   C91       1.0  0.61349  0.44933  0.68007  1.0000
  C   C92       1.0  0.6749  0.52904  0.66398  1.0000
  C   C93       1.0  0.9049700000000003  0.81109  0.5401900000000001  1.0000
  C   C94       1.0  0.94719  0.82604  0.81124  1.0000
  C   C95       1.0  0.7314999999999999  0.36728  0.82077  1.0000
  C   C96       1.0  0.52789  0.4199100000000001  0.6430500000000002  1.0000
  C   C97       1.0  0.77361  0.07254  0.7600900000000002  1.0000
  C   C98       1.0  0.85372  0.10119  0.72455  1.0000
  C   C99       1.0  0.8757300000000002  0.04702  0.67726  1.0000
  C   C100      1.0  0.81829  0.96436  0.6666000000000002  1.0000
  C   C101      1.0  0.73801  0.93485  0.70179  1.0000
  C   C102      1.0  0.71539  0.98988  0.74852  1.0000
  C   C103      1.0  0.68098  0.84629  0.68894  1.0000
  C   C104      1.0  0.6741800000000002  0.81167  0.6187500000000002  1.0000
  C   C105      1.0  0.62422  0.72666  0.60587  1.0000
  C   C106      1.0  0.58011  0.6750000000000003  0.66344  1.0000
  C   C107      1.0  0.58629  0.7092  0.73387  1.0000
  C   C108      1.0  0.63617  0.7944  0.74643  1.0000
  C   C109      1.0  0.7529300000000002  0.13266  0.81052  1.0000
  C   C110      1.0  0.96077  0.07529  0.63932  1.0000
  C   C111      1.0  0.6219  0.69314  0.53043  1.0000
  C   C112      1.0  0.5396  0.6520200000000003  0.7938600000000002  1.0000
  C   C113      1.0  0.61129  0.23127000000000006  0.11346  1.0000
  C   C114      1.0  0.57068  0.18499  0.17508000000000007  1.0000
  C   C115      1.0  0.5895500000000002  0.22169  0.24448  1.0000
  C   C116      1.0  0.6458500000000001  0.3056500000000001  0.25138  1.0000
  C   C117      1.0  0.6851000000000002  0.35362  0.18999000000000005  1.0000
  C   C118      1.0  0.66872  0.3151000000000001  0.12085000000000001  1.0000
  C   C119      1.0  0.74559  0.44146  0.20122000000000004  1.0000
  C   C120      1.0  0.72647  0.4944500000000001  0.25257  1.0000
  C   C121      1.0  0.78763  0.5744100000000002  0.26834  1.0000
  C   C122      1.0  0.8679  0.60214  0.23308  1.0000
  C   C123      1.0  0.88625  0.55077  0.18051  1.0000
  C   C124      1.0  0.82485  0.4711700000000001  0.16426000000000004  1.0000
  C   C125      1.0  0.5944800000000002  0.18829  0.0404  1.0000
  C   C126      1.0  0.55327  0.17424  0.31243  1.0000
  C   C127      1.0  0.76831  0.63305  0.32126  1.0000
  C   C128      1.0  0.97215  0.57995  0.14379  1.0000
  O   O1        1.0  0.17854  0.10775  0.65824  1.0000
  O   O2        1.0  0.31307  0.20358  0.6791000000000001  1.0000
  O   O3        1.0  0.51122  0.15145000000000006  0.8512200000000002  1.0000
  O   O4        1.0  0.47711  0.01981  0.89929  1.0000
  O   O5        1.0  0.15038000000000012  0.7455700000000002  0.021570000000000002  1.0000
  O   O6        1.0  0.09447999999999998  0.61229  0.9787200000000001  1.0000
  O   O7        1.0  0.99053  0.5789900000000002  0.71624  1.0000
  O   O8        1.0  0.05547000000000005  0.68861  0.63951  1.0000
  O   O9        1.0  0.027500000000000014  0.12326000000000002  0.46764  1.0000
  O   O10       1.0  0.15189  0.22161  0.50918  1.0000
  O   O11       1.0  0.9988800000000001  0.09250000000000001  0.20263  1.0000
  O   O12       1.0  0.06879  0.20231  0.12682  1.0000
  O   O13       1.0  0.19163000000000008  0.6102600000000002  0.15383  1.0000
  O   O14       1.0  0.33012  0.70105  0.16442000000000007  1.0000
  O   O15       1.0  0.52411  0.65421  0.34275  1.0000
  O   O16       1.0  0.48938  0.52735  0.39928  1.0000
  O   O17       1.0  0.3226100000000001  0.8917600000000002  0.16055  1.0000
  O   O18       1.0  0.18758000000000008  0.7963500000000002  0.17998  1.0000
  O   O19       1.0  0.9876200000000002  0.8495600000000001  0.35031  1.0000
  O   O20       1.0  0.02313000000000005  0.9808000000000002  0.39971  1.0000
  O   O21       1.0  0.34846  0.25281  0.52065  1.0000
  O   O22       1.0  0.40522000000000025  0.3867  0.48058000000000006  1.0000
  O   O23       1.0  0.50856  0.4211  0.21463000000000004  1.0000
  O   O24       1.0  0.44377  0.31039  0.13874  1.0000
  O   O25       1.0  0.4728  0.8777500000000003  0.9666000000000001  1.0000
  O   O26       1.0  0.3497500000000002  0.7788200000000002  0.0099  1.0000
  O   O27       1.0  0.50079  0.90715  0.7012700000000001  1.0000
  O   O28       1.0  0.43077  0.79756  0.62565  1.0000
  O   O29       1.0  0.30719  0.39009  0.6504000000000002  1.0000
  O   O30       1.0  0.17063  0.29731  0.6665900000000002  1.0000
  O   O31       1.0  0.9760900000000001  0.34571000000000013  0.8423900000000002  1.0000
  O   O32       1.0  0.010140000000000014  0.47289  0.8981100000000001  1.0000
  O   O33       1.0  0.82145  0.89225  0.3417600000000001  1.0000
  O   O34       1.0  0.6869200000000001  0.7964200000000002  0.3209  1.0000
  O   O35       1.0  0.48877  0.8485500000000002  0.14878  1.0000
  O   O36       1.0  0.52288  0.98019  0.10071000000000002  1.0000
  O   O37       1.0  0.84961  0.25442  0.9784300000000001  1.0000
  O   O38       1.0  0.9055100000000001  0.3877100000000001  0.02128  1.0000
  O   O39       1.0  0.009469999999999994  0.42101  0.28376  1.0000
  O   O40       1.0  0.94452  0.31139  0.36049  1.0000
  O   O41       1.0  0.9724900000000001  0.87673  0.53236  1.0000
  O   O42       1.0  0.8481  0.77838  0.49082  1.0000
  O   O43       1.0  0.0011200000000000014  0.90749  0.79737  1.0000
  O   O44       1.0  0.93121  0.79768  0.87318  1.0000
  O   O45       1.0  0.80836  0.38973  0.8461700000000001  1.0000
  O   O46       1.0  0.66987  0.29894  0.83558  1.0000
  O   O47       1.0  0.47589  0.34578  0.65725  1.0000
  O   O48       1.0  0.51061  0.47265  0.60072  1.0000
  O   O49       1.0  0.67738  0.10824  0.8394500000000001  1.0000
  O   O50       1.0  0.8124200000000003  0.20365000000000005  0.82002  1.0000
  O   O51       1.0  0.01237  0.15044  0.6496900000000002  1.0000
  O   O52       1.0  0.97687  0.01919  0.60029  1.0000
  O   O53       1.0  0.65154  0.7471900000000002  0.47935  1.0000
  O   O54       1.0  0.59477  0.6133000000000002  0.51942  1.0000
  O   O55       1.0  0.49144000000000004  0.5789  0.78537  1.0000
  O   O56       1.0  0.55622  0.6896  0.86126  1.0000
  O   O57       1.0  0.52719  0.12225000000000003  0.0334  1.0000
  O   O58       1.0  0.65024  0.22118  0.9901  1.0000
  O   O59       1.0  0.49920000000000003  0.09284  0.2987300000000001  1.0000
  O   O60       1.0  0.56923  0.20243  0.37435  1.0000
  O   O61       1.0  0.6928  0.60991  0.3496  1.0000
  O   O62       1.0  0.8293600000000001  0.7026800000000002  0.33341  1.0000
  O   O63       1.0  0.02391000000000009  0.6542900000000003  0.15761  1.0000
  O   O64       1.0  0.98985  0.5271  0.10189000000000002  1.0000
