data_image0
_chemical_formula_structural       Zn8H80C160N16O48
_chemical_formula_sum              "Zn8 H80 C160 N16 O48"
_cell_length_a       15.15467
_cell_length_b       15.799749999999998
_cell_length_c       24.65911
_cell_angle_alpha    106.92111
_cell_angle_beta     108.07288
_cell_angle_gamma    90.00368

_symmetry_space_group_name_H-M    'P 1'
_symmetry_Int_Tables_number       1

loop_
  _symmetry_equiv_pos_as_xyz
  'x,y,z'

loop_
  _atom_site_type_symbol
  _atom_site_label
  _atom_site_symmetry_multiplicity
  _atom_site_fract_x
  _atom_site_fract_y
  _atom_site_fract_z
  _atom_site_occupancy
  Zn  Zn1       1.0  0.84727  0.07292  0.20103000000000001  1.0000
  Zn  Zn2       1.0  0.4093699999999999  0.63125  0.32937  1.0000
  Zn  Zn3       1.0  0.35434  0.5734  0.20118  1.0000
  Zn  Zn4       1.0  0.9213700000000001  0.13129  0.32916  1.0000
  Zn  Zn5       1.0  0.6456699999999997  0.4265999999999999  0.79883  1.0000
  Zn  Zn6       1.0  0.07864000000000004  0.86872  0.6708400000000001  1.0000
  Zn  Zn7       1.0  0.15272999999999995  0.92708  0.79897  1.0000
  Zn  Zn8       1.0  0.5906399999999998  0.36875  0.67064  1.0000
  H   H1        1.0  0.51446  0.35007  0.17959000000000003  1.0000
  H   H2        1.0  0.6285  0.23385999999999996  0.18115  1.0000
  H   H3        1.0  0.7303099999999997  0.3307099999999999  0.373  1.0000
  H   H4        1.0  0.61683  0.44816  0.37134  1.0000
  H   H5        1.0  0.09610999999999999  0.34773  0.34899  1.0000
  H   H6        1.0  0.20932  0.4673  0.35224  1.0000
  H   H7        1.0  0.10326000000000002  0.3988099999999999  0.16056000000000004  1.0000
  H   H8        1.0  0.98967  0.27951  0.15756000000000003  1.0000
  H   H9        1.0  0.84839  0.11889999999999999  0.09195  1.0000
  H   H10       1.0  0.7784399999999999  0.05390000000000009  0.9795900000000001  1.0000
  H   H11       1.0  0.6489799999999999  0.8355  0.00878  1.0000
  H   H12       1.0  0.7246599999999997  0.9094899999999998  0.11978  1.0000
  H   H13       1.0  0.458  0.013090000000000008  0.82096  1.0000
  H   H14       1.0  0.3948199999999999  0.9571  0.70875  1.0000
  H   H15       1.0  0.6732399999999998  0.62495  0.70828  1.0000
  H   H16       1.0  0.73393  0.67745  0.82095  1.0000
  H   H17       1.0  0.38777  0.54452  0.41668  1.0000
  H   H18       1.0  0.4158199999999999  0.58532  0.5274  1.0000
  H   H19       1.0  0.5047099999999999  0.8528599999999997  0.54146  1.0000
  H   H20       1.0  0.4717100000000001  0.8013200000000001  0.42983000000000005  1.0000
  H   H21       1.0  0.6646599999999998  0.85001  0.17919  1.0000
  H   H22       1.0  0.55286  0.73353  0.18115  1.0000
  H   H23       1.0  0.64433  0.8315899999999998  0.37294  1.0000
  H   H24       1.0  0.75546  0.94936  0.37093  1.0000
  H   H25       1.0  0.25349  0.8468299999999996  0.34912  1.0000
  H   H26       1.0  0.14414000000000002  0.9669100000000002  0.35251000000000005  1.0000
  H   H27       1.0  0.057489999999999986  0.89929  0.16091  1.0000
  H   H28       1.0  0.16745  0.77958  0.15767  1.0000
  H   H29       1.0  0.24291  0.6188899999999999  0.0914  1.0000
  H   H30       1.0  0.20123999999999995  0.55394  0.97913  1.0000
  H   H31       1.0  0.3601  0.33602  0.00927  1.0000
  H   H32       1.0  0.3946999999999999  0.40981  0.12011000000000001  1.0000
  H   H33       1.0  0.36325999999999997  0.51292  0.82195  1.0000
  H   H34       1.0  0.31399000000000005  0.4575000000000001  0.7096800000000001  1.0000
  H   H35       1.0  0.03459999999999999  0.12426000000000001  0.70775  1.0000
  H   H36       1.0  0.08609000000000014  0.1768600000000001  0.8202800000000002  1.0000
  H   H37       1.0  0.029849999999999998  0.044430000000000004  0.41702  1.0000
  H   H38       1.0  0.11147999999999995  0.08534999999999994  0.52792  1.0000
  H   H39       1.0  0.03610999999999998  0.35253  0.54131  1.0000
  H   H40       1.0  0.9584  0.3008700000000001  0.4294500000000001  1.0000
  H   H41       1.0  0.33535  0.14999  0.82081  1.0000
  H   H42       1.0  0.44715000000000005  0.26648000000000005  0.8188600000000001  1.0000
  H   H43       1.0  0.35567000000000004  0.16841  0.6270700000000001  1.0000
  H   H44       1.0  0.24454000000000004  0.05064000000000004  0.6290700000000001  1.0000
  H   H45       1.0  0.74652  0.15318  0.65088  1.0000
  H   H46       1.0  0.8558699999999998  0.03309000000000003  0.6475  1.0000
  H   H47       1.0  0.9425099999999997  0.10071  0.83909  1.0000
  H   H48       1.0  0.8325499999999998  0.22043  0.8423300000000001  1.0000
  H   H49       1.0  0.7570999999999999  0.38111  0.90861  1.0000
  H   H50       1.0  0.7987599999999998  0.44607  0.02087  1.0000
  H   H51       1.0  0.6398999999999999  0.66398  0.9907300000000001  1.0000
  H   H52       1.0  0.6052999999999997  0.59019  0.87989  1.0000
  H   H53       1.0  0.63675  0.48708  0.17806  1.0000
  H   H54       1.0  0.68601  0.54251  0.29032  1.0000
  H   H55       1.0  0.9653999999999998  0.87575  0.29225  1.0000
  H   H56       1.0  0.91392  0.82314  0.17972  1.0000
  H   H57       1.0  0.9701499999999997  0.95558  0.5829900000000001  1.0000
  H   H58       1.0  0.88853  0.9146499999999997  0.47208  1.0000
  H   H59       1.0  0.96389  0.6474799999999998  0.45869  1.0000
  H   H60       1.0  0.0416  0.69913  0.57055  1.0000
  H   H61       1.0  0.48554  0.6499300000000001  0.8204200000000001  1.0000
  H   H62       1.0  0.37150999999999995  0.76614  0.8188600000000001  1.0000
  H   H63       1.0  0.2696899999999999  0.66929  0.627  1.0000
  H   H64       1.0  0.38317000000000007  0.55184  0.6286600000000001  1.0000
  H   H65       1.0  0.9039  0.6522699999999998  0.65102  1.0000
  H   H66       1.0  0.7906899999999998  0.5327  0.64776  1.0000
  H   H67       1.0  0.8967399999999999  0.6012  0.8394400000000001  1.0000
  H   H68       1.0  0.010329999999999999  0.7205  0.84245  1.0000
  H   H69       1.0  0.15161000000000002  0.88111  0.90806  1.0000
  H   H70       1.0  0.22156  0.9460999999999998  0.02041  1.0000
  H   H71       1.0  0.35101999999999994  0.1645  0.99123  1.0000
  H   H72       1.0  0.27534999999999993  0.09051999999999999  0.88022  1.0000
  H   H73       1.0  0.5419999999999998  0.9869199999999999  0.17904  1.0000
  H   H74       1.0  0.6051799999999998  0.04290000000000001  0.29125000000000006  1.0000
  H   H75       1.0  0.32677  0.37505  0.29172  1.0000
  H   H76       1.0  0.26607  0.32256  0.17906000000000002  1.0000
  H   H77       1.0  0.61223  0.45549  0.58332  1.0000
  H   H78       1.0  0.58419  0.41468  0.4726  1.0000
  H   H79       1.0  0.49529  0.14715  0.45854  1.0000
  H   H80       1.0  0.5282999999999999  0.19868000000000005  0.5701700000000001  1.0000
  C   C1        1.0  0.49197  0.47498  0.27393  1.0000
  C   C2        1.0  0.55937  0.40555  0.27534  1.0000
  C   C3        1.0  0.5621999999999998  0.3452999999999999  0.22157  1.0000
  C   C4        1.0  0.6248399999999997  0.28091  0.22233  1.0000
  C   C5        1.0  0.68571  0.27606999999999987  0.2771  1.0000
  C   C6        1.0  0.68258  0.33582  0.33105  1.0000
  C   C7        1.0  0.61988  0.40035  0.33021  1.0000
  C   C8        1.0  0.7556199999999997  0.20878  0.27729  1.0000
  C   C9        1.0  0.9744399999999998  0.2322  0.25196  1.0000
  C   C10       1.0  0.036699999999999976  0.30694  0.25311  1.0000
  C   C11       1.0  0.09756000000000002  0.3606  0.30829000000000006  1.0000
  C   C12       1.0  0.15999  0.42666  0.31004  1.0000
  C   C13       1.0  0.16281999999999996  0.43961000000000006  0.25662  1.0000
  C   C14       1.0  0.10014000000000002  0.3877199999999999  0.20149000000000003  1.0000
  C   C15       1.0  0.03741  0.3217199999999999  0.19983  1.0000
  C   C16       1.0  0.23866  0.50248  0.25866  1.0000
  C   C17       1.0  0.80315  0.05675  0.07116  1.0000
  C   C18       1.0  0.7643699999999998  0.020529999999999993  0.00928  1.0000
  C   C19       1.0  0.70686  0.94068  0.98627  1.0000
  C   C20       1.0  0.69219  0.89836  0.02548  1.0000
  C   C21       1.0  0.7336699999999998  0.93873  0.08676  1.0000
  C   C22       1.0  0.59323  0.9503399999999999  0.89382  1.0000
  C   C23       1.0  0.5529499999999998  0.91312  0.8279  1.0000
  C   C24       1.0  0.48370999999999986  0.95511  0.79629  1.0000
  C   C25       1.0  0.44842000000000004  0.9239199999999997  0.7334600000000001  1.0000
  C   C26       1.0  0.4825599999999999  0.85064  0.7019  1.0000
  C   C27       1.0  0.44754999999999995  0.82118  0.6355900000000001  1.0000
  C   C28       1.0  0.5538000000000001  0.6970099999999998  0.6361900000000001  1.0000
  C   C29       1.0  0.5853  0.72932  0.7022400000000001  1.0000
  C   C30       1.0  0.6501099999999999  0.68394  0.73361  1.0000
  C   C31       1.0  0.68375  0.71347  0.79641  1.0000
  C   C32       1.0  0.6534699999999998  0.78952  0.8278900000000002  1.0000
  C   C33       1.0  0.6928  0.82122  0.8939600000000002  1.0000
  C   C34       1.0  0.5863399999999998  0.8364299999999999  0.7969300000000001  1.0000
  C   C35       1.0  0.5511  0.80536  0.73307  1.0000
  C   C36       1.0  0.41287  0.6120599999999998  0.44604  1.0000
  C   C37       1.0  0.4287099999999999  0.6349399999999997  0.50743  1.0000
  C   C38       1.0  0.4633899999999999  0.72218  0.54259  1.0000
  C   C39       1.0  0.4783699999999999  0.78439  0.51525  1.0000
  C   C40       1.0  0.4601299999999999  0.75631  0.45358000000000004  1.0000
  C   C41       1.0  0.7826999999999997  0.97459  0.27323  1.0000
  C   C42       1.0  0.71641  0.90584  0.27494  1.0000
  C   C43       1.0  0.65946  0.84535  0.22123  1.0000
  C   C44       1.0  0.59792  0.7809299999999996  0.22221  1.0000
  C   C45       1.0  0.5923800000000001  0.77635  0.27701000000000003  1.0000
  C   C46       1.0  0.64966  0.8364899999999998  0.33093  1.0000
  C   C47       1.0  0.71122  0.90111  0.32988000000000006  1.0000
  C   C48       1.0  0.52268  0.70886  0.27696  1.0000
  C   C49       1.0  0.27797  0.7320199999999999  0.25228  1.0000
  C   C50       1.0  0.21667999999999996  0.8066  0.25331  1.0000
  C   C51       1.0  0.21128  0.8600699999999998  0.30847  1.0000
  C   C52       1.0  0.1509  0.92635  0.31029  1.0000
  C   C53       1.0  0.09458999999999994  0.9396  0.25685  1.0000
  C   C54       1.0  0.10173  0.88783  0.20176  1.0000
  C   C55       1.0  0.16248999999999994  0.8216100000000002  0.20001000000000005  1.0000
  C   C56       1.0  0.021030000000000004  0.0026899999999999945  0.25868  1.0000
  C   C57       1.0  0.2676  0.55684  0.07089  1.0000
  C   C58       1.0  0.24485999999999994  0.52066  0.00905  1.0000
  C   C59       1.0  0.2794500000000001  0.4408900000000001  0.9863000000000002  1.0000
  C   C60       1.0  0.33336  0.39872999999999986  0.02574  1.0000
  C   C61       1.0  0.35276  0.43904  0.08695  1.0000
  C   C62       1.0  0.30073  0.45036000000000004  0.8940500000000001  1.0000
  C   C63       1.0  0.2749199999999999  0.41282  0.82819  1.0000
  C   C64       1.0  0.3127899999999999  0.45492000000000005  0.79691  1.0000
  C   C65       1.0  0.28513000000000005  0.42399  0.73411  1.0000
  C   C66       1.0  0.21919  0.35073000000000004  0.7022600000000001  1.0000
  C   C67       1.0  0.18733  0.32183999999999996  0.63595  1.0000
  C   C68       1.0  0.08239  0.19676  0.63592  1.0000
  C   C69       1.0  0.11659000000000004  0.22893000000000002  0.70202  1.0000
  C   C70       1.0  0.08298000000000005  0.18350000000000008  0.7332000000000001  1.0000
  C   C71       1.0  0.11191999999999999  0.21313  0.79603  1.0000
  C   C72       1.0  0.17384  0.2893399999999999  0.82775  1.0000
  C   C73       1.0  0.20082999999999998  0.3213199999999999  0.89384  1.0000
  C   C74       1.0  0.21027999999999994  0.3361499999999999  0.79698  1.0000
  C   C75       1.0  0.18173999999999996  0.30512000000000006  0.7331300000000001  1.0000
  C   C76       1.0  0.033960000000000004  0.11198999999999995  0.44622  1.0000
  C   C77       1.0  0.07908  0.13497999999999996  0.50772  1.0000
  C   C78       1.0  0.07939999999999996  0.2222  0.54269  1.0000
  C   C79       1.0  0.03683999999999999  0.28422  0.51516  1.0000
  C   C80       1.0  0.9938599999999997  0.25605  0.45339  1.0000
  C   C81       1.0  0.21731  0.025419999999999963  0.72677  1.0000
  C   C82       1.0  0.2836  0.09417000000000006  0.72506  1.0000
  C   C83       1.0  0.34055  0.15465000000000007  0.77877  1.0000
  C   C84       1.0  0.4020899999999999  0.21907  0.7778  1.0000
  C   C85       1.0  0.40762999999999994  0.22365000000000002  0.72299  1.0000
  C   C86       1.0  0.35034999999999994  0.16352000000000005  0.6690800000000001  1.0000
  C   C87       1.0  0.28879  0.09888999999999995  0.67012  1.0000
  C   C88       1.0  0.47732  0.29114  0.72304  1.0000
  C   C89       1.0  0.7220399999999998  0.26798  0.7477200000000002  1.0000
  C   C90       1.0  0.7833199999999998  0.19341  0.74669  1.0000
  C   C91       1.0  0.78872  0.13994  0.69153  1.0000
  C   C92       1.0  0.8491  0.07365000000000003  0.6897100000000002  1.0000
  C   C93       1.0  0.90542  0.06040000000000001  0.74315  1.0000
  C   C94       1.0  0.8982800000000001  0.11217000000000012  0.7982400000000002  1.0000
  C   C95       1.0  0.83751  0.17839  0.79999  1.0000
  C   C96       1.0  0.9789799999999999  0.99731  0.7413300000000003  1.0000
  C   C97       1.0  0.7324099999999999  0.44316  0.92912  1.0000
  C   C98       1.0  0.7551499999999999  0.4793400000000001  0.9909500000000002  1.0000
  C   C99       1.0  0.72055  0.55912  0.0137  1.0000
  C   C100      1.0  0.6666499999999997  0.60128  0.97426  1.0000
  C   C101      1.0  0.6472400000000001  0.56096  0.9130500000000001  1.0000
  C   C102      1.0  0.6992699999999997  0.54964  0.10595000000000002  1.0000
  C   C103      1.0  0.7250799999999997  0.58718  0.17181  1.0000
  C   C104      1.0  0.6872099999999998  0.54508  0.20309  1.0000
  C   C105      1.0  0.71488  0.57602  0.26589000000000007  1.0000
  C   C106      1.0  0.7808199999999997  0.64928  0.29774  1.0000
  C   C107      1.0  0.81268  0.6781600000000001  0.3640500000000001  1.0000
  C   C108      1.0  0.91762  0.80324  0.36408  1.0000
  C   C109      1.0  0.8834099999999998  0.7710799999999998  0.29798  1.0000
  C   C110      1.0  0.9170299999999998  0.8165  0.2668  1.0000
  C   C111      1.0  0.8880799999999999  0.78688  0.20398  1.0000
  C   C112      1.0  0.82616  0.71066  0.17226  1.0000
  C   C113      1.0  0.79917  0.67869  0.10616  1.0000
  C   C114      1.0  0.7897199999999998  0.6638600000000002  0.20303000000000004  1.0000
  C   C115      1.0  0.8182599999999999  0.6948900000000001  0.26687000000000005  1.0000
  C   C116      1.0  0.9660499999999999  0.8880099999999999  0.5537800000000002  1.0000
  C   C117      1.0  0.9209199999999998  0.86503  0.49228  1.0000
  C   C118      1.0  0.9206  0.7778  0.45731  1.0000
  C   C119      1.0  0.9631599999999999  0.71578  0.48485  1.0000
  C   C120      1.0  0.006150000000000006  0.7439499999999998  0.54661  1.0000
  C   C121      1.0  0.50803  0.52503  0.72607  1.0000
  C   C122      1.0  0.44063  0.59445  0.7246700000000003  1.0000
  C   C123      1.0  0.4377999999999999  0.6547  0.77843  1.0000
  C   C124      1.0  0.3751599999999999  0.7191  0.77767  1.0000
  C   C125      1.0  0.31430000000000013  0.72394  0.7229100000000003  1.0000
  C   C126      1.0  0.31742999999999993  0.66418  0.66895  1.0000
  C   C127      1.0  0.3801299999999999  0.59965  0.66979  1.0000
  C   C128      1.0  0.2443799999999999  0.7912199999999998  0.72272  1.0000
  C   C129      1.0  0.025560000000000003  0.76781  0.74805  1.0000
  C   C130      1.0  0.9633100000000001  0.69306  0.7468900000000003  1.0000
  C   C131      1.0  0.9024399999999998  0.6394  0.69171  1.0000
  C   C132      1.0  0.84001  0.5733499999999998  0.68996  1.0000
  C   C133      1.0  0.8371899999999999  0.5604  0.7433800000000002  1.0000
  C   C134      1.0  0.8998699999999997  0.61228  0.79851  1.0000
  C   C135      1.0  0.9625899999999998  0.67829  0.8001700000000003  1.0000
  C   C136      1.0  0.76134  0.4975200000000001  0.7413400000000001  1.0000
  C   C137      1.0  0.19685000000000008  0.94326  0.9288500000000001  1.0000
  C   C138      1.0  0.23563  0.9794699999999995  0.99072  1.0000
  C   C139      1.0  0.2931499999999999  0.05932  0.01373  1.0000
  C   C140      1.0  0.3078099999999999  0.10164999999999999  0.97452  1.0000
  C   C141      1.0  0.2663400000000001  0.061280000000000036  0.91324  1.0000
  C   C142      1.0  0.4067699999999999  0.04966  0.10618  1.0000
  C   C143      1.0  0.4470499999999999  0.08688000000000003  0.17210000000000003  1.0000
  C   C144      1.0  0.5163  0.044889999999999985  0.20371  1.0000
  C   C145      1.0  0.5515899999999998  0.07608999999999998  0.26655  1.0000
  C   C146      1.0  0.51744  0.14936  0.2981  1.0000
  C   C147      1.0  0.5524499999999998  0.17883  0.36442  1.0000
  C   C148      1.0  0.4462  0.303  0.36381  1.0000
  C   C149      1.0  0.4147  0.27068  0.29776  1.0000
  C   C150      1.0  0.3499  0.31606  0.26639  1.0000
  C   C151      1.0  0.31625  0.2865399999999999  0.20359  1.0000
  C   C152      1.0  0.3465299999999999  0.21047999999999997  0.17211  1.0000
  C   C153      1.0  0.30721  0.17878  0.10604000000000001  1.0000
  C   C154      1.0  0.41367000000000004  0.16357  0.20307000000000003  1.0000
  C   C155      1.0  0.4488999999999998  0.19463999999999995  0.26693  1.0000
  C   C156      1.0  0.58714  0.3879500000000001  0.5539600000000001  1.0000
  C   C157      1.0  0.5712899999999997  0.36505999999999994  0.4925700000000001  1.0000
  C   C158      1.0  0.53662  0.27783  0.45741  1.0000
  C   C159      1.0  0.52163  0.21560999999999994  0.48475  1.0000
  C   C160      1.0  0.53987  0.24369  0.54642  1.0000
  N   N1        1.0  0.78717  0.01707  0.10928  1.0000
  N   N2        1.0  0.42904  0.67155  0.41971  1.0000
  N   N3        1.0  0.6634099999999999  0.90301  0.92251  1.0000
  N   N4        1.0  0.48786999999999986  0.74692  0.60658  1.0000
  N   N5        1.0  0.32158000000000003  0.51724  0.10925  1.0000
  N   N6        1.0  0.9916200000000001  0.17139000000000001  0.41964000000000007  1.0000
  N   N7        1.0  0.2591499999999999  0.40314  0.92258  1.0000
  N   N8        1.0  0.11872999999999999  0.247  0.60672  1.0000
  N   N9        1.0  0.6784299999999998  0.48277  0.89075  1.0000
  N   N10       1.0  0.00838  0.82861  0.58036  1.0000
  N   N11       1.0  0.74086  0.59687  0.07742000000000002  1.0000
  N   N12       1.0  0.88128  0.7530099999999998  0.39329  1.0000
  N   N13       1.0  0.21284000000000008  0.9829400000000001  0.8907300000000002  1.0000
  N   N14       1.0  0.5709699999999999  0.3284499999999998  0.5803  1.0000
  N   N15       1.0  0.33659  0.097  0.07749  1.0000
  N   N16       1.0  0.5121399999999998  0.25308  0.39342  1.0000
  O   O1        1.0  0.44193  0.4776499999999999  0.22228  1.0000
  O   O2        1.0  0.48998999999999987  0.52546  0.32412  1.0000
  O   O3        1.0  0.7539099999999997  0.15795  0.22613  1.0000
  O   O4        1.0  0.8112399999999999  0.20855  0.32802  1.0000
  O   O5        1.0  0.9238199999999998  0.18132  0.20092  1.0000
  O   O6        1.0  0.9782699999999999  0.22482999999999995  0.30272  1.0000
  O   O7        1.0  0.24532999999999994  0.50434  0.20876  1.0000
  O   O8        1.0  0.2936799999999999  0.5459900000000001  0.3104700000000001  1.0000
  O   O9        1.0  0.57029  0.01814000000000004  0.92351  1.0000
  O   O10       1.0  0.7486899999999997  0.7824399999999998  0.92369  1.0000
  O   O11       1.0  0.3886199999999999  0.8576499999999998  0.60596  1.0000
  O   O12       1.0  0.5835299999999999  0.6328899999999997  0.6076700000000002  1.0000
  O   O13       1.0  0.7812199999999998  0.97606  0.22147  1.0000
  O   O14       1.0  0.83532  0.02542000000000002  0.32328  1.0000
  O   O15       1.0  0.47323  0.65804  0.22563  1.0000
  O   O16       1.0  0.51795  0.70848  0.32759  1.0000
  O   O17       1.0  0.2770999999999999  0.68109  0.20125000000000004  1.0000
  O   O18       1.0  0.3254499999999999  0.72492  0.30313  1.0000
  O   O19       1.0  0.9643499999999998  0.004660000000000004  0.20868000000000003  1.0000
  O   O20       1.0  0.01813999999999999  0.04619999999999997  0.3104  1.0000
  O   O21       1.0  0.35352  0.51821  0.92365  1.0000
  O   O22       1.0  0.17457000000000011  0.28272  0.9234800000000002  1.0000
  O   O23       1.0  0.21544999999999995  0.35901  0.60632  1.0000
  O   O24       1.0  0.02431000000000009  0.13240999999999994  0.6067900000000002  1.0000
  O   O25       1.0  0.21878000000000006  0.02394000000000004  0.7785300000000002  1.0000
  O   O26       1.0  0.16468000000000005  0.97458  0.6767300000000002  1.0000
  O   O27       1.0  0.5267699999999997  0.34196  0.7743700000000001  1.0000
  O   O28       1.0  0.48206  0.2915199999999999  0.67242  1.0000
  O   O29       1.0  0.7229  0.31891000000000014  0.7987500000000002  1.0000
  O   O30       1.0  0.67455  0.27509  0.69687  1.0000
  O   O31       1.0  0.03566000000000005  0.9953499999999998  0.7913200000000001  1.0000
  O   O32       1.0  0.9818599999999998  0.9537999999999996  0.6896  1.0000
  O   O33       1.0  0.64649  0.4818  0.07636  1.0000
  O   O34       1.0  0.82543  0.71728  0.07652  1.0000
  O   O35       1.0  0.7845599999999998  0.641  0.39368  1.0000
  O   O36       1.0  0.9756899999999997  0.86759  0.39321  1.0000
  O   O37       1.0  0.55808  0.52235  0.77772  1.0000
  O   O38       1.0  0.51001  0.47454  0.67588  1.0000
  O   O39       1.0  0.24608999999999995  0.84205  0.77387  1.0000
  O   O40       1.0  0.1887599999999999  0.79145  0.67199  1.0000
  O   O41       1.0  0.0761800000000001  0.81869  0.7990800000000002  1.0000
  O   O42       1.0  0.021740000000000006  0.7751699999999998  0.69728  1.0000
  O   O43       1.0  0.75468  0.49567  0.79124  1.0000
  O   O44       1.0  0.7063199999999997  0.4540199999999999  0.68953  1.0000
  O   O45       1.0  0.42972  0.98186  0.07650000000000001  1.0000
  O   O46       1.0  0.25131  0.21756  0.07632  1.0000
  O   O47       1.0  0.6113799999999998  0.14236  0.39404  1.0000
  O   O48       1.0  0.41648  0.36711  0.39233  1.0000
