data_image0
_chemical_formula_structural       Cu4H104C136N16O8
_chemical_formula_sum              "Cu4 H104 C136 N16 O8"
_cell_length_a       12.24348
_cell_length_b       12.25148
_cell_length_c       28.50035
_cell_angle_alpha    90.00894
_cell_angle_beta     90.00313
_cell_angle_gamma    90.01169

_space_group_name_H-M_alt    "P 1"
_space_group_IT_number       1

loop_
  _space_group_symop_operation_xyz
  'x, y, z'

loop_
  _atom_site_type_symbol
  _atom_site_label
  _atom_site_symmetry_multiplicity
  _atom_site_fract_x
  _atom_site_fract_y
  _atom_site_fract_z
  _atom_site_occupancy
  Cu  Cu1       1.0  0.49997999999999987  6.0000000000000015e-05  0.28241  1.0000
  Cu  Cu2       1.0  0.00013  0.50007  0.7823500000000002  1.0000
  Cu  Cu3       1.0  0.50046  0.99998  0.7178000000000002  1.0000
  Cu  Cu4       1.0  0.99997  0.49971  0.21745  1.0000
  H   H1        1.0  0.41055  0.58388  0.4334  1.0000
  H   H2        1.0  0.48393  0.67712  0.383  1.0000
  H   H3        1.0  0.4847499999999999  0.78012  0.30932  1.0000
  H   H4        1.0  0.3595299999999999  0.8782500000000001  0.51267  1.0000
  H   H5        1.0  0.33605  0.95979  0.44889  1.0000
  H   H6        1.0  0.35239  0.0544  0.37369  1.0000
  H   H7        1.0  0.12076999999999999  0.63185  0.70154  1.0000
  H   H8        1.0  0.29983  0.76989  0.5794200000000003  1.0000
  H   H9        1.0  0.13441  0.3203  0.7574300000000003  1.0000
  H   H10       1.0  0.16797  0.6540200000000002  0.6129300000000001  1.0000
  H   H11       1.0  0.30296  0.65562  0.6364800000000003  1.0000
  H   H12       1.0  0.23893999999999996  0.25037  0.6877300000000001  1.0000
  H   H13       1.0  0.28346  0.37925  0.6226  1.0000
  H   H14       1.0  0.58935  0.41606  0.4334500000000001  1.0000
  H   H15       1.0  0.51619  0.32274  0.383  1.0000
  H   H16       1.0  0.5150599999999999  0.21965999999999997  0.30933000000000005  1.0000
  H   H17       1.0  0.6402899999999999  0.12186  0.51272  1.0000
  H   H18       1.0  0.66387  0.04023  0.4489700000000001  1.0000
  H   H19       1.0  0.64806  0.9454500000000001  0.37378  1.0000
  H   H20       1.0  0.8789799999999998  0.36815  0.70153  1.0000
  H   H21       1.0  0.7002199999999998  0.23021000000000003  0.5794800000000002  1.0000
  H   H22       1.0  0.8655499999999998  0.67967  0.75745  1.0000
  H   H23       1.0  0.8323799999999998  0.3459400000000001  0.61291  1.0000
  H   H24       1.0  0.69735  0.34425  0.6363400000000001  1.0000
  H   H25       1.0  0.7612799999999997  0.74959  0.6876800000000002  1.0000
  H   H26       1.0  0.71706  0.62086  0.62249  1.0000
  H   H27       1.0  0.4166  0.41047  0.9336600000000003  1.0000
  H   H28       1.0  0.32322999999999996  0.48362  0.8831700000000001  1.0000
  H   H29       1.0  0.22040999999999997  0.48546  0.8095  1.0000
  H   H30       1.0  0.12189  0.35908  0.01264  1.0000
  H   H31       1.0  0.04039  0.3350600000000001  0.9485900000000003  1.0000
  H   H32       1.0  0.9458199999999998  0.35246  0.8734400000000002  1.0000
  H   H33       1.0  0.36776  0.12094  0.20183  1.0000
  H   H34       1.0  0.23013999999999998  0.30006  0.07954  1.0000
  H   H35       1.0  0.67984  0.13442  0.25748  1.0000
  H   H36       1.0  0.3465099999999999  0.16678  0.11257000000000003  1.0000
  H   H37       1.0  0.3430799999999999  0.30112  0.13669  1.0000
  H   H38       1.0  0.7492999999999997  0.23886  0.18767  1.0000
  H   H39       1.0  0.62034  0.28232  0.12243000000000002  1.0000
  H   H40       1.0  0.58375  0.58941  0.93352  1.0000
  H   H41       1.0  0.67707  0.51645  0.8831200000000002  1.0000
  H   H42       1.0  0.7801099999999997  0.51425  0.8095  1.0000
  H   H43       1.0  0.87838  0.64081  0.012630000000000004  1.0000
  H   H44       1.0  0.9598399999999998  0.6648500000000002  0.9487  1.0000
  H   H45       1.0  0.054479999999999994  0.64786  0.8735400000000001  1.0000
  H   H46       1.0  0.63208  0.87977  0.20171  1.0000
  H   H47       1.0  0.7699999999999998  0.69985  0.07952000000000002  1.0000
  H   H48       1.0  0.31994  0.86561  0.25731  1.0000
  H   H49       1.0  0.65357  0.8332500000000002  0.11247000000000003  1.0000
  H   H50       1.0  0.6568  0.69884  0.13658000000000003  1.0000
  H   H51       1.0  0.25053999999999993  0.76091  0.18752  1.0000
  H   H52       1.0  0.37995999999999996  0.7168  0.12245  1.0000
  H   H53       1.0  0.58949  0.58369  0.56646  1.0000
  H   H54       1.0  0.51672  0.67683  0.6169600000000002  1.0000
  H   H55       1.0  0.51469  0.7799900000000001  0.69062  1.0000
  H   H56       1.0  0.6411099999999998  0.8783  0.48739  1.0000
  H   H57       1.0  0.66505  0.95956  0.55129  1.0000
  H   H58       1.0  0.6476899999999999  0.05444  0.6264200000000002  1.0000
  H   H59       1.0  0.87869  0.63233  0.2979100000000001  1.0000
  H   H60       1.0  0.70002  0.7699699999999999  0.4205000000000001  1.0000
  H   H61       1.0  0.8652899999999998  0.32022  0.24269  1.0000
  H   H62       1.0  0.83328  0.65328  0.3878500000000001  1.0000
  H   H63       1.0  0.6992699999999998  0.65733  0.3633800000000001  1.0000
  H   H64       1.0  0.7608099999999998  0.25094  0.3126000000000001  1.0000
  H   H65       1.0  0.7180999999999998  0.38023  0.37782000000000004  1.0000
  H   H66       1.0  0.4106599999999999  0.4166  0.5663600000000001  1.0000
  H   H67       1.0  0.4835299999999999  0.32352  0.61687  1.0000
  H   H68       1.0  0.4851499999999999  0.22054  0.69058  1.0000
  H   H69       1.0  0.35906999999999994  0.1219  0.4873700000000001  1.0000
  H   H70       1.0  0.33497  0.04063  0.55129  1.0000
  H   H71       1.0  0.35237  0.94614  0.62652  1.0000
  H   H72       1.0  0.12087999999999999  0.36765999999999993  0.29804  1.0000
  H   H73       1.0  0.30010999999999993  0.23009  0.42045  1.0000
  H   H74       1.0  0.13423999999999997  0.67975  0.24256000000000005  1.0000
  H   H75       1.0  0.16736  0.34666  0.38762  1.0000
  H   H76       1.0  0.30137  0.34312  0.36314000000000013  1.0000
  H   H77       1.0  0.23916999999999994  0.74917  0.3122600000000001  1.0000
  H   H78       1.0  0.2826  0.62002  0.37752000000000013  1.0000
  H   H79       1.0  0.5840499999999998  0.41074  0.06664000000000002  1.0000
  H   H80       1.0  0.67744  0.4838  0.11692000000000002  1.0000
  H   H81       1.0  0.7803599999999999  0.48521  0.19055  1.0000
  H   H82       1.0  0.8783999999999998  0.35959  0.98739  1.0000
  H   H83       1.0  0.96009  0.33607  0.05114  1.0000
  H   H84       1.0  0.054749999999999986  0.35218  0.12632  1.0000
  H   H85       1.0  0.63172  0.12006  0.7989300000000003  1.0000
  H   H86       1.0  0.76994  0.30015  0.9205500000000002  1.0000
  H   H87       1.0  0.32025999999999993  0.13423  0.7426100000000002  1.0000
  H   H88       1.0  0.6543499999999999  0.16789  0.8869600000000002  1.0000
  H   H89       1.0  0.6553799999999999  0.30318  0.86376  1.0000
  H   H90       1.0  0.25011999999999995  0.23877  0.81226  1.0000
  H   H91       1.0  0.379  0.28428  0.8773300000000003  1.0000
  H   H92       1.0  0.4161499999999999  0.58923  0.06653  1.0000
  H   H93       1.0  0.32264  0.51602  0.11685  1.0000
  H   H94       1.0  0.21983999999999995  0.51491  0.19052  1.0000
  H   H95       1.0  0.12178  0.64054  0.9872900000000001  1.0000
  H   H96       1.0  0.04004  0.66388  0.05109  1.0000
  H   H97       1.0  0.9454699999999998  0.64792  0.12629  1.0000
  H   H98       1.0  0.36827  0.87926  0.7987000000000002  1.0000
  H   H99       1.0  0.23022999999999993  0.69988  0.92047  1.0000
  H   H100      1.0  0.6797  0.86531  0.74253  1.0000
  H   H101      1.0  0.34612  0.8322700000000001  0.8870300000000002  1.0000
  H   H102      1.0  0.34431  0.69728  0.8636  1.0000
  H   H103      1.0  0.74985  0.7613  0.8122900000000002  1.0000
  H   H104      1.0  0.6212399999999999  0.71677  0.87748  1.0000
  C   C1        1.0  0.38375  0.62576  0.46484000000000003  1.0000
  C   C2        1.0  0.34936  0.56047  0.50227  1.0000
  C   C3        1.0  0.40398  0.80519  0.42381  1.0000
  C   C4        1.0  0.38327999999999995  0.74093  0.4659400000000001  1.0000
  C   C5        1.0  0.4501999999999999  0.75938  0.38262  1.0000
  C   C6        1.0  0.45171999999999995  0.81679  0.34109  1.0000
  C   C7        1.0  0.31642999999999993  0.61458  0.54412  1.0000
  C   C8        1.0  0.35414  0.7902800000000001  0.50871  1.0000
  C   C9        1.0  0.3707799999999999  0.91583  0.41918  1.0000
  C   C10       1.0  0.3768799999999999  0.96905  0.37644  1.0000
  C   C11       1.0  0.14859999999999998  0.54796  0.6973700000000003  1.0000
  C   C12       1.0  0.20757999999999996  0.51686  0.65754  1.0000
  C   C13       1.0  0.32087999999999994  0.72853  0.54703  1.0000
  C   C14       1.0  0.15542999999999998  0.3731300000000001  0.72813  1.0000
  C   C15       1.0  0.23887  0.60249  0.62177  1.0000
  C   C16       1.0  0.21293  0.33522  0.6895600000000001  1.0000
  C   C17       1.0  0.23929  0.40749  0.6532900000000001  1.0000
  C   C18       1.0  0.6161899999999999  0.37427000000000005  0.46489  1.0000
  C   C19       1.0  0.65059  0.43962  0.50227  1.0000
  C   C20       1.0  0.59605  0.19474  0.42381  1.0000
  C   C21       1.0  0.6166  0.25908  0.46599  1.0000
  C   C22       1.0  0.54991  0.24054  0.38262  1.0000
  C   C23       1.0  0.54827  0.18294  0.3410400000000001  1.0000
  C   C24       1.0  0.68377  0.38553  0.54413  1.0000
  C   C25       1.0  0.6457999999999999  0.20978000000000002  0.50878  1.0000
  C   C26       1.0  0.62934  0.08417  0.41923  1.0000
  C   C27       1.0  0.6233599999999999  0.03074  0.37644  1.0000
  C   C28       1.0  0.8513699999999997  0.45197  0.6973800000000002  1.0000
  C   C29       1.0  0.7925599999999999  0.4832199999999999  0.65754  1.0000
  C   C30       1.0  0.6790999999999998  0.27154  0.54707  1.0000
  C   C31       1.0  0.84453  0.62677  0.72818  1.0000
  C   C32       1.0  0.76145  0.3975  0.6217  1.0000
  C   C33       1.0  0.7872699999999998  0.6647999999999998  0.68954  1.0000
  C   C34       1.0  0.7608899999999997  0.59246  0.65321  1.0000
  C   C35       1.0  0.37456  0.3834000000000001  0.96503  1.0000
  C   C36       1.0  0.4398299999999999  0.34923  0.0024600000000000004  1.0000
  C   C37       1.0  0.1952  0.40281  0.92368  1.0000
  C   C38       1.0  0.25941  0.38237000000000004  0.9659200000000002  1.0000
  C   C39       1.0  0.24105999999999994  0.44986000000000004  0.88272  1.0000
  C   C40       1.0  0.18343  0.45215  0.84109  1.0000
  C   C41       1.0  0.3854399999999999  0.3162  0.04427  1.0000
  C   C42       1.0  0.20982999999999993  0.35324  0.00867  1.0000
  C   C43       1.0  0.08440999999999999  0.3702  0.9190200000000002  1.0000
  C   C44       1.0  0.03108  0.377  0.8762  1.0000
  C   C45       1.0  0.45167999999999997  0.14843  0.19757000000000005  1.0000
  C   C46       1.0  0.48285  0.20711  0.15762  1.0000
  C   C47       1.0  0.27152  0.32063  0.04707  1.0000
  C   C48       1.0  0.6266599999999999  0.15552  0.22828000000000007  1.0000
  C   C49       1.0  0.39715999999999996  0.23805  0.12177  1.0000
  C   C50       1.0  0.6645399999999998  0.21273  0.18958  1.0000
  C   C51       1.0  0.5920999999999998  0.23874  0.15329  1.0000
  C   C52       1.0  0.62566  0.61645  0.9649200000000001  1.0000
  C   C53       1.0  0.5604099999999999  0.65056  0.0023800000000000006  1.0000
  C   C54       1.0  0.8050399999999998  0.59721  0.92369  1.0000
  C   C55       1.0  0.74089  0.61747  0.96587  1.0000
  C   C56       1.0  0.75926  0.55022  0.8826500000000003  1.0000
  C   C57       1.0  0.8169799999999998  0.54778  0.8411  1.0000
  C   C58       1.0  0.6146899999999998  0.6838500000000001  0.04419  1.0000
  C   C59       1.0  0.7904599999999999  0.64666  0.008660000000000001  1.0000
  C   C60       1.0  0.9159  0.6298  0.91905  1.0000
  C   C61       1.0  0.9692599999999998  0.62308  0.8763000000000002  1.0000
  C   C62       1.0  0.5480399999999999  0.8521300000000002  0.19748000000000004  1.0000
  C   C63       1.0  0.5172599999999999  0.79312  0.15750000000000003  1.0000
  C   C64       1.0  0.7286399999999997  0.67923  0.04705  1.0000
  C   C65       1.0  0.37311999999999995  0.8444299999999999  0.22814000000000004  1.0000
  C   C66       1.0  0.6028  0.76206  0.12171  1.0000
  C   C67       1.0  0.33538999999999997  0.78702  0.18941  1.0000
  C   C68       1.0  0.4078599999999999  0.76104  0.15324  1.0000
  C   C69       1.0  0.61641  0.62566  0.53508  1.0000
  C   C70       1.0  0.6505699999999999  0.56038  0.4976  1.0000
  C   C71       1.0  0.59675  0.80498  0.57628  1.0000
  C   C72       1.0  0.6171599999999999  0.74084  0.53405  1.0000
  C   C73       1.0  0.55037  0.75911  0.6174  1.0000
  C   C74       1.0  0.54801  0.81672  0.65893  1.0000
  C   C75       1.0  0.68339  0.61462  0.4557300000000001  1.0000
  C   C76       1.0  0.6464  0.79036  0.49132  1.0000
  C   C77       1.0  0.63012  0.91561  0.58095  1.0000
  C   C78       1.0  0.62324  0.9690600000000001  0.6236800000000002  1.0000
  C   C79       1.0  0.8513699999999997  0.54838  0.30242000000000013  1.0000
  C   C80       1.0  0.79312  0.51751  0.34243  1.0000
  C   C81       1.0  0.67923  0.72863  0.4529300000000001  1.0000
  C   C82       1.0  0.8443799999999999  0.37324  0.27194000000000007  1.0000
  C   C83       1.0  0.76201  0.60296  0.37835000000000013  1.0000
  C   C84       1.0  0.7872299999999999  0.33565000000000006  0.3106500000000001  1.0000
  C   C85       1.0  0.76144  0.40817000000000003  0.34691  1.0000
  C   C86       1.0  0.3835899999999999  0.37456000000000006  0.53501  1.0000
  C   C87       1.0  0.34941999999999995  0.43977  0.49753  1.0000
  C   C88       1.0  0.4033799999999999  0.19526  0.57622  1.0000
  C   C89       1.0  0.3827899999999999  0.25943  0.53399  1.0000
  C   C90       1.0  0.44983  0.24125  0.61731  1.0000
  C   C91       1.0  0.4518799999999999  0.18379000000000004  0.65886  1.0000
  C   C92       1.0  0.31675999999999993  0.38546  0.45568  1.0000
  C   C93       1.0  0.35365  0.20986  0.49129  1.0000
  C   C94       1.0  0.37006  0.08474  0.5809  1.0000
  C   C95       1.0  0.37675999999999993  0.0315  0.6236700000000002  1.0000
  C   C96       1.0  0.14828  0.45164  0.3023900000000001  1.0000
  C   C97       1.0  0.20705  0.48271  0.34234000000000003  1.0000
  C   C98       1.0  0.32077  0.27149  0.45289  1.0000
  C   C99       1.0  0.15521999999999997  0.62667  0.2718  1.0000
  C   C100      1.0  0.23843  0.39717  0.37817  1.0000
  C   C101      1.0  0.21278  0.66444  0.3104300000000001  1.0000
  C   C102      1.0  0.23874999999999996  0.59201  0.34667000000000003  1.0000
  C   C103      1.0  0.6258399999999998  0.38373000000000007  0.03519  1.0000
  C   C104      1.0  0.56056  0.34930000000000005  0.99782  1.0000
  C   C105      1.0  0.8053799999999999  0.40329  0.07628  1.0000
  C   C106      1.0  0.7410999999999998  0.38283  0.03418  1.0000
  C   C107      1.0  0.7596399999999998  0.45009  0.11735  1.0000
  C   C108      1.0  0.8172499999999998  0.45198  0.15893  1.0000
  C   C109      1.0  0.61468  0.3159  0.95599  1.0000
  C   C110      1.0  0.7904599999999999  0.3538  0.9913300000000003  1.0000
  C   C111      1.0  0.9162699999999998  0.37085  0.08085  1.0000
  C   C112      1.0  0.9695599999999999  0.37699  0.12365000000000002  1.0000
  C   C113      1.0  0.54783  0.14807  0.8028400000000002  1.0000
  C   C114      1.0  0.51663  0.20748  0.8426300000000001  1.0000
  C   C115      1.0  0.72858  0.32089  0.95302  1.0000
  C   C116      1.0  0.37324999999999997  0.15552  0.77185  1.0000
  C   C117      1.0  0.6024799999999999  0.23865000000000003  0.87832  1.0000
  C   C118      1.0  0.33506  0.213  0.8104600000000002  1.0000
  C   C119      1.0  0.4073399999999999  0.23964000000000002  0.8467300000000002  1.0000
  C   C120      1.0  0.37430999999999987  0.61623  0.0351  1.0000
  C   C121      1.0  0.43970999999999993  0.65051  0.99771  1.0000
  C   C122      1.0  0.19476999999999994  0.59658  0.07621  1.0000
  C   C123      1.0  0.25913  0.61699  0.03406  1.0000
  C   C124      1.0  0.24051  0.54976  0.11726  1.0000
  C   C125      1.0  0.18286999999999998  0.54805  0.1589  1.0000
  C   C126      1.0  0.38551999999999986  0.68375  0.9558600000000003  1.0000
  C   C127      1.0  0.20974  0.64628  0.9912600000000001  1.0000
  C   C128      1.0  0.08397  0.62911  0.08077000000000002  1.0000
  C   C129      1.0  0.03060999999999999  0.62305  0.12359000000000003  1.0000
  C   C130      1.0  0.45211999999999997  0.85129  0.80269  1.0000
  C   C131      1.0  0.48336  0.79225  0.8425  1.0000
  C   C132      1.0  0.27159  0.67906  0.9529300000000003  1.0000
  C   C133      1.0  0.6268299999999999  0.84422  0.77179  1.0000
  C   C134      1.0  0.39763  0.76128  0.87829  1.0000
  C   C135      1.0  0.66494  0.78706  0.8104500000000002  1.0000
  C   C136      1.0  0.5927099999999998  0.7605899999999999  0.8467400000000003  1.0000
  N   N1        1.0  0.4138099999999999  0.9213800000000001  0.3360400000000001  1.0000
  N   N2        1.0  0.12208  0.47854  0.7326700000000003  1.0000
  N   N3        1.0  0.58633  0.07836  0.336  1.0000
  N   N4        1.0  0.87774  0.52138  0.73277  1.0000
  N   N5        1.0  0.07897  0.41413  0.8359  1.0000
  N   N6        1.0  0.52128  0.1223  0.23289  1.0000
  N   N7        1.0  0.92147  0.58589  0.8359400000000002  1.0000
  N   N8        1.0  0.47854999999999986  0.87804  0.23279000000000005  1.0000
  N   N9        1.0  0.5857299999999999  0.9214599999999998  0.6640300000000002  1.0000
  N   N10       1.0  0.87766  0.47867  0.2672  1.0000
  N   N11       1.0  0.4141  0.07921  0.66398  1.0000
  N   N12       1.0  0.12174999999999997  0.52132  0.2671700000000001  1.0000
  N   N13       1.0  0.9217499999999998  0.41392  0.16403  1.0000
  N   N14       1.0  0.4786299999999999  0.12201  0.7673600000000003  1.0000
  N   N15       1.0  0.07853999999999998  0.58643  0.164  1.0000
  N   N16       1.0  0.5214199999999999  0.87748  0.7673000000000002  1.0000
  O   O1        1.0  0.27996  0.54984  0.58061  1.0000
  O   O2        1.0  0.72046  0.45031  0.58055  1.0000
  O   O3        1.0  0.45008  0.28025  0.08090000000000003  1.0000
  O   O4        1.0  0.54993  0.71986  0.08078  1.0000
  O   O5        1.0  0.7194099999999998  0.54992  0.41912000000000005  1.0000
  O   O6        1.0  0.28059  0.45  0.41908  1.0000
  O   O7        1.0  0.5498  0.27871  0.91967  1.0000
  O   O8        1.0  0.4503499999999999  0.7203200000000001  0.91943  1.0000
