data_image0
_chemical_formula_structural       Cd24H48C144O96
_chemical_formula_sum              "Cd24 H48 C144 O96"
_cell_length_a       10.47424
_cell_length_b       19.88504
_cell_length_c       38.092639999999996
_cell_angle_alpha    89.02876
_cell_angle_beta     89.50255999999999
_cell_angle_gamma    75.93355

_space_group_name_H-M_alt    "P 1"
_space_group_IT_number       1

loop_
  _space_group_symop_operation_xyz
  'x, y, z'

loop_
  _atom_site_type_symbol
  _atom_site_label
  _atom_site_symmetry_multiplicity
  _atom_site_fract_x
  _atom_site_fract_y
  _atom_site_fract_z
  _atom_site_occupancy
  Cd  Cd1       1.0  0.8724899999999998  0.68981  0.60947  1.0000
  Cd  Cd2       1.0  0.15701999999999997  0.69495  0.61008  1.0000
  Cd  Cd3       1.0  0.38158  0.17028  0.8969500000000001  1.0000
  Cd  Cd4       1.0  0.66432  0.17537999999999998  0.89222  1.0000
  Cd  Cd5       1.0  0.18996999999999992  0.7785400000000001  0.84478  1.0000
  Cd  Cd6       1.0  0.49612999999999996  0.6434  0.81506  1.0000
  Cd  Cd7       1.0  0.7719499999999999  0.58326  0.88476  1.0000
  Cd  Cd8       1.0  0.97521  0.71442  0.91023  1.0000
  Cd  Cd9       1.0  0.56272  0.16686  0.58503  1.0000
  Cd  Cd10      1.0  0.7469799999999998  0.28891  0.62334  1.0000
  Cd  Cd11      1.0  0.03320000000000001  0.21962000000000004  0.68684  1.0000
  Cd  Cd12      1.0  0.34813  0.09265  0.65025  1.0000
  Cd  Cd13      1.0  0.12748999999999994  0.3102  0.39053  1.0000
  Cd  Cd14      1.0  0.8429699999999999  0.30506  0.38992  1.0000
  Cd  Cd15      1.0  0.6184099999999999  0.8297199999999999  0.10304  1.0000
  Cd  Cd16      1.0  0.3356699999999999  0.82462  0.10776999999999999  1.0000
  Cd  Cd17      1.0  0.81002  0.22146000000000002  0.15522  1.0000
  Cd  Cd18      1.0  0.5038599999999999  0.3566  0.18494  1.0000
  Cd  Cd19      1.0  0.22804  0.41674  0.11523  1.0000
  Cd  Cd20      1.0  0.024769999999999997  0.28558  0.08976999999999999  1.0000
  Cd  Cd21      1.0  0.4372499999999999  0.83315  0.41496  1.0000
  Cd  Cd22      1.0  0.25300999999999996  0.71106  0.37665  1.0000
  Cd  Cd23      1.0  0.96679  0.78038  0.31315  1.0000
  Cd  Cd24      1.0  0.65185  0.90734  0.34975  1.0000
  H   H1        1.0  0.1891799999999999  0.6600900000000001  0.71685  1.0000
  H   H2        1.0  0.030270000000000012  0.64215  0.82058  1.0000
  H   H3        1.0  0.7865899999999999  0.64767  0.7295699999999999  1.0000
  H   H4        1.0  0.1345899999999999  0.9258200000000001  0.63655  1.0000
  H   H5        1.0  0.8080399999999999  0.10281  0.64986  1.0000
  H   H6        1.0  0.7381599999999999  0.90077  0.63236  1.0000
  H   H7        1.0  0.74309  0.20271000000000003  0.7746799999999999  1.0000
  H   H8        1.0  0.50558  0.21602  0.68196  1.0000
  H   H9        1.0  0.33724  0.19439  0.78425  1.0000
  H   H10       1.0  0.80012  0.96639  0.8735  1.0000
  H   H11       1.0  0.7334500000000002  0.77045  0.8419999999999999  1.0000
  H   H12       1.0  0.40493999999999974  0.9397600000000002  0.8675600000000001  1.0000
  H   H13       1.0  0.6461899999999999  0.7903000000000001  0.99619  1.0000
  H   H14       1.0  0.23958999999999991  0.78147  0.9927  1.0000
  H   H15       1.0  0.49623999999999996  0.70915  0.9052  1.0000
  H   H16       1.0  0.29185000000000005  0.59153  0.88151  1.0000
  H   H17       1.0  0.5657100000000002  0.3912  0.8898799999999999  1.0000
  H   H18       1.0  0.1485  0.40735  0.8959  1.0000
  H   H19       1.0  0.16525000000000004  0.75778  0.50738  1.0000
  H   H20       1.0  0.7508600000000001  0.77327  0.49499999999999994  1.0000
  H   H21       1.0  0.97313  0.83475  0.4099  1.0000
  H   H22       1.0  0.95483  0.47629  0.60859  1.0000
  H   H23       1.0  0.37170999999999993  0.46141  0.60796  1.0000
  H   H24       1.0  0.22816  0.2782  0.62585  1.0000
  H   H25       1.0  0.8108099999999999  0.33991  0.28315  1.0000
  H   H26       1.0  0.9697199999999999  0.35785  0.17940999999999996  1.0000
  H   H27       1.0  0.21339999999999984  0.35233  0.27043  1.0000
  H   H28       1.0  0.8653999999999998  0.07418  0.36344  1.0000
  H   H29       1.0  0.19194999999999995  0.8971800000000001  0.35014  1.0000
  H   H30       1.0  0.26183  0.09923000000000001  0.36764  1.0000
  H   H31       1.0  0.2569  0.79729  0.22532  1.0000
  H   H32       1.0  0.49441  0.7839800000000001  0.31804  1.0000
  H   H33       1.0  0.66275  0.80561  0.21575  1.0000
  H   H34       1.0  0.19987  0.03361  0.12648999999999996  1.0000
  H   H35       1.0  0.26653999999999994  0.22955000000000003  0.15799  1.0000
  H   H36       1.0  0.59505  0.06024  0.13243  1.0000
  H   H37       1.0  0.3538  0.20968999999999996  0.0038  1.0000
  H   H38       1.0  0.7604  0.21853000000000003  0.0073  1.0000
  H   H39       1.0  0.5037399999999999  0.29085  0.0948  1.0000
  H   H40       1.0  0.7081399999999999  0.40847  0.11848000000000002  1.0000
  H   H41       1.0  0.4342799999999999  0.6088  0.11012  1.0000
  H   H42       1.0  0.8514899999999999  0.59265  0.1041  1.0000
  H   H43       1.0  0.8347199999999999  0.24217000000000002  0.49262  1.0000
  H   H44       1.0  0.2491  0.22675  0.505  1.0000
  H   H45       1.0  0.026860000000000002  0.16522  0.59009  1.0000
  H   H46       1.0  0.045159999999999964  0.52371  0.39141  1.0000
  H   H47       1.0  0.62828  0.53859  0.39204  1.0000
  H   H48       1.0  0.7718299999999999  0.7218  0.37415  1.0000
  C   C1        1.0  0.98492  0.65702  0.71916  1.0000
  C   C2        1.0  0.10738999999999994  0.65645  0.73392  1.0000
  C   C3        1.0  0.12401999999999996  0.65211  0.77038  1.0000
  C   C4        1.0  0.0188  0.64602  0.79219  1.0000
  C   C5        1.0  0.8985600000000001  0.64239  0.77733  1.0000
  C   C6        1.0  0.88088  0.64904  0.74089  1.0000
  C   C7        1.0  0.9704599999999999  0.6662600000000001  0.6801  1.0000
  C   C8        1.0  0.2551799999999999  0.6508700000000001  0.7854099999999999  1.0000
  C   C9        1.0  0.79026  0.63072  0.80098  1.0000
  C   C10       1.0  0.94134  0.90597  0.6325  1.0000
  C   C11       1.0  0.02897000000000001  0.94792  0.63768  1.0000
  C   C12       1.0  0.98032  0.018490000000000006  0.64453  1.0000
  C   C13       1.0  0.8443  0.04761  0.64519  1.0000
  C   C14       1.0  0.7566499999999999  0.005169999999999999  0.64104  1.0000
  C   C15       1.0  0.8053299999999998  0.9342300000000001  0.63522  1.0000
  C   C16       1.0  0.98894  0.83066  0.62417  1.0000
  C   C17       1.0  0.07236999999999999  0.06358000000000001  0.65185  1.0000
  C   C18       1.0  0.6124799999999999  0.03469  0.64416  1.0000
  C   C19       1.0  0.54265  0.19554000000000002  0.78342  1.0000
  C   C20       1.0  0.64944  0.20286000000000007  0.76255  1.0000
  C   C21       1.0  0.63533  0.21083  0.7261  1.0000
  C   C22       1.0  0.5151799999999999  0.21010999999999996  0.71035  1.0000
  C   C23       1.0  0.4074499999999999  0.20457000000000006  0.7312699999999999  1.0000
  C   C24       1.0  0.42084999999999995  0.19799000000000003  0.76785  1.0000
  C   C25       1.0  0.55641  0.18579  0.82246  1.0000
  C   C26       1.0  0.74627  0.22176  0.70337  1.0000
  C   C27       1.0  0.2774399999999999  0.20921  0.71482  1.0000
  C   C28       1.0  0.5974699999999998  0.9600000000000001  0.87299  1.0000
  C   C29       1.0  0.7332799999999999  0.93368  0.86829  1.0000
  C   C30       1.0  0.78259  0.86543  0.8573599999999999  1.0000
  C   C31       1.0  0.69589  0.8237200000000002  0.8502999999999998  1.0000
  C   C32       1.0  0.5596800000000001  0.8510399999999999  0.8531100000000001  1.0000
  C   C33       1.0  0.5105399999999999  0.9189500000000002  0.8648799999999999  1.0000
  C   C34       1.0  0.54971  0.032970000000000006  0.8856099999999999  1.0000
  C   C35       1.0  0.92652  0.83746  0.85267  1.0000
  C   C36       1.0  0.46889999999999993  0.8064000000000002  0.84327  1.0000
  C   C37       1.0  0.5867399999999999  0.747  0.94934  1.0000
  C   C38       1.0  0.56528  0.77695  0.98256  1.0000
  C   C39       1.0  0.44137000000000004  0.78821  0.9986599999999999  1.0000
  C   C40       1.0  0.33652  0.77267  0.9805900000000001  1.0000
  C   C41       1.0  0.35605  0.74586  0.94662  1.0000
  C   C42       1.0  0.48187  0.7315  0.9312499999999999  1.0000
  C   C43       1.0  0.7215999999999999  0.7336100000000001  0.93421  1.0000
  C   C44       1.0  0.42691000000000007  0.81375  0.03566  1.0000
  C   C45       1.0  0.2429  0.73268  0.9263799999999999  1.0000
  C   C46       1.0  0.20696000000000006  0.50382  0.88915  1.0000
  C   C47       1.0  0.31222  0.53537  0.8844  1.0000
  C   C48       1.0  0.4418599999999998  0.4949700000000001  0.8848399999999998  1.0000
  C   C49       1.0  0.46534999999999993  0.42285  0.88908  1.0000
  C   C50       1.0  0.36014  0.39084  0.89216  1.0000
  C   C51       1.0  0.23055  0.43157  0.8926599999999999  1.0000
  C   C52       1.0  0.07043  0.54965  0.89087  1.0000
  C   C53       1.0  0.5547899999999997  0.5282400000000002  0.88303  1.0000
  C   C54       1.0  0.39150999999999997  0.31311000000000005  0.89488  1.0000
  C   C55       1.0  0.08354000000000002  0.79787  0.45719  1.0000
  C   C56       1.0  0.0776  0.7709  0.49117  1.0000
  C   C57       1.0  0.9588199999999999  0.76004  0.50447  1.0000
  C   C58       1.0  0.8441499999999997  0.77936  0.48436  1.0000
  C   C59       1.0  0.84947  0.80726  0.45052  1.0000
  C   C60       1.0  0.96971  0.81464  0.43654  1.0000
  C   C61       1.0  0.20929999999999999  0.81051  0.44353  1.0000
  C   C62       1.0  0.95855  0.72981  0.54078  1.0000
  C   C63       1.0  0.7270399999999999  0.8308300000000001  0.42899  1.0000
  C   C64       1.0  0.07893  0.37405  0.61828  1.0000
  C   C65       1.0  0.05528999999999996  0.44537  0.61126  1.0000
  C   C66       1.0  0.16037999999999988  0.4771500000000001  0.60823  1.0000
  C   C67       1.0  0.28978999999999994  0.437  0.61063  1.0000
  C   C68       1.0  0.314  0.36523  0.6163  1.0000
  C   C69       1.0  0.20852000000000004  0.33383  0.6209299999999999  1.0000
  C   C70       1.0  0.96438  0.34262  0.6214  1.0000
  C   C71       1.0  0.13101  0.55431  0.60372  1.0000
  C   C72       1.0  0.45239999999999997  0.3217400000000001  0.61694  1.0000
  C   C73       1.0  0.015069999999999991  0.34298  0.28084  1.0000
  C   C74       1.0  0.8925999999999998  0.34355  0.26608  1.0000
  C   C75       1.0  0.87597  0.34789  0.22962  1.0000
  C   C76       1.0  0.9811899999999999  0.35398  0.2078  1.0000
  C   C77       1.0  0.10142999999999999  0.35761  0.22267  1.0000
  C   C78       1.0  0.11910999999999998  0.35096  0.25911  1.0000
  C   C79       1.0  0.02953000000000001  0.33374  0.3199  1.0000
  C   C80       1.0  0.74482  0.34913  0.21458  1.0000
  C   C81       1.0  0.20974  0.36927  0.19902  1.0000
  C   C82       1.0  0.05865  0.09402  0.36749  1.0000
  C   C83       1.0  0.97101  0.05208  0.36232  1.0000
  C   C84       1.0  0.019659999999999945  0.9815100000000001  0.35547  1.0000
  C   C85       1.0  0.15569  0.95239  0.3548  1.0000
  C   C86       1.0  0.24333999999999995  0.9948300000000001  0.35896  1.0000
  C   C87       1.0  0.19465999999999997  0.06577  0.36478  1.0000
  C   C88       1.0  0.011049999999999999  0.16934  0.37583  1.0000
  C   C89       1.0  0.92762  0.9364200000000001  0.34814999999999996  1.0000
  C   C90       1.0  0.3874999999999997  0.9653  0.35584  1.0000
  C   C91       1.0  0.45734  0.80446  0.21657  1.0000
  C   C92       1.0  0.35055  0.7971400000000001  0.23745  1.0000
  C   C93       1.0  0.36465999999999993  0.7891700000000001  0.27389  1.0000
  C   C94       1.0  0.4848099999999999  0.78989  0.28964  1.0000
  C   C95       1.0  0.5925299999999998  0.79542  0.26873  1.0000
  C   C96       1.0  0.57913  0.80201  0.23215  1.0000
  C   C97       1.0  0.4435700000000001  0.81421  0.17753999999999998  1.0000
  C   C98       1.0  0.25372  0.7782400000000002  0.29662  1.0000
  C   C99       1.0  0.7225499999999998  0.7907900000000001  0.28518  1.0000
  C   C100      1.0  0.40251999999999966  0.04  0.12701  1.0000
  C   C101      1.0  0.26671  0.06632000000000002  0.13171  1.0000
  C   C102      1.0  0.21739999999999998  0.13457  0.14264  1.0000
  C   C103      1.0  0.3041  0.17628  0.1497  1.0000
  C   C104      1.0  0.44030999999999987  0.14895000000000003  0.14688  1.0000
  C   C105      1.0  0.4894499999999999  0.08105  0.13512  1.0000
  C   C106      1.0  0.4502799999999999  0.9670300000000001  0.11439  1.0000
  C   C107      1.0  0.07347  0.16254  0.14733  1.0000
  C   C108      1.0  0.53109  0.1936  0.15673  1.0000
  C   C109      1.0  0.41325  0.253  0.05066  1.0000
  C   C110      1.0  0.43471  0.22304000000000002  0.01743  1.0000
  C   C111      1.0  0.55862  0.21178  0.00134  1.0000
  C   C112      1.0  0.6634699999999999  0.22733  0.0194  1.0000
  C   C113      1.0  0.64394  0.25414  0.053369999999999994  1.0000
  C   C114      1.0  0.51812  0.26849  0.06875  1.0000
  C   C115      1.0  0.27839  0.26639  0.06579  1.0000
  C   C116      1.0  0.57308  0.18625  0.9643399999999999  1.0000
  C   C117      1.0  0.75708  0.26732  0.07362  1.0000
  C   C118      1.0  0.79303  0.49618000000000007  0.11084  1.0000
  C   C119      1.0  0.68777  0.46463  0.1156  1.0000
  C   C120      1.0  0.5581299999999999  0.50503  0.11515999999999998  1.0000
  C   C121      1.0  0.53464  0.57715  0.11092  1.0000
  C   C122      1.0  0.63985  0.60916  0.10784  1.0000
  C   C123      1.0  0.76944  0.56843  0.10733  1.0000
  C   C124      1.0  0.92956  0.45035  0.10913  1.0000
  C   C125      1.0  0.4452  0.47176  0.11696000000000001  1.0000
  C   C126      1.0  0.60848  0.68689  0.10511999999999999  1.0000
  C   C127      1.0  0.91644  0.20212  0.54281  1.0000
  C   C128      1.0  0.9223899999999999  0.22906999999999997  0.50883  1.0000
  C   C129      1.0  0.041159999999999995  0.23995  0.49553  1.0000
  C   C130      1.0  0.15581999999999993  0.22064000000000003  0.51564  1.0000
  C   C131      1.0  0.15051  0.19272  0.54947  1.0000
  C   C132      1.0  0.030279999999999994  0.18533  0.56346  1.0000
  C   C133      1.0  0.79066  0.18951  0.55647  1.0000
  C   C134      1.0  0.04141000000000001  0.27021  0.45921999999999996  1.0000
  C   C135      1.0  0.27294  0.16917  0.57101  1.0000
  C   C136      1.0  0.92106  0.62595  0.38172  1.0000
  C   C137      1.0  0.9447  0.55462  0.38874  1.0000
  C   C138      1.0  0.83961  0.52284  0.39176  1.0000
  C   C139      1.0  0.7101999999999999  0.563  0.38937  1.0000
  C   C140      1.0  0.68599  0.6347700000000001  0.38369  1.0000
  C   C141      1.0  0.79147  0.66617  0.37905999999999995  1.0000
  C   C142      1.0  0.03561000000000001  0.65738  0.3786  1.0000
  C   C143      1.0  0.8689799999999998  0.44569000000000003  0.39628  1.0000
  C   C144      1.0  0.5475899999999998  0.67826  0.38306  1.0000
  O   O1        1.0  0.8566399999999998  0.6699600000000001  0.6664399999999999  1.0000
  O   O2        1.0  0.07338999999999997  0.67016  0.66322  1.0000
  O   O3        1.0  0.35972999999999994  0.6229800000000001  0.76914  1.0000
  O   O4        1.0  0.26230000000000003  0.67685  0.8164  1.0000
  O   O5        1.0  0.81267  0.6298  0.83372  1.0000
  O   O6        1.0  0.68539  0.62291  0.78638  1.0000
  O   O7        1.0  0.90088  0.79776  0.6198599999999999  1.0000
  O   O8        1.0  0.11430000000000001  0.80519  0.6217  1.0000
  O   O9        1.0  0.19519  0.03378  0.6530099999999999  1.0000
  O   O10       1.0  0.01967000000000001  0.12751  0.6561799999999999  1.0000
  O   O11       1.0  0.56296  0.09844000000000001  0.63352  1.0000
  O   O12       1.0  0.53791  0.00010999999999999987  0.65783  1.0000
  O   O13       1.0  0.4566799999999999  0.17852  0.83974  1.0000
  O   O14       1.0  0.67032  0.18518000000000004  0.83541  1.0000
  O   O15       1.0  0.85238  0.22577999999999998  0.71865  1.0000
  O   O16       1.0  0.72547  0.22564  0.67046  1.0000
  O   O17       1.0  0.27086  0.18849000000000002  0.68277  1.0000
  O   O18       1.0  0.17235  0.23546  0.73142  1.0000
  O   O19       1.0  0.42453  0.05787  0.88875  1.0000
  O   O20       1.0  0.63772  0.06494  0.89223  1.0000
  O   O21       1.0  0.001439999999999992  0.8756700000000001  0.8436099999999999  1.0000
  O   O22       1.0  0.97471  0.77078  0.8575899999999999  1.0000
  O   O23       1.0  0.52361  0.74431  0.8352299999999999  1.0000
  O   O24       1.0  0.34526  0.83499  0.84375  1.0000
  O   O25       1.0  0.7606800000000001  0.68655  0.91073  1.0000
  O   O26       1.0  0.79934  0.76918  0.94449  1.0000
  O   O27       1.0  0.52497  0.8311800000000001  0.04869  1.0000
  O   O28       1.0  0.3171  0.81465  0.05155  1.0000
  O   O29       1.0  0.13378999999999996  0.7375  0.9427399999999999  1.0000
  O   O30       1.0  0.26191000000000003  0.71703  0.89411  1.0000
  O   O31       1.0  0.97482  0.5217100000000001  0.8973599999999999  1.0000
  O   O32       1.0  0.0608  0.61399  0.8852499999999999  1.0000
  O   O33       1.0  0.5424199999999999  0.5888  0.8681299999999998  1.0000
  O   O34       1.0  0.66271  0.49822  0.8975299999999999  1.0000
  O   O35       1.0  0.51251  0.28221  0.8941999999999999  1.0000
  O   O36       1.0  0.29543  0.28303  0.8974799999999999  1.0000
  O   O37       1.0  0.23036  0.80784  0.40957  1.0000
  O   O38       1.0  0.29371999999999987  0.8249100000000001  0.46359  1.0000
  O   O39       1.0  0.0695  0.71366  0.55591  1.0000
  O   O40       1.0  0.8486  0.72285  0.55382  1.0000
  O   O41       1.0  0.61742  0.8315  0.44437999999999994  1.0000
  O   O42       1.0  0.7432899999999999  0.84823  0.39742  1.0000
  O   O43       1.0  0.9753699999999993  0.28306  0.63716  1.0000
  O   O44       1.0  0.85563  0.3735  0.60766  1.0000
  O   O45       1.0  0.011430000000000001  0.58554  0.5989499999999999  1.0000
  O   O46       1.0  0.22877999999999998  0.58289  0.60575  1.0000
  O   O47       1.0  0.54495  0.3535  0.61467  1.0000
  O   O48       1.0  0.4690099999999999  0.25627  0.6198599999999999  1.0000
  O   O49       1.0  0.14335  0.33004  0.33356  1.0000
  O   O50       1.0  0.92659  0.32984  0.33678  1.0000
  O   O51       1.0  0.6402600000000002  0.37702  0.23086  1.0000
  O   O52       1.0  0.7376899999999998  0.32315  0.18359999999999999  1.0000
  O   O53       1.0  0.18732  0.3702  0.16627  1.0000
  O   O54       1.0  0.3146  0.37708  0.21362  1.0000
  O   O55       1.0  0.09910999999999995  0.20223000000000002  0.38014  1.0000
  O   O56       1.0  0.8857  0.19481  0.37828999999999996  1.0000
  O   O57       1.0  0.8048  0.96622  0.34699  1.0000
  O   O58       1.0  0.98032  0.8724900000000001  0.34381  1.0000
  O   O59       1.0  0.43703  0.90156  0.36647  1.0000
  O   O60       1.0  0.46206999999999987  0.99988  0.34217  1.0000
  O   O61       1.0  0.5433099999999997  0.82148  0.16025  1.0000
  O   O62       1.0  0.32967  0.81481  0.16459  1.0000
  O   O63       1.0  0.1476  0.77422  0.28135  1.0000
  O   O64       1.0  0.27451999999999993  0.7743600000000002  0.32954  1.0000
  O   O65       1.0  0.72913  0.81151  0.31722  1.0000
  O   O66       1.0  0.8276399999999998  0.76454  0.26858  1.0000
  O   O67       1.0  0.5754599999999999  0.94213  0.11124999999999999  1.0000
  O   O68       1.0  0.36226999999999987  0.93506  0.10776999999999999  1.0000
  O   O69       1.0  0.99855  0.12433000000000001  0.15639  1.0000
  O   O70       1.0  0.025279999999999987  0.22922  0.14241  1.0000
  O   O71       1.0  0.47637999999999997  0.25569  0.16477  1.0000
  O   O72       1.0  0.65473  0.16501  0.15625  1.0000
  O   O73       1.0  0.23931  0.31345  0.08926999999999999  1.0000
  O   O74       1.0  0.20063999999999999  0.23083000000000004  0.05550999999999999  1.0000
  O   O75       1.0  0.47502  0.16882  0.9513099999999999  1.0000
  O   O76       1.0  0.68289  0.18535  0.94845  1.0000
  O   O77       1.0  0.8661999999999999  0.26250000000000007  0.05726  1.0000
  O   O78       1.0  0.7380699999999999  0.28297  0.10589  1.0000
  O   O79       1.0  0.025169999999999984  0.47829000000000005  0.10264  1.0000
  O   O80       1.0  0.9391899999999997  0.38601  0.11475  1.0000
  O   O81       1.0  0.4575699999999999  0.4112  0.13186  1.0000
  O   O82       1.0  0.33727999999999997  0.50178  0.10247  1.0000
  O   O83       1.0  0.4874800000000001  0.71779  0.10578999999999998  1.0000
  O   O84       1.0  0.7045599999999997  0.71697  0.10252  1.0000
  O   O85       1.0  0.76964  0.19215000000000002  0.59042  1.0000
  O   O86       1.0  0.7061900000000001  0.17516  0.53641  1.0000
  O   O87       1.0  0.93046  0.28633  0.44409  1.0000
  O   O88       1.0  0.15132  0.27726  0.44619  1.0000
  O   O89       1.0  0.38256  0.1685  0.55562  1.0000
  O   O90       1.0  0.2567  0.15177  0.60258  1.0000
  O   O91       1.0  0.024620000000000027  0.71694  0.36283  1.0000
  O   O92       1.0  0.14436  0.62649  0.39234  1.0000
  O   O93       1.0  0.9885699999999998  0.41447  0.40105  1.0000
  O   O94       1.0  0.7712099999999998  0.41711000000000004  0.39425  1.0000
  O   O95       1.0  0.45504999999999984  0.6464900000000001  0.38532  1.0000
  O   O96       1.0  0.53097  0.74373  0.38014  1.0000
