data_image0
_chemical_formula_structural       Ni4H78C126N24O12
_chemical_formula_sum              "Ni4 H78 C126 N24 O12"
_cell_length_a       14.06548
_cell_length_b       16.98755
_cell_length_c       16.97409
_cell_angle_alpha    120.12733000000001
_cell_angle_beta     90.15304
_cell_angle_gamma    89.91228999999998

_space_group_name_H-M_alt    "P 1"
_space_group_IT_number       1

loop_
  _space_group_symop_operation_xyz
  'x, y, z'

loop_
  _atom_site_type_symbol
  _atom_site_label
  _atom_site_symmetry_multiplicity
  _atom_site_fract_x
  _atom_site_fract_y
  _atom_site_fract_z
  _atom_site_occupancy
  Ni  Ni1       1.0  0.89401  0.33135999999999977  0.6653099999999997  1.0000
  Ni  Ni2       1.0  0.6059900000000003  0.33173999999999987  0.6642499999999998  1.0000
  Ni  Ni3       1.0  0.10607000000000003  0.6686399999999999  0.3346  1.0000
  Ni  Ni4       1.0  0.39387  0.66843  0.3354299999999999  1.0000
  H   H1        1.0  0.60621  0.06929999999999993  0.49319999999999997  1.0000
  H   H2        1.0  0.58474  0.78245  0.4312  1.0000
  H   H3        1.0  0.34237  0.76853  0.21056999999999998  1.0000
  H   H4        1.0  0.33829  0.89117  0.16815999999999998  1.0000
  H   H5        1.0  0.45497  0.01756999999999995  0.23391999999999993  1.0000
  H   H6        1.0  0.5793  0.026990000000000004  0.34237  1.0000
  H   H7        1.0  0.6061000000000001  0.42258  0.92852  1.0000
  H   H8        1.0  0.58772  0.6469699999999998  0.21788999999999994  1.0000
  H   H9        1.0  0.34549  0.44177  0.23169999999999993  1.0000
  H   H10       1.0  0.3392600000000001  0.27669  0.10789999999999998  1.0000
  H   H11       1.0  0.45475  0.21508999999999984  0.9806499999999998  1.0000
  H   H12       1.0  0.5786900000000001  0.31343999999999983  0.9704499999999998  1.0000
  H   H13       1.0  0.60589  0.50646  0.57632  1.0000
  H   H14       1.0  0.5859700000000001  0.57126  0.3520799999999999  1.0000
  H   H15       1.0  0.34390000000000004  0.7906799999999999  0.55883  1.0000
  H   H16       1.0  0.3386  0.83167  0.72378  1.0000
  H   H17       1.0  0.45493000000000006  0.76558  0.7845199999999999  1.0000
  H   H18       1.0  0.57866  0.6568699999999997  0.6853399999999997  1.0000
  H   H19       1.0  0.89384  0.42375  0.49378  1.0000
  H   H20       1.0  0.9124  0.64724  0.4292299999999999  1.0000
  H   H21       1.0  0.15507  0.4415799999999998  0.20995999999999995  1.0000
  H   H22       1.0  0.16131  0.27668  0.16859  1.0000
  H   H23       1.0  0.045630000000000004  0.21550999999999995  0.23423  1.0000
  H   H24       1.0  0.9214600000000001  0.314  0.34271  1.0000
  H   H25       1.0  0.89386  0.5059299999999999  0.9288399999999998  1.0000
  H   H26       1.0  0.91361  0.57109  0.21843999999999994  1.0000
  H   H27       1.0  0.15568000000000004  0.79045  0.23207999999999995  1.0000
  H   H28       1.0  0.16111  0.83131  0.10824999999999999  1.0000
  H   H29       1.0  0.04477000000000001  0.7653299999999998  0.9811599999999998  1.0000
  H   H30       1.0  0.9211000000000003  0.6565799999999999  0.9710699999999998  1.0000
  H   H31       1.0  0.89431  0.06889000000000002  0.57606  1.0000
  H   H32       1.0  0.9148700000000002  0.78161  0.35123  1.0000
  H   H33       1.0  0.15694  0.7685799999999999  0.5583499999999999  1.0000
  H   H34       1.0  0.16148  0.8919299999999996  0.7237399999999998  1.0000
  H   H35       1.0  0.045090000000000005  0.01863999999999991  0.7845399999999998  1.0000
  H   H36       1.0  0.92087  0.027739999999999963  0.6853699999999999  1.0000
  H   H37       1.0  0.39351  0.9305  0.50662  1.0000
  H   H38       1.0  0.41487  0.21751999999999988  0.5688499999999997  1.0000
  H   H39       1.0  0.65751  0.23142  0.78928  1.0000
  H   H40       1.0  0.66168  0.10873000000000001  0.83167  1.0000
  H   H41       1.0  0.54502  0.9823199999999999  0.76599  1.0000
  H   H42       1.0  0.4205000000000001  0.973  0.65777  1.0000
  H   H43       1.0  0.39398  0.57724  0.07135  1.0000
  H   H44       1.0  0.41218000000000005  0.35302999999999995  0.78192  1.0000
  H   H45       1.0  0.65458  0.5582099999999999  0.7683099999999999  1.0000
  H   H46       1.0  0.6609  0.7233  0.89224  1.0000
  H   H47       1.0  0.54522  0.78492  0.019339999999999993  1.0000
  H   H48       1.0  0.42121  0.68664  0.02944  1.0000
  H   H49       1.0  0.39428  0.49398999999999993  0.42374  1.0000
  H   H50       1.0  0.41411  0.42923  0.64794  1.0000
  H   H51       1.0  0.65614  0.2096099999999999  0.4413699999999999  1.0000
  H   H52       1.0  0.66144  0.16834999999999992  0.2763199999999999  1.0000
  H   H53       1.0  0.54507  0.2342  0.21536  1.0000
  H   H54       1.0  0.4213700000000001  0.3429799999999999  0.31444  1.0000
  H   H55       1.0  0.10616  0.5763699999999999  0.5059899999999998  1.0000
  H   H56       1.0  0.08779  0.35282  0.57049  1.0000
  H   H57       1.0  0.8450500000000002  0.55825  0.7898499999999998  1.0000
  H   H58       1.0  0.83874  0.7232099999999999  0.8314099999999998  1.0000
  H   H59       1.0  0.95432  0.7845399999999999  0.7658599999999998  1.0000
  H   H60       1.0  0.07857  0.6862  0.65737  1.0000
  H   H61       1.0  0.10623  0.49404  0.07109999999999997  1.0000
  H   H62       1.0  0.08654  0.4286599999999999  0.7814899999999999  1.0000
  H   H63       1.0  0.84432  0.2094699999999998  0.7679999999999998  1.0000
  H   H64       1.0  0.83891  0.16869  0.8919  1.0000
  H   H65       1.0  0.95517  0.23479  0.01905  1.0000
  H   H66       1.0  0.07905  0.34327  0.028949999999999997  1.0000
  H   H67       1.0  0.1053  0.93107  0.42409999999999987  1.0000
  H   H68       1.0  0.08494  0.2184199999999999  0.6488199999999997  1.0000
  H   H69       1.0  0.84282  0.23145999999999997  0.44177  1.0000
  H   H70       1.0  0.83826  0.1081  0.27634  1.0000
  H   H71       1.0  0.95487  0.98157  0.21544999999999995  1.0000
  H   H72       1.0  0.0791  0.9724  0.31455  1.0000
  H   H73       1.0  0.7498  0.8133499999999997  0.40669  1.0000
  H   H74       1.0  0.75053  0.5916299999999998  0.18449  1.0000
  H   H75       1.0  0.74936  0.59207  0.40664  1.0000
  H   H76       1.0  0.24995  0.18652000000000005  0.59351  1.0000
  H   H77       1.0  0.24957  0.4081599999999999  0.8153899999999997  1.0000
  H   H78       1.0  0.25079  0.4081199999999998  0.5931399999999998  1.0000
  C   C1        1.0  0.6688  0.030759999999999923  0.4910999999999999  1.0000
  C   C2        1.0  0.6694500000000001  0.93606  0.44331  1.0000
  C   C3        1.0  0.55451  0.80848  0.3901099999999999  1.0000
  C   C4        1.0  0.46231  0.8302999999999998  0.29997999999999997  1.0000
  C   C5        1.0  0.3926100000000001  0.8248  0.23824999999999993  1.0000
  C   C6        1.0  0.39171  0.8931799999999998  0.21564  1.0000
  C   C7        1.0  0.45819  0.9651399999999999  0.2528  1.0000
  C   C8        1.0  0.52834  0.97137  0.31402  1.0000
  C   C9        1.0  0.52882  0.9029699999999998  0.33698  1.0000
  C   C10       1.0  0.6689  0.4587499999999998  0.9669699999999998  1.0000
  C   C11       1.0  0.66994  0.5054699999999998  0.06179  1.0000
  C   C12       1.0  0.55721  0.57989  0.19140999999999994  1.0000
  C   C13       1.0  0.46489  0.46837999999999996  0.16923999999999997  1.0000
  C   C14       1.0  0.39499  0.4127  0.17486  1.0000
  C   C15       1.0  0.3928800000000001  0.3217399999999999  0.10583999999999998  1.0000
  C   C16       1.0  0.4585  0.2865  0.03325  1.0000
  C   C17       1.0  0.52846  0.34115  0.026599999999999995  1.0000
  C   C18       1.0  0.52985  0.4325799999999999  0.09535  1.0000
  C   C19       1.0  0.66849  0.5087299999999999  0.5401699999999998  1.0000
  C   C20       1.0  0.66915  0.5566  0.4933999999999999  1.0000
  C   C21       1.0  0.5558  0.61184  0.41932999999999987  1.0000
  C   C22       1.0  0.46345  0.7013  0.53141  1.0000
  C   C23       1.0  0.3937  0.7627299999999998  0.5875699999999999  1.0000
  C   C24       1.0  0.3922000000000001  0.78452  0.67844  1.0000
  C   C25       1.0  0.4582500000000001  0.7469399999999998  0.7131899999999998  1.0000
  C   C26       1.0  0.52813  0.68558  0.65805  1.0000
  C   C27       1.0  0.52898  0.6631199999999999  0.5667199999999998  1.0000
  C   C28       1.0  0.83102  0.45972  0.49132  1.0000
  C   C29       1.0  0.8299200000000002  0.5061599999999999  0.4432199999999999  1.0000
  C   C30       1.0  0.943  0.58015  0.3884799999999999  1.0000
  C   C31       1.0  0.03548  0.46846999999999983  0.2990599999999999  1.0000
  C   C32       1.0  0.1055  0.41268  0.23771999999999993  1.0000
  C   C33       1.0  0.10757000000000001  0.32182  0.2157  1.0000
  C   C34       1.0  0.04183  0.28682  0.25302  1.0000
  C   C35       1.0  0.97167  0.34154999999999996  0.31424  1.0000
  C   C36       1.0  0.9702400000000002  0.43287  0.33693  1.0000
  C   C37       1.0  0.8312800000000002  0.5080699999999999  0.9672299999999998  1.0000
  C   C38       1.0  0.83068  0.55602  0.06206  1.0000
  C   C39       1.0  0.9437900000000002  0.61159  0.19185  1.0000
  C   C40       1.0  0.03607  0.7010799999999998  0.1697  1.0000
  C   C41       1.0  0.10590000000000002  0.76246  0.17523999999999998  1.0000
  C   C42       1.0  0.10748  0.7842  0.10623  1.0000
  C   C43       1.0  0.04145  0.7466599999999998  0.03374  1.0000
  C   C44       1.0  0.9716100000000002  0.68526  0.027179999999999996  1.0000
  C   C45       1.0  0.97073  0.6627099999999998  0.09587  1.0000
  C   C46       1.0  0.83146  0.030639999999999952  0.5398299999999999  1.0000
  C   C47       1.0  0.8304400000000002  0.9359499999999997  0.49303  1.0000
  C   C48       1.0  0.94493  0.8079  0.41858  1.0000
  C   C49       1.0  0.03712  0.8303199999999997  0.5309  1.0000
  C   C50       1.0  0.1069  0.82504  0.5871399999999998  1.0000
  C   C51       1.0  0.10801000000000002  0.8937999999999997  0.6782499999999999  1.0000
  C   C52       1.0  0.0417  0.9659199999999999  0.71311  1.0000
  C   C53       1.0  0.9715900000000002  0.9719399999999999  0.65799  1.0000
  C   C54       1.0  0.9709300000000002  0.90322  0.56647  1.0000
  C   C55       1.0  0.33091  0.96909  0.50887  1.0000
  C   C56       1.0  0.33029  0.06380000000000004  0.55676  1.0000
  C   C57       1.0  0.4452100000000001  0.19143000000000002  0.60987  1.0000
  C   C58       1.0  0.53751  0.16962  0.69995  1.0000
  C   C59       1.0  0.60729  0.1751099999999999  0.7616399999999999  1.0000
  C   C60       1.0  0.60818  0.1067399999999999  0.7842599999999997  1.0000
  C   C61       1.0  0.54171  0.03476999999999986  0.7471299999999997  1.0000
  C   C62       1.0  0.47145  0.028610000000000024  0.68604  1.0000
  C   C63       1.0  0.47099  0.09694999999999984  0.6630099999999998  1.0000
  C   C64       1.0  0.3312  0.54109  0.03284  1.0000
  C   C65       1.0  0.33011  0.49443  0.93805  1.0000
  C   C66       1.0  0.44277000000000005  0.42011  0.80844  1.0000
  C   C67       1.0  0.53508  0.53168  0.83072  1.0000
  C   C68       1.0  0.60507  0.58733  0.82516  1.0000
  C   C69       1.0  0.6071700000000001  0.6782799999999999  0.8942099999999998  1.0000
  C   C70       1.0  0.54147  0.7135199999999999  0.9667399999999998  1.0000
  C   C71       1.0  0.47145  0.6588899999999999  0.9733099999999998  1.0000
  C   C72       1.0  0.4701  0.5674399999999997  0.9045999999999997  1.0000
  C   C73       1.0  0.33167  0.49160999999999994  0.45983  1.0000
  C   C74       1.0  0.33099  0.4436399999999998  0.5064699999999998  1.0000
  C   C75       1.0  0.4443  0.38856999999999986  0.5806899999999998  1.0000
  C   C76       1.0  0.53659  0.29894  0.46858  1.0000
  C   C77       1.0  0.6063700000000001  0.23745999999999998  0.41249  1.0000
  C   C78       1.0  0.60783  0.21551999999999993  0.32159  1.0000
  C   C79       1.0  0.54176  0.25298  0.28674  1.0000
  C   C80       1.0  0.4719  0.3144  0.34183  1.0000
  C   C81       1.0  0.47111  0.33709  0.4332299999999999  1.0000
  C   C82       1.0  0.16901  0.54051  0.50861  1.0000
  C   C83       1.0  0.17010000000000006  0.4939699999999999  0.5566099999999999  1.0000
  C   C84       1.0  0.05708  0.4198599999999999  0.61127  1.0000
  C   C85       1.0  0.9645800000000002  0.53146  0.7007399999999998  1.0000
  C   C86       1.0  0.89458  0.5872199999999997  0.7621399999999999  1.0000
  C   C87       1.0  0.89247  0.6781099999999997  0.7842599999999997  1.0000
  C   C88       1.0  0.95817  0.71322  0.7470099999999997  1.0000
  C   C89       1.0  0.028340000000000004  0.65855  0.68576  1.0000
  C   C90       1.0  0.02979  0.5671899999999999  0.6629499999999998  1.0000
  C   C91       1.0  0.16879  0.49171  0.0326  1.0000
  C   C92       1.0  0.1694  0.4437599999999998  0.9377899999999998  1.0000
  C   C93       1.0  0.056250000000000015  0.38819  0.80807  1.0000
  C   C94       1.0  0.9638900000000001  0.29887999999999987  0.8303499999999998  1.0000
  C   C95       1.0  0.8940700000000003  0.23750999999999992  0.8248599999999998  1.0000
  C   C96       1.0  0.89251  0.2158099999999999  0.8938999999999998  1.0000
  C   C97       1.0  0.95853  0.2533699999999999  0.9663999999999998  1.0000
  C   C98       1.0  0.028450000000000003  0.3146699999999999  0.97288  1.0000
  C   C99       1.0  0.02928  0.33717999999999976  0.9041499999999998  1.0000
  C   C100      1.0  0.16814000000000004  0.96941  0.46028  1.0000
  C   C101      1.0  0.16925  0.06406999999999996  0.5071  1.0000
  C   C102      1.0  0.05478  0.19208999999999996  0.5815  1.0000
  C   C103      1.0  0.96263  0.16969999999999993  0.4691799999999999  1.0000
  C   C104      1.0  0.8929  0.1750299999999999  0.41293999999999986  1.0000
  C   C105      1.0  0.8918  0.10629999999999996  0.32181  1.0000
  C   C106      1.0  0.95818  0.034240000000000013  0.2869  1.0000
  C   C107      1.0  0.0283  0.028169999999999966  0.342  1.0000
  C   C108      1.0  0.02889  0.09683999999999998  0.43356  1.0000
  C   C109      1.0  0.75056  0.17993999999999996  0.58939  1.0000
  C   C110      1.0  0.75026  0.07842  0.5391899999999998  1.0000
  C   C111      1.0  0.74989  0.88727  0.4437699999999999  1.0000
  C   C112      1.0  0.7499600000000002  0.40877999999999987  0.8173499999999998  1.0000
  C   C113      1.0  0.75002  0.45959  0.91938  1.0000
  C   C114      1.0  0.75043  0.55489  0.11054  1.0000
  C   C115      1.0  0.75014  0.40951999999999983  0.5902699999999997  1.0000
  C   C116      1.0  0.74976  0.46033  0.53939  1.0000
  C   C117      1.0  0.74946  0.5554799999999998  0.44385999999999987  1.0000
  C   C118      1.0  0.24871  0.8201199999999998  0.4105199999999999  1.0000
  C   C119      1.0  0.24934  0.9216099999999999  0.4607999999999999  1.0000
  C   C120      1.0  0.24984  0.11261999999999996  0.55638  1.0000
  C   C121      1.0  0.25013  0.59104  0.18231999999999998  1.0000
  C   C122      1.0  0.25004  0.54028  0.08035999999999997  1.0000
  C   C123      1.0  0.24966  0.4449  0.88933  1.0000
  C   C124      1.0  0.24999000000000005  0.5908  0.4098699999999999  1.0000
  C   C125      1.0  0.25031  0.5398599999999999  0.46056999999999987  1.0000
  C   C126      1.0  0.25065  0.4447299999999998  0.5559599999999998  1.0000
  N   N1        1.0  0.58744  0.88672  0.39416  1.0000
  N   N2        1.0  0.48045000000000004  0.77287  0.33502999999999994  1.0000
  N   N3        1.0  0.58849  0.50586  0.11150999999999998  1.0000
  N   N4        1.0  0.48433  0.56039  0.22779999999999997  1.0000
  N   N5        1.0  0.5874700000000002  0.6059899999999999  0.49314999999999987  1.0000
  N   N6        1.0  0.4823600000000001  0.6677399999999998  0.43925  1.0000
  N   N7        1.0  0.91146  0.50623  0.39394  1.0000
  N   N8        1.0  0.01616  0.5604899999999998  0.3327999999999999  1.0000
  N   N9        1.0  0.9123000000000002  0.6054799999999998  0.11193999999999997  1.0000
  N   N10       1.0  0.016940000000000004  0.6677099999999998  0.22823  1.0000
  N   N11       1.0  0.91233  0.8865899999999995  0.49283  1.0000
  N   N12       1.0  0.018749999999999996  0.77233  0.43835  1.0000
  N   N13       1.0  0.41227  0.11321999999999982  0.6059199999999998  1.0000
  N   N14       1.0  0.51936  0.227  0.66483  1.0000
  N   N15       1.0  0.41148  0.49413  0.8883499999999998  1.0000
  N   N16       1.0  0.51563  0.4396899999999999  0.7721  1.0000
  N   N17       1.0  0.41267  0.39432  0.50679  1.0000
  N   N18       1.0  0.51765  0.33258  0.56076  1.0000
  N   N19       1.0  0.08859  0.49384  0.60588  1.0000
  N   N20       1.0  0.98396  0.43944  0.66695  1.0000
  N   N21       1.0  0.08778  0.39428999999999986  0.8879499999999998  1.0000
  N   N22       1.0  0.98302  0.33218  0.77176  1.0000
  N   N23       1.0  0.08742  0.11344999999999994  0.5072499999999999  1.0000
  N   N24       1.0  0.98093  0.22764000000000006  0.56177  1.0000
  O   O1        1.0  0.81551  0.21833999999999998  0.64934  1.0000
  O   O2        1.0  0.81864  0.4262699999999999  0.7796999999999998  1.0000
  O   O3        1.0  0.8185500000000001  0.35364999999999996  0.5719799999999999  1.0000
  O   O4        1.0  0.6820300000000002  0.42752  0.64621  1.0000
  O   O5        1.0  0.68113  0.35364999999999996  0.77905  1.0000
  O   O6        1.0  0.68588  0.2182  0.56752  1.0000
  O   O7        1.0  0.18287  0.78202  0.3513799999999999  1.0000
  O   O8        1.0  0.18158000000000005  0.57331  0.21992  1.0000
  O   O9        1.0  0.18158000000000005  0.6467  0.42826  1.0000
  O   O10       1.0  0.3178  0.57255  0.35359  1.0000
  O   O11       1.0  0.31858000000000003  0.6466899999999998  0.22063999999999995  1.0000
  O   O12       1.0  0.31382  0.7817099999999999  0.4317199999999999  1.0000
