data_image0
_chemical_formula_structural       Cu3H120C102N24O12
_chemical_formula_sum              "Cu3 H120 C102 N24 O12"
_cell_length_a       12.03298
_cell_length_b       12.056150000000002
_cell_length_c       20.331430000000005
_cell_angle_alpha    90.13718000000001
_cell_angle_beta     89.7271
_cell_angle_gamma    120.27133000000002

_symmetry_space_group_name_H-M    'P 1'
_symmetry_Int_Tables_number       1

loop_
  _symmetry_equiv_pos_as_xyz
  'x,y,z'

loop_
  _atom_site_type_symbol
  _atom_site_label
  _atom_site_symmetry_multiplicity
  _atom_site_fract_x
  _atom_site_fract_y
  _atom_site_fract_z
  _atom_site_occupancy
  Cu  Cu1       1.0  0.59533  0.59545  0.00107  1.0000
  Cu  Cu2       1.0  0.4007200000000001  4.000000000000001e-05  0.66773  1.0000
  Cu  Cu3       1.0  5.0000000000003106e-05  0.40337  0.33365  1.0000
  H   H1        1.0  0.48563  0.72339  0.08943  1.0000
  H   H2        1.0  0.7665600000000001  0.8714099999999999  0.24514  1.0000
  H   H3        1.0  0.92209  0.8584699999999998  0.16656  1.0000
  H   H4        1.0  0.84826  0.77371  0.05301  1.0000
  H   H5        1.0  0.4278399999999999  0.75292  0.19341999999999995  1.0000
  H   H6        1.0  0.33914999999999995  0.7753299999999999  0.29856999999999995  1.0000
  H   H7        1.0  0.48438  0.05014  0.24383999999999997  1.0000
  H   H8        1.0  0.34967999999999994  0.9150899999999998  0.20911  1.0000
  H   H9        1.0  0.3495  0.05222999999999999  0.33602  1.0000
  H   H10       1.0  0.24078  0.0632  0.20168999999999998  1.0000
  H   H11       1.0  0.39021  0.18434999999999999  0.23314999999999994  1.0000
  H   H12       1.0  0.24607000000000004  0.14738  0.27455  1.0000
  H   H13       1.0  0.10900999999999995  0.92623  0.32613  1.0000
  H   H14       1.0  0.17543999999999993  0.82743  0.34095  1.0000
  H   H15       1.0  0.1230499999999999  0.8360899999999999  0.26076  1.0000
  H   H16       1.0  0.5182  0.013939999999999998  0.36908  1.0000
  H   H17       1.0  0.3465899999999999  0.8074099999999997  0.54461  1.0000
  H   H18       1.0  0.65561  0.12227999999999999  0.6326  1.0000
  H   H19       1.0  0.7820199999999998  0.18416  0.52847  1.0000
  H   H20       1.0  0.68032  0.05646  0.42584999999999995  1.0000
  H   H21       1.0  0.2756  0.76246  0.7551099999999998  1.0000
  H   H22       1.0  0.11874999999999986  0.8858299999999999  0.9114299999999999  1.0000
  H   H23       1.0  0.1327  0.05588  0.83451  1.0000
  H   H24       1.0  0.22136  0.0716  0.72113  1.0000
  H   H25       1.0  0.24280000000000007  0.67149  0.85832  1.0000
  H   H26       1.0  0.22265  0.56051  0.9621399999999999  1.0000
  H   H27       1.0  0.94189  0.4215  0.91438  1.0000
  H   H28       1.0  0.07577  0.4319  0.87245  1.0000
  H   H29       1.0  0.96966  0.2925  0.00313  1.0000
  H   H30       1.0  0.92316  0.17222  0.8655199999999998  1.0000
  H   H31       1.0  0.80961  0.19151  0.9122399999999999  1.0000
  H   H32       1.0  0.8652400000000001  0.09038  0.94159  1.0000
  H   H33       1.0  0.09891999999999998  0.18802999999999997  0.97848  1.0000
  H   H34       1.0  0.19883999999999996  0.35597999999999996  0.9857199999999999  1.0000
  H   H35       1.0  0.16291999999999995  0.28425  0.90697  1.0000
  H   H36       1.0  0.98478  0.49794  0.0351  1.0000
  H   H37       1.0  0.19574000000000003  0.54017  0.20956  1.0000
  H   H38       1.0  0.88639  0.5415599999999999  0.29975  1.0000
  H   H39       1.0  0.8211500000000002  0.59987  0.19539  1.0000
  H   H40       1.0  0.9448200000000001  0.61911  0.09153  1.0000
  H   H41       1.0  0.23668  0.51522  0.42203  1.0000
  H   H42       1.0  0.108  0.23119999999999996  0.5763  1.0000
  H   H43       1.0  0.9397300000000001  0.07576  0.4981899999999999  1.0000
  H   H44       1.0  0.92753  0.15019  0.38512  1.0000
  H   H45       1.0  0.32401  0.57196  0.5259499999999999  1.0000
  H   H46       1.0  0.43475  0.65912  0.6313  1.0000
  H   H47       1.0  0.5711199999999999  0.5182999999999999  0.57941  1.0000
  H   H48       1.0  0.56565  0.64666  0.54101  1.0000
  H   H49       1.0  0.70195  0.66613  0.67063  1.0000
  H   H50       1.0  0.82506  0.7521199999999999  0.5339699999999998  1.0000
  H   H51       1.0  0.79948  0.61221  0.5753199999999999  1.0000
  H   H52       1.0  0.90474  0.76502  0.60942  1.0000
  H   H53       1.0  0.81312  0.90316  0.65213  1.0000
  H   H54       1.0  0.6455599999999999  0.8364799999999999  0.66137  1.0000
  H   H55       1.0  0.7158000000000001  0.8787  0.58206  1.0000
  H   H56       1.0  0.49434  0.48055  0.7012999999999999  1.0000
  H   H57       1.0  0.45958999999999994  0.65114  0.8782  1.0000
  H   H58       1.0  0.46432  0.34183  0.96482  1.0000
  H   H59       1.0  0.40177  0.21801  0.86022  1.0000
  H   H60       1.0  0.37706  0.32109  0.7580999999999999  1.0000
  H   H61       1.0  0.7255600000000001  0.48904999999999993  0.91322  1.0000
  H   H62       1.0  0.8716900000000001  0.76801  0.75629  1.0000
  H   H63       1.0  0.85669  0.92278  0.83391  1.0000
  H   H64       1.0  0.77241  0.85003  0.9478899999999998  1.0000
  H   H65       1.0  0.75306  0.43008  0.8092999999999999  1.0000
  H   H66       1.0  0.77548  0.34194  0.7033399999999999  1.0000
  H   H67       1.0  0.052399999999999974  0.48383999999999994  0.7560499999999999  1.0000
  H   H68       1.0  0.91668  0.35399  0.7937499999999997  1.0000
  H   H69       1.0  0.03839999999999999  0.33796  0.66435  1.0000
  H   H70       1.0  0.07159999999999997  0.24954999999999997  0.80052  1.0000
  H   H71       1.0  0.18736  0.39226  0.7609  1.0000
  H   H72       1.0  0.14254  0.24155  0.7251499999999999  1.0000
  H   H73       1.0  0.9131  0.10068  0.68254  1.0000
  H   H74       1.0  0.8107400000000001  0.16468  0.67285  1.0000
  H   H75       1.0  0.83725  0.12311  0.75227  1.0000
  H   H76       1.0  0.015599999999999937  0.5212699999999999  0.6330699999999999  1.0000
  H   H77       1.0  0.8073  0.34651  0.45710999999999996  1.0000
  H   H78       1.0  0.11908  0.65686  0.36747  1.0000
  H   H79       1.0  0.18235  0.78293  0.47165  1.0000
  H   H80       1.0  0.05707000000000002  0.68037  0.57492  1.0000
  H   H81       1.0  0.76464  0.28157  0.24479  1.0000
  H   H82       1.0  0.8870900000000002  0.12133  0.08989  1.0000
  H   H83       1.0  0.055970000000000006  0.13416  0.16737999999999997  1.0000
  H   H84       1.0  0.0721  0.22456  0.28003  1.0000
  H   H85       1.0  0.67383  0.24772999999999998  0.14187999999999998  1.0000
  H   H86       1.0  0.56249  0.22682  0.03709  1.0000
  H   H87       1.0  0.42726  0.94835  0.0876  1.0000
  H   H88       1.0  0.43433  0.08179  0.12765999999999997  1.0000
  H   H89       1.0  0.2956699999999998  0.9697899999999999  0.9977  1.0000
  H   H90       1.0  0.17401  0.92049  0.13531  1.0000
  H   H91       1.0  0.20078000000000007  0.81077  0.08983  1.0000
  H   H92       1.0  0.09381999999999995  0.85839  0.05936  1.0000
  H   H93       1.0  0.18111000000000002  0.08980999999999999  0.02276  1.0000
  H   H94       1.0  0.34777  0.19493  0.0122  1.0000
  H   H95       1.0  0.28093  0.16091  0.0923  1.0000
  H   H96       1.0  0.49922  0.98832  0.9656999999999999  1.0000
  H   H97       1.0  0.54194  0.19649  0.7898599999999999  1.0000
  H   H98       1.0  0.53488  0.88162  0.70238  1.0000
  H   H99       1.0  0.5953100000000002  0.81887  0.8068199999999999  1.0000
  H   H100      1.0  0.61989  0.94636  0.9093899999999999  1.0000
  H   H101      1.0  0.5128000000000001  0.23715  0.57921  1.0000
  H   H102      1.0  0.23093999999999998  0.10644999999999999  0.42409999999999987  1.0000
  H   H103      1.0  0.07487999999999999  0.9373299999999999  0.50219  1.0000
  H   H104      1.0  0.14835999999999994  0.9251699999999999  0.6154  1.0000
  H   H105      1.0  0.5708000000000002  0.32602  0.47609999999999997  1.0000
  H   H106      1.0  0.66005  0.43708  0.37039999999999995  1.0000
  H   H107      1.0  0.51848  0.57088  0.42467999999999995  1.0000
  H   H108      1.0  0.6494400000000002  0.56669  0.46087  1.0000
  H   H109      1.0  0.66055  0.70322  0.3323499999999999  1.0000
  H   H110      1.0  0.75957  0.8260599999999999  0.46761  1.0000
  H   H111      1.0  0.61612  0.80162  0.43064  1.0000
  H   H112      1.0  0.76602  0.90515  0.39285  1.0000
  H   H113      1.0  0.89926  0.81216  0.3447799999999999  1.0000
  H   H114      1.0  0.82946  0.6447199999999998  0.3352  1.0000
  H   H115      1.0  0.87982  0.71449  0.41407  1.0000
  H   H116      1.0  0.48049000000000003  0.49563  0.30089  1.0000
  H   H117      1.0  0.65329  0.46077999999999997  0.12377  1.0000
  H   H118      1.0  0.34196  0.46152999999999994  0.03686  1.0000
  H   H119      1.0  0.21837999999999994  0.40069999999999995  0.14182  1.0000
  H   H120      1.0  0.3224099999999999  0.37925  0.24420999999999998  1.0000
  C   C1        1.0  0.58194  0.75481  0.10782  1.0000
  C   C2        1.0  0.6146  0.79876  0.17275  1.0000
  C   C3        1.0  0.7386400000000001  0.83643  0.19535  1.0000
  C   C4        1.0  0.8245999999999999  0.8295899999999999  0.15132  1.0000
  C   C5        1.0  0.7849700000000001  0.7834699999999999  0.08806  1.0000
  C   C6        1.0  0.54093  0.87617  0.26728  1.0000
  C   C7        1.0  0.42165  0.87373  0.29742  1.0000
  C   C8        1.0  0.39215  0.96342  0.25594  1.0000
  C   C9        1.0  0.30429  0.005549999999999999  0.28929999999999995  1.0000
  C   C10       1.0  0.2948  0.10543  0.24711999999999998  1.0000
  C   C11       1.0  0.17081999999999997  0.8923899999999999  0.30500999999999995  1.0000
  C   C12       1.0  0.43233  0.84556  0.41934  1.0000
  C   C13       1.0  0.5022  0.92223  0.47745  1.0000
  C   C14       1.0  0.4428999999999999  0.8905499999999997  0.5393699999999999  1.0000
  C   C15       1.0  0.6170299999999999  0.06628999999999999  0.58811  1.0000
  C   C16       1.0  0.68513  0.10152  0.52923  1.0000
  C   C17       1.0  0.62823  0.03183999999999999  0.4724  1.0000
  C   C18       1.0  0.24256000000000005  0.82555  0.7741  1.0000
  C   C19       1.0  0.19578  0.81112  0.8387599999999998  1.0000
  C   C20       1.0  0.15605999999999998  0.89544  0.8618899999999999  1.0000
  C   C21       1.0  0.16341999999999998  0.98909  0.81875  1.0000
  C   C22       1.0  0.21186000000000005  0.99833  0.7556699999999998  1.0000
  C   C23       1.0  0.11933000000000002  0.65884  0.93293  1.0000
  C   C24       1.0  0.12372  0.54295  0.96222  1.0000
  C   C25       1.0  0.03305999999999999  0.42229  0.9214899999999999  1.0000
  C   C26       1.0  0.0034499999999999744  0.29400999999999994  0.95264  1.0000
  C   C27       1.0  0.89454  0.18093  0.91574  1.0000
  C   C28       1.0  0.12256  0.28015  0.9560899999999999  1.0000
  C   C29       1.0  0.15495  0.58378  0.08387999999999998  1.0000
  C   C30       1.0  0.07977  0.57809  0.14274  1.0000
  C   C31       1.0  0.11312  0.55358  0.20463999999999993  1.0000
  C   C32       1.0  0.94035  0.55602  0.25462  1.0000
  C   C33       1.0  0.90327  0.58539  0.19565999999999997  1.0000
  C   C34       1.0  0.97063  0.59441  0.13825  1.0000
  C   C35       1.0  0.17282000000000003  0.41823  0.44018  1.0000
  C   C36       1.0  0.18513  0.3848  0.5046799999999999  1.0000
  C   C37       1.0  0.09993000000000003  0.25984  0.52692  1.0000
  C   C38       1.0  0.007419999999999996  0.17379  0.48302999999999996  1.0000
  C   C39       1.0  0.00014000000000000132  0.21398  0.42011999999999994  1.0000
  C   C40       1.0  0.33619  0.45827  0.59876  1.0000
  C   C41       1.0  0.45152  0.57759  0.62996  1.0000
  C   C42       1.0  0.57292  0.6092  0.5890199999999999  1.0000
  C   C43       1.0  0.70202  0.70362  0.6214099999999999  1.0000
  C   C44       1.0  0.81395  0.70864  0.5827099999999998  1.0000
  C   C45       1.0  0.71976  0.83753  0.62957  1.0000
  C   C46       1.0  0.41343  0.5673  0.7524399999999999  1.0000
  C   C47       1.0  0.42043999999999987  0.49763999999999997  0.8104299999999999  1.0000
  C   C48       1.0  0.44682000000000005  0.55545  0.8726  1.0000
  C   C49       1.0  0.44786  0.38121  0.92053  1.0000
  C   C50       1.0  0.4163200000000001  0.31462  0.86134  1.0000
  C   C51       1.0  0.40424  0.37223999999999996  0.80481  1.0000
  C   C52       1.0  0.75602  0.58474  0.8943399999999998  1.0000
  C   C53       1.0  0.7997200000000001  0.6167999999999999  0.8292799999999999  1.0000
  C   C54       1.0  0.8365200000000002  0.74019  0.8061299999999999  1.0000
  C   C55       1.0  0.8287  0.8259  0.8497299999999998  1.0000
  C   C56       1.0  0.78273  0.7867999999999998  0.9131599999999997  1.0000
  C   C57       1.0  0.87833  0.54283  0.7354499999999999  1.0000
  C   C58       1.0  0.87447  0.42357  0.70477  1.0000
  C   C59       1.0  0.9632999999999999  0.39249999999999996  0.74597  1.0000
  C   C60       1.0  0.99961  0.29967  0.71345  1.0000
  C   C61       1.0  0.10601  0.29545  0.75235  1.0000
  C   C62       1.0  0.88371  0.16497  0.7048899999999999  1.0000
  C   C63       1.0  0.84657  0.43334  0.58287  1.0000
  C   C64       1.0  0.9224100000000001  0.5022  0.5240999999999999  1.0000
  C   C65       1.0  0.8900399999999999  0.44298999999999994  0.46225999999999995  1.0000
  C   C66       1.0  0.06439  0.61804  0.41247  1.0000
  C   C67       1.0  0.10025000000000003  0.68583  0.47125  1.0000
  C   C68       1.0  0.03170999999999995  0.6284399999999999  0.52846  1.0000
  C   C69       1.0  0.82728  0.24750999999999998  0.22626999999999994  1.0000
  C   C70       1.0  0.81315  0.20039  0.16181  1.0000
  C   C71       1.0  0.89665  0.15901  0.13925999999999997  1.0000
  C   C72       1.0  0.9895600000000001  0.16579  0.18269  1.0000
  C   C73       1.0  0.9989400000000002  0.21509  0.24547  1.0000
  C   C74       1.0  0.66282  0.12558999999999998  0.06709  1.0000
  C   C75       1.0  0.54602  0.12852  0.03774999999999999  1.0000
  C   C76       1.0  0.42574  0.03784  0.07915  1.0000
  C   C77       1.0  0.29589  0.00347  0.047999999999999994  1.0000
  C   C78       1.0  0.1851  0.89238  0.0854  1.0000
  C   C79       1.0  0.27587  0.11867999999999997  0.04368  1.0000
  C   C80       1.0  0.5876600000000001  0.15784  0.9160899999999998  1.0000
  C   C81       1.0  0.5798  0.0814  0.8574799999999999  1.0000
  C   C82       1.0  0.5538499999999998  0.11318  0.7954499999999999  1.0000
  C   C83       1.0  0.55137  0.93729  0.74691  1.0000
  C   C84       1.0  0.5821399999999999  0.9016599999999999  0.8059199999999999  1.0000
  C   C85       1.0  0.5942899999999999  0.9713799999999999  0.86267  1.0000
  C   C86       1.0  0.41614  0.17255  0.5608999999999998  1.0000
  C   C87       1.0  0.38358999999999993  0.18472999999999998  0.49622  1.0000
  C   C88       1.0  0.25908  0.0988  0.47364  1.0000
  C   C89       1.0  0.17267000000000002  0.00569  0.51747  1.0000
  C   C90       1.0  0.21215000000000006  0.9985  0.58053  1.0000
  C   C91       1.0  0.45844  0.33672  0.40225999999999995  1.0000
  C   C92       1.0  0.57817  0.45346  0.3720299999999999  1.0000
  C   C93       1.0  0.60957  0.57366  0.4135599999999999  1.0000
  C   C94       1.0  0.70197  0.70271  0.38033  1.0000
  C   C95       1.0  0.7115000000000001  0.81489  0.42029  1.0000
  C   C96       1.0  0.83472  0.7192  0.36808  1.0000
  C   C97       1.0  0.56931  0.41635  0.25004  1.0000
  C   C98       1.0  0.49932  0.42173999999999995  0.19181  1.0000
  C   C99       1.0  0.55709  0.44723999999999997  0.12948  1.0000
  C   C100      1.0  0.38164  0.44595999999999997  0.08125999999999999  1.0000
  C   C101      1.0  0.31523  0.41549  0.14065  1.0000
  C   C102      1.0  0.37343000000000004  0.40508  0.19731999999999994  1.0000
  N   N1        1.0  0.66412  0.7440699999999999  0.06649  1.0000
  N   N2        1.0  0.5188199999999998  0.80086  0.21225999999999998  1.0000
  N   N3        1.0  0.45058999999999994  0.9196099999999999  0.36443  1.0000
  N   N4        1.0  0.49562999999999996  0.9612899999999999  0.59398  1.0000
  N   N5        1.0  0.2534  0.91907  0.7336299999999999  1.0000
  N   N6        1.0  0.19332000000000008  0.71265  0.87735  1.0000
  N   N7        1.0  0.07924  0.5253799999999998  0.029729999999999996  1.0000
  N   N8        1.0  0.04447000000000001  0.53903  0.25991  1.0000
  N   N9        1.0  0.08037999999999998  0.33562  0.39893  1.0000
  N   N10       1.0  0.2825  0.48068999999999995  0.54421  1.0000
  N   N11       1.0  0.46698  0.54732  0.6969  1.0000
  N   N12       1.0  0.46369  0.50182  0.9269899999999999  1.0000
  N   N13       1.0  0.74449  0.66665  0.9352999999999999  1.0000
  N   N14       1.0  0.8018199999999999  0.5208199999999998  0.79021  1.0000
  N   N15       1.0  0.92115  0.45334  0.63772  1.0000
  N   N16       1.0  0.96003  0.49628  0.40725999999999996  1.0000
  N   N17       1.0  0.92011  0.25759  0.26705  1.0000
  N   N18       1.0  0.71561  0.19892999999999997  0.12280999999999999  1.0000
  N   N19       1.0  0.52835  0.08305  0.97056  1.0000
  N   N20       1.0  0.53614  0.04225  0.74085  1.0000
  N   N21       1.0  0.33332  0.0796  0.60209  1.0000
  N   N22       1.0  0.48001  0.28297  0.4570299999999999  1.0000
  N   N23       1.0  0.54882  0.47031  0.30519  1.0000
  N   N24       1.0  0.50285  0.46255999999999997  0.07486999999999999  1.0000
  O   O1        1.0  0.6489700000000003  0.94592  0.29052  1.0000
  O   O2        1.0  0.36014000000000007  0.72596  0.42016999999999993  1.0000
  O   O3        1.0  0.04931000000000001  0.69557  0.9572599999999999  1.0000
  O   O4        1.0  0.27492  0.63396  0.08342  1.0000
  O   O5        1.0  0.29994  0.34989  0.6205099999999999  1.0000
  O   O6        1.0  0.3666  0.63958  0.75351  1.0000
  O   O7        1.0  0.9502900000000001  0.6508699999999998  0.71286  1.0000
  O   O8        1.0  0.72674  0.36098  0.58298  1.0000
  O   O9        1.0  0.70068  0.05651  0.04290999999999999  1.0000
  O   O10       1.0  0.6396800000000001  0.27778  0.9163999999999999  1.0000
  O   O11       1.0  0.35041  0.29904  0.37943  1.0000
  O   O12       1.0  0.64288  0.3709  0.24967999999999999  1.0000
