data_image0
_chemical_formula_structural       Co16H64C128O64
_chemical_formula_sum              "Co16 H64 C128 O64"
_cell_length_a       11.33222
_cell_length_b       22.38136
_cell_length_c       22.409149999999997
_cell_angle_alpha    86.26544
_cell_angle_beta     75.26988
_cell_angle_gamma    75.23068

_space_group_name_H-M_alt    "P 1"
_space_group_IT_number       1

loop_
  _space_group_symop_operation_xyz
  'x, y, z'

loop_
  _atom_site_type_symbol
  _atom_site_label
  _atom_site_symmetry_multiplicity
  _atom_site_fract_x
  _atom_site_fract_y
  _atom_site_fract_z
  _atom_site_occupancy
  Co  Co1       1.0  0.0794800000000001  0.605  0.8700299999999999  1.0000
  Co  Co2       1.0  0.021500000000000033  0.59889  0.73874  1.0000
  Co  Co3       1.0  0.5530199999999998  0.89509  0.6315299999999999  1.0000
  Co  Co4       1.0  0.3559400000000001  0.9011199999999999  0.7622099999999999  1.0000
  Co  Co5       1.0  0.18213000000000013  0.87018  0.8944399999999999  1.0000
  Co  Co6       1.0  0.12066000000000002  0.73788  0.90106  1.0000
  Co  Co7       1.0  0.9482499999999999  0.63098  0.60521  1.0000
  Co  Co8       1.0  0.7586199999999997  0.7616599999999999  0.59861  1.0000
  Co  Co9       1.0  0.9216299999999998  0.39521  0.12963  1.0000
  Co  Co10      1.0  0.9795699999999999  0.4008  0.26085  1.0000
  Co  Co11      1.0  0.44598999999999994  0.10494  0.36983  1.0000
  Co  Co12      1.0  0.6400499999999998  0.09864999999999999  0.23907999999999993  1.0000
  Co  Co13      1.0  0.8172899999999997  0.13045  0.10558  1.0000
  Co  Co14      1.0  0.87873  0.26241  0.09917  1.0000
  Co  Co15      1.0  0.055119999999999995  0.36868  0.39435999999999993  1.0000
  Co  Co16      1.0  0.24166000000000004  0.23824000000000004  0.40124  1.0000
  H   H1        1.0  0.8236899999999998  0.4530600000000001  0.78933  1.0000
  H   H2        1.0  0.7321800000000002  0.36511  0.8352999999999998  1.0000
  H   H3        1.0  0.74479  0.32873  0.94197  1.0000
  H   H4        1.0  0.9218400000000002  0.47304  0.9588199999999998  1.0000
  H   H5        1.0  0.7905699999999996  0.78604  0.9323999999999999  1.0000
  H   H6        1.0  0.6273499999999995  0.88489  0.93252  1.0000
  H   H7        1.0  0.5610700000000002  0.92201  0.8354799999999998  1.0000
  H   H8        1.0  0.82555  0.7642700000000001  0.73936  1.0000
  H   H9        1.0  0.06574000000000002  0.04775  0.71073  1.0000
  H   H10       1.0  0.9315699999999998  0.13567  0.66461  1.0000
  H   H11       1.0  0.014790000000000024  0.17152  0.55778  1.0000
  H   H12       1.0  0.3538800000000001  0.02687  0.5410799999999999  1.0000
  H   H13       1.0  0.50787  0.71344  0.5674  1.0000
  H   H14       1.0  0.44316999999999995  0.61481  0.56831  1.0000
  H   H15       1.0  0.31793000000000005  0.57814  0.66587  1.0000
  H   H16       1.0  0.32918000000000003  0.73611  0.7608  1.0000
  H   H17       1.0  0.77658  0.78924  0.04746999999999999  1.0000
  H   H18       1.0  0.59667  0.83511  0.13547  1.0000
  H   H19       1.0  0.57204  0.94186  0.17168  1.0000
  H   H20       1.0  0.8947200000000002  0.9588099999999999  0.027479999999999997  1.0000
  H   H21       1.0  0.07545999999999997  0.93215  0.71385  1.0000
  H   H22       1.0  0.011929999999999918  0.9321000000000002  0.61517  1.0000
  H   H23       1.0  0.9833399999999998  0.8349300000000001  0.57818  1.0000
  H   H24       1.0  0.08932000000000007  0.73866  0.7357599999999999  1.0000
  H   H25       1.0  0.6124799999999998  0.71028  0.4523099999999999  1.0000
  H   H26       1.0  0.5678799999999999  0.66401  0.36439999999999995  1.0000
  H   H27       1.0  0.68822  0.55746  0.32828  1.0000
  H   H28       1.0  0.8818400000000001  0.54087  0.47288  1.0000
  H   H29       1.0  0.7217800000000001  0.56804  0.7860499999999999  1.0000
  H   H30       1.0  0.5584999999999999  0.56838  0.8846  1.0000
  H   H31       1.0  0.3957400000000001  0.66563  0.9216299999999997  1.0000
  H   H32       1.0  0.56388  0.7615399999999999  0.7638099999999999  1.0000
  H   H33       1.0  0.17667999999999998  0.54748  0.21052999999999994  1.0000
  H   H34       1.0  0.2677500000000001  0.63567  0.16444999999999999  1.0000
  H   H35       1.0  0.25486  0.6718  0.0578  1.0000
  H   H36       1.0  0.07845  0.52704  0.04123  1.0000
  H   H37       1.0  0.21125000000000005  0.2131  0.06725  1.0000
  H   H38       1.0  0.3742699999999999  0.11439000000000002  0.06802  1.0000
  H   H39       1.0  0.43881  0.07771  0.16546999999999998  1.0000
  H   H40       1.0  0.17380000000000007  0.23592999999999997  0.26043  1.0000
  H   H41       1.0  0.9345900000000001  0.9522199999999998  0.2893899999999999  1.0000
  H   H42       1.0  0.06838000000000001  0.86428  0.33564  1.0000
  H   H43       1.0  0.9848999999999998  0.82845  0.4423499999999999  1.0000
  H   H44       1.0  0.6456599999999998  0.97312  0.45874999999999994  1.0000
  H   H45       1.0  0.49200999999999995  0.28644  0.43247  1.0000
  H   H46       1.0  0.55719  0.38487  0.43167999999999995  1.0000
  H   H47       1.0  0.6833599999999995  0.42135999999999996  0.33431  1.0000
  H   H48       1.0  0.6709299999999998  0.2637  0.23916  1.0000
  H   H49       1.0  0.22346000000000002  0.21093999999999996  0.9527899999999999  1.0000
  H   H50       1.0  0.4030399999999999  0.16465  0.86485  1.0000
  H   H51       1.0  0.42615  0.05804999999999999  0.82864  1.0000
  H   H52       1.0  0.10437  0.04157  0.97351  1.0000
  H   H53       1.0  0.92451  0.0679  0.28635999999999995  1.0000
  H   H54       1.0  0.9876600000000001  0.06842  0.38505  1.0000
  H   H55       1.0  0.015820000000000015  0.16574  0.42180999999999996  1.0000
  H   H56       1.0  0.9106099999999999  0.26132  0.26377  1.0000
  H   H57       1.0  0.38766  0.28973  0.54748  1.0000
  H   H58       1.0  0.43197999999999986  0.33559  0.63585  1.0000
  H   H59       1.0  0.31183999999999995  0.44242  0.67189  1.0000
  H   H60       1.0  0.11867999999999997  0.45935  0.52724  1.0000
  H   H61       1.0  0.27837999999999996  0.43216999999999994  0.21380999999999997  1.0000
  H   H62       1.0  0.44128  0.43174  0.11500999999999999  1.0000
  H   H63       1.0  0.60384  0.33433  0.07808  1.0000
  H   H64       1.0  0.43565999999999994  0.23865999999999998  0.23603999999999997  1.0000
  C   C1        1.0  0.93691  0.52025  0.8451  1.0000
  C   C2        1.0  0.87805  0.46863  0.8713  1.0000
  C   C3        1.0  0.82434  0.4381  0.8364599999999999  1.0000
  C   C4        1.0  0.7743399999999998  0.38854000000000005  0.86222  1.0000
  C   C5        1.0  0.7801599999999997  0.36827  0.92195  1.0000
  C   C6        1.0  0.8328899999999999  0.39904  0.9570999999999997  1.0000
  C   C7        1.0  0.8801799999999999  0.44949  0.93186  1.0000
  C   C8        1.0  0.845  0.37739  0.02009  1.0000
  C   C9        1.0  0.9079799999999999  0.70718  0.8344  1.0000
  C   C10       1.0  0.8179500000000001  0.76856  0.8360399999999998  1.0000
  C   C11       1.0  0.7623799999999998  0.80328  0.8903699999999998  1.0000
  C   C12       1.0  0.6711699999999999  0.8587  0.88998  1.0000
  C   C13       1.0  0.6345800000000001  0.87993  0.8358199999999999  1.0000
  C   C14       1.0  0.6922799999999999  0.84588  0.78105  1.0000
  C   C15       1.0  0.7836300000000002  0.7906699999999999  0.7815799999999999  1.0000
  C   C16       1.0  0.6546399999999994  0.86347  0.72281  1.0000
  C   C17       1.0  0.30147  0.98033  0.6552399999999999  1.0000
  C   C18       1.0  0.21744  0.03178  0.62863  1.0000
  C   C19       1.0  0.09816  0.06253  0.66348  1.0000
  C   C20       1.0  0.02428999999999997  0.11205  0.63763  1.0000
  C   C21       1.0  0.06996999999999999  0.13205  0.5778  1.0000
  C   C22       1.0  0.18906  0.10120999999999998  0.54265  1.0000
  C   C23       1.0  0.26147  0.05067  0.56798  1.0000
  C   C24       1.0  0.24339  0.12311000000000001  0.47986  1.0000
  C   C25       1.0  0.4488999999999999  0.79286  0.6657099999999999  1.0000
  C   C26       1.0  0.42195  0.73148  0.66403  1.0000
  C   C27       1.0  0.4549500000000001  0.69663  0.6097899999999999  1.0000
  C   C28       1.0  0.41876999999999986  0.64121  0.61071  1.0000
  C   C29       1.0  0.34991000000000005  0.6201  0.66524  1.0000
  C   C30       1.0  0.31919999999999993  0.6542  0.71996  1.0000
  C   C31       1.0  0.35565  0.70948  0.7187699999999999  1.0000
  C   C32       1.0  0.2417800000000001  0.63663  0.77873  1.0000
  C   C33       1.0  0.9561199999999995  0.84496  0.9799499999999999  1.0000
  C   C34       1.0  0.8460299999999997  0.87134  0.031819999999999994  1.0000
  C   C35       1.0  0.7618099999999999  0.8364399999999999  0.06241  1.0000
  C   C36       1.0  0.6621099999999999  0.8621900000000001  0.11195999999999998  1.0000
  C   C37       1.0  0.64747  0.92201  0.13221  1.0000
  C   C38       1.0  0.7313700000000001  0.95725  0.10169  1.0000
  C   C39       1.0  0.82915  0.9319500000000001  0.05109999999999999  1.0000
  C   C40       1.0  0.72219  0.02021  0.12384999999999999  1.0000
  C   C41       1.0  0.11444999999999994  0.83357  0.79267  1.0000
  C   C42       1.0  0.08555000000000006  0.8354999999999999  0.7314799999999999  1.0000
  C   C43       1.0  0.0646000000000001  0.88998  0.6968399999999999  1.0000
  C   C44       1.0  0.02924999999999988  0.8895400000000001  0.64147  1.0000
  C   C45       1.0  0.014440000000000036  0.83523  0.62023  1.0000
  C   C46       1.0  0.038490000000000045  0.78029  0.6541299999999999  1.0000
  C   C47       1.0  0.07394999999999993  0.78092  0.70932  1.0000
  C   C48       1.0  0.020220000000000092  0.72159  0.6365599999999999  1.0000
  C   C49       1.0  0.7810099999999999  0.65472  0.5201199999999999  1.0000
  C   C50       1.0  0.7494399999999998  0.62828  0.46828  1.0000
  C   C51       1.0  0.6607599999999998  0.66305  0.43757  1.0000
  C   C52       1.0  0.6370099999999994  0.63717  0.38801  1.0000
  C   C53       1.0  0.7034299999999999  0.57741  0.36782  1.0000
  C   C54       1.0  0.79194  0.5423  0.39845999999999987  1.0000
  C   C55       1.0  0.8131599999999999  0.56765  0.4491  1.0000
  C   C56       1.0  0.8685399999999999  0.4794  0.37618999999999997  1.0000
  C   C57       1.0  0.7411400000000001  0.66663  0.70709  1.0000
  C   C58       1.0  0.65277  0.66473  0.76836  1.0000
  C   C59       1.0  0.65156  0.6103  0.8030099999999998  1.0000
  C   C60       1.0  0.5600100000000001  0.61093  0.8583799999999999  1.0000
  C   C61       1.0  0.46948  0.66532  0.87961  1.0000
  C   C62       1.0  0.47238999999999987  0.72023  0.84567  1.0000
  C   C63       1.0  0.5640699999999998  0.71941  0.7904299999999999  1.0000
  C   C64       1.0  0.3771299999999999  0.7789  0.8634399999999999  1.0000
  C   C65       1.0  0.06339  0.4802  0.15501  1.0000
  C   C66       1.0  0.12228999999999995  0.53176  0.12866999999999998  1.0000
  C   C67       1.0  0.17602999999999996  0.56238  0.16338999999999998  1.0000
  C   C68       1.0  0.22578  0.61202  0.13759  1.0000
  C   C69       1.0  0.21984000000000006  0.63216  0.07785  1.0000
  C   C70       1.0  0.1672  0.60124  0.04276  1.0000
  C   C71       1.0  0.12005000000000005  0.55077  0.06808  1.0000
  C   C72       1.0  0.15490000000000007  0.62288  0.9797999999999998  1.0000
  C   C73       1.0  0.09366000000000001  0.29292  0.16519999999999999  1.0000
  C   C74       1.0  0.18279  0.23126  0.16366  1.0000
  C   C75       1.0  0.23876999999999998  0.19623999999999997  0.10954  1.0000
  C   C76       1.0  0.32971  0.14078  0.11044  1.0000
  C   C77       1.0  0.36522999999999994  0.11971  0.16493999999999998  1.0000
  C   C78       1.0  0.30648  0.15387  0.21963999999999995  1.0000
  C   C79       1.0  0.21598000000000003  0.20924  0.21840999999999997  1.0000
  C   C80       1.0  0.3417099999999999  0.13687  0.27865  1.0000
  C   C81       1.0  0.6984700000000001  0.01966  0.34476  1.0000
  C   C82       1.0  0.7824  0.96817  0.37131999999999993  1.0000
  C   C83       1.0  0.90181  0.93745  0.33659999999999995  1.0000
  C   C84       1.0  0.97559  0.88794  0.36250999999999994  1.0000
  C   C85       1.0  0.92977  0.8679599999999998  0.42232999999999987  1.0000
  C   C86       1.0  0.81057  0.8988399999999999  0.45742  1.0000
  C   C87       1.0  0.73821  0.9493100000000001  0.43198  1.0000
  C   C88       1.0  0.75633  0.87706  0.52041  1.0000
  C   C89       1.0  0.5507699999999999  0.20716  0.33416  1.0000
  C   C90       1.0  0.5779399999999999  0.26846  0.33588999999999997  1.0000
  C   C91       1.0  0.54522  0.3032  0.39015  1.0000
  C   C92       1.0  0.582  0.35844  0.38928  1.0000
  C   C93       1.0  0.65137  0.3794199999999999  0.33482  1.0000
  C   C94       1.0  0.6818  0.3454  0.28007  1.0000
  C   C95       1.0  0.6446700000000001  0.29033  0.28119  1.0000
  C   C96       1.0  0.7585699999999999  0.36288  0.22105999999999995  1.0000
  C   C97       1.0  0.04333999999999999  0.15527  0.020359999999999996  1.0000
  C   C98       1.0  0.15347000000000005  0.12895  0.9686399999999998  1.0000
  C   C99       1.0  0.23781000000000005  0.16373  0.9379299999999998  1.0000
  C   C100      1.0  0.33726  0.13777  0.8883799999999997  1.0000
  C   C101      1.0  0.35118  0.07802  0.86821  1.0000
  C   C102      1.0  0.26720000000000016  0.04294  0.8989999999999998  1.0000
  C   C103      1.0  0.16986000000000004  0.06835  0.94961  1.0000
  C   C104      1.0  0.27548  0.98008  0.87712  1.0000
  C   C105      1.0  0.88523  0.16646  0.20725  1.0000
  C   C106      1.0  0.9140599999999999  0.16459  0.26847  1.0000
  C   C107      1.0  0.93502  0.11022  0.30325  1.0000
  C   C108      1.0  0.97009  0.1109  0.35866999999999993  1.0000
  C   C109      1.0  0.9848999999999998  0.16526  0.37975  1.0000
  C   C110      1.0  0.96143  0.22002  0.34556999999999993  1.0000
  C   C111      1.0  0.92599  0.21919999999999998  0.2904  1.0000
  C   C112      1.0  0.9810199999999999  0.27851  0.3628599999999999  1.0000
  C   C113      1.0  0.2193600000000001  0.34518  0.48004999999999987  1.0000
  C   C114      1.0  0.2507400000000001  0.37173  0.53184  1.0000
  C   C115      1.0  0.3395000000000001  0.3369  0.5624199999999999  1.0000
  C   C116      1.0  0.36317999999999995  0.36255  0.6121299999999998  1.0000
  C   C117      1.0  0.29713000000000006  0.42236  0.63226  1.0000
  C   C118      1.0  0.20926999999999998  0.45766  0.60142  1.0000
  C   C119      1.0  0.18743000000000007  0.43244  0.5508999999999998  1.0000
  C   C120      1.0  0.13418000000000013  0.52073  0.6234599999999999  1.0000
  C   C121      1.0  0.25976000000000005  0.33376  0.2928  1.0000
  C   C122      1.0  0.34742999999999996  0.33552  0.23149  1.0000
  C   C123      1.0  0.3485  0.38992  0.19676  1.0000
  C   C124      1.0  0.4397499999999999  0.38921  0.14128999999999997  1.0000
  C   C125      1.0  0.5301  0.33475  0.12010999999999997  1.0000
  C   C126      1.0  0.52703  0.27993  0.1542  1.0000
  C   C127      1.0  0.43559000000000003  0.28079  0.20944  1.0000
  C   C128      1.0  0.6221499999999999  0.22127  0.13672  1.0000
  O   O1        1.0  0.9813399999999994  0.54443  0.8818499999999999  1.0000
  O   O2        1.0  0.94026  0.53607  0.7889599999999999  1.0000
  O   O3        1.0  0.868  0.41509  0.05367999999999999  1.0000
  O   O4        1.0  0.8336699999999999  0.32298  0.03584  1.0000
  O   O5        1.0  0.9650200000000001  0.69081  0.8781999999999999  1.0000
  O   O6        1.0  0.92216  0.67258  0.78893  1.0000
  O   O7        1.0  0.7215899999999998  0.8393099999999999  0.6717799999999999  1.0000
  O   O8        1.0  0.54892  0.9046300000000002  0.72258  1.0000
  O   O9        1.0  0.40843999999999986  0.9570799999999999  0.61889  1.0000
  O   O10       1.0  0.2629000000000001  0.9637999999999999  0.71098  1.0000
  O   O11       1.0  0.3365700000000001  0.08495  0.44586  1.0000
  O   O12       1.0  0.19515000000000005  0.17805  0.46457  1.0000
  O   O13       1.0  0.5346000000000002  0.80913  0.62232  1.0000
  O   O14       1.0  0.38165000000000016  0.8276399999999999  0.7109499999999999  1.0000
  O   O15       1.0  0.23347000000000007  0.66105  0.8296399999999999  1.0000
  O   O16       1.0  0.17789999999999997  0.59506  0.77966  1.0000
  O   O17       1.0  0.023210000000000158  0.88226  0.9550099999999999  1.0000
  O   O18       1.0  0.9763900000000001  0.7885399999999999  0.9646399999999999  1.0000
  O   O19       1.0  0.7835  0.05393  0.08651  1.0000
  O   O20       1.0  0.65556  0.03596  0.17819999999999994  1.0000
  O   O21       1.0  0.15582999999999997  0.87724  0.8089199999999999  1.0000
  O   O22       1.0  0.09364000000000007  0.78817  0.8273599999999998  1.0000
  O   O23       1.0  0.06513000000000001  0.67058  0.66023  1.0000
  O   O24       1.0  0.9546000000000001  0.72119  0.59598  1.0000
  O   O25       1.0  0.8622200000000001  0.61802  0.5446499999999999  1.0000
  O   O26       1.0  0.72754  0.71095  0.53573  1.0000
  O   O27       1.0  0.92532  0.44545  0.41363  1.0000
  O   O28       1.0  0.87346  0.46401000000000003  0.32159999999999994  1.0000
  O   O29       1.0  0.8438100000000001  0.62365  0.69093  1.0000
  O   O30       1.0  0.70798  0.7117  0.6722999999999999  1.0000
  O   O31       1.0  0.39359000000000005  0.82998  0.83953  1.0000
  O   O32       1.0  0.27089  0.77929  0.9043099999999998  1.0000
  O   O33       1.0  0.017710000000000052  0.45666999999999996  0.11831999999999998  1.0000
  O   O34       1.0  0.06086000000000004  0.46389  0.21090999999999993  1.0000
  O   O35       1.0  0.1321600000000001  0.58514  0.9461699999999997  1.0000
  O   O36       1.0  0.16594999999999996  0.67736  0.96414  1.0000
  O   O37       1.0  0.03484000000000002  0.3093  0.12201999999999998  1.0000
  O   O38       1.0  0.08246999999999997  0.3277  0.21011  1.0000
  O   O39       1.0  0.27288  0.16097  0.32929  1.0000
  O   O40       1.0  0.44779  0.09633000000000001  0.27973  1.0000
  O   O41       1.0  0.5918600000000002  0.04313  0.38125999999999993  1.0000
  O   O42       1.0  0.73652  0.03613  0.28892  1.0000
  O   O43       1.0  0.6628599999999998  0.9149300000000001  0.55452  1.0000
  O   O44       1.0  0.80539  0.8221900000000001  0.53569  1.0000
  O   O45       1.0  0.4649000000000001  0.19087  0.37749  1.0000
  O   O46       1.0  0.61833  0.17246  0.2889399999999999  1.0000
  O   O47       1.0  0.76267  0.33967  0.17029  1.0000
  O   O48       1.0  0.8260000000000001  0.40293  0.22017999999999993  1.0000
  O   O49       1.0  0.9760999999999999  0.11794  0.04516  1.0000
  O   O50       1.0  0.022949999999999998  0.21162  0.03574999999999999  1.0000
  O   O51       1.0  0.21494000000000002  0.9462799999999999  0.9147  1.0000
  O   O52       1.0  0.3401299999999999  0.96438  0.82251  1.0000
  O   O53       1.0  0.84409  0.12287000000000001  0.19091999999999998  1.0000
  O   O54       1.0  0.9058699999999998  0.21202999999999997  0.17265999999999998  1.0000
  O   O55       1.0  0.9389299999999998  0.32947  0.33834999999999993  1.0000
  O   O56       1.0  0.044799999999999986  0.2788  0.40424  1.0000
  O   O57       1.0  0.13812  0.38192999999999994  0.45564  1.0000
  O   O58       1.0  0.27287999999999996  0.28901  0.4642999999999999  1.0000
  O   O59       1.0  0.07737000000000002  0.55468  0.58603  1.0000
  O   O60       1.0  0.13047000000000003  0.53623  0.67784  1.0000
  O   O61       1.0  0.15847999999999998  0.37742999999999993  0.30912  1.0000
  O   O62       1.0  0.29172  0.28827  0.32747  1.0000
  O   O63       1.0  0.6063999999999999  0.1702  0.16091  1.0000
  O   O64       1.0  0.7279899999999999  0.22093999999999997  0.09556999999999999  1.0000
