data_image0
_chemical_formula_structural       Gd4H44C108N28O76
_chemical_formula_sum              "Gd4 H44 C108 N28 O76"
_cell_length_a       14.54017
_cell_length_b       16.76125
_cell_length_c       19.61942
_cell_angle_alpha    104.86858999999998
_cell_angle_beta     96.42217999999998
_cell_angle_gamma    94.53310000000002

_symmetry_space_group_name_H-M    'P 1'
_symmetry_Int_Tables_number       1

loop_
  _symmetry_equiv_pos_as_xyz
  'x,y,z'

loop_
  _atom_site_type_symbol
  _atom_site_label
  _atom_site_symmetry_multiplicity
  _atom_site_fract_x
  _atom_site_fract_y
  _atom_site_fract_z
  _atom_site_occupancy
  Gd  Gd1       1.0  0.8816700000000004  0.95601  0.9377200000000001  1.0000
  Gd  Gd2       1.0  0.36620000000000014  0.45931  0.49423000000000006  1.0000
  Gd  Gd3       1.0  0.11833000000000003  0.04399  0.06228000000000001  1.0000
  Gd  Gd4       1.0  0.6338  0.54069  0.50578  1.0000
  H   H1        1.0  0.9183400000000003  0.13059999999999994  0.81487  1.0000
  H   H2        1.0  0.17252000000000003  0.24343000000000006  0.9520900000000001  1.0000
  H   H3        1.0  0.24545000000000006  0.23957  0.58638  1.0000
  H   H4        1.0  0.14346  0.47440999999999994  0.67237  1.0000
  H   H5        1.0  0.7817800000000003  0.104  0.06608  1.0000
  H   H6        1.0  0.9357700000000002  0.08577  0.2623  1.0000
  H   H7        1.0  0.6594  0.3986499999999999  0.37513  1.0000
  H   H8        1.0  0.4448100000000001  0.19185  0.33941  1.0000
  H   H9        1.0  0.7176000000000002  0.4329199999999999  0.67852  1.0000
  H   H10       1.0  0.42708  0.35983  0.68048  1.0000
  H   H11       1.0  0.71054  0.028970000000000006  0.74984  1.0000
  H   H12       1.0  0.6912700000000003  0.19143  0.95584  1.0000
  H   H13       1.0  0.7106700000000002  0.8533499999999998  0.79959  1.0000
  H   H14       1.0  0.6510000000000002  0.7157399999999997  0.71433  1.0000
  H   H15       1.0  0.7119  0.58673  0.73642  1.0000
  H   H16       1.0  0.88943  0.74556  0.91993  1.0000
  H   H17       1.0  0.9019100000000002  0.5961899999999998  0.89009  1.0000
  H   H18       1.0  0.37896  0.65235  0.47057999999999994  1.0000
  H   H19       1.0  0.29984  0.77515  0.4597  1.0000
  H   H20       1.0  0.12773000000000004  0.77105  0.4674  1.0000
  H   H21       1.0  0.13428000000000007  0.52508  0.49793000000000004  1.0000
  H   H22       1.0  0.98902  0.70431  0.48385  1.0000
  H   H23       1.0  0.08166000000000002  0.8694  0.18513  1.0000
  H   H24       1.0  0.82748  0.7565699999999997  0.04791  1.0000
  H   H25       1.0  0.7545500000000003  0.76043  0.41363000000000005  1.0000
  H   H26       1.0  0.85654  0.52559  0.32763  1.0000
  H   H27       1.0  0.21822000000000005  0.8959999999999998  0.9339200000000001  1.0000
  H   H28       1.0  0.06423  0.91423  0.7377  1.0000
  H   H29       1.0  0.3406  0.6013499999999998  0.62488  1.0000
  H   H30       1.0  0.5551900000000001  0.8081499999999998  0.66059  1.0000
  H   H31       1.0  0.2824  0.56708  0.32148  1.0000
  H   H32       1.0  0.5729200000000002  0.64017  0.31952  1.0000
  H   H33       1.0  0.28946000000000005  0.9710299999999998  0.25017  1.0000
  H   H34       1.0  0.3087300000000001  0.8085699999999998  0.04416  1.0000
  H   H35       1.0  0.28933  0.14664999999999995  0.20042  1.0000
  H   H36       1.0  0.349  0.28427  0.28567  1.0000
  H   H37       1.0  0.2881100000000001  0.41327  0.26358  1.0000
  H   H38       1.0  0.11056999999999999  0.2544499999999999  0.08008  1.0000
  H   H39       1.0  0.09809  0.40381  0.10991  1.0000
  H   H40       1.0  0.6210400000000003  0.34766  0.52942  1.0000
  H   H41       1.0  0.7001600000000002  0.22485  0.54031  1.0000
  H   H42       1.0  0.87228  0.22895  0.5326  1.0000
  H   H43       1.0  0.86572  0.47491999999999995  0.50207  1.0000
  H   H44       1.0  0.010980000000000002  0.29569  0.51616  1.0000
  C   C1        1.0  0.021599999999999966  0.12986999999999996  0.9388599999999999  1.0000
  C   C2        1.0  0.04247000000000002  0.18156000000000003  0.8895800000000001  1.0000
  C   C3        1.0  0.98309  0.17154000000000003  0.82623  1.0000
  C   C4        1.0  0.008909999999999998  0.21128999999999995  0.77603  1.0000
  C   C5        1.0  0.09283  0.2642  0.7872  1.0000
  C   C6        1.0  0.14804  0.27614  0.85368  1.0000
  C   C7        1.0  0.12495999999999999  0.23498999999999998  0.9033499999999999  1.0000
  C   C8        1.0  0.12734  0.29765  0.73002  1.0000
  C   C9        1.0  0.17548  0.24938  0.67869  1.0000
  C   C10       1.0  0.21003000000000005  0.27945  0.62559  1.0000
  C   C11       1.0  0.20076000000000005  0.3612999999999999  0.62391  1.0000
  C   C12       1.0  0.15225  0.41078999999999993  0.67323  1.0000
  C   C13       1.0  0.11505000000000001  0.37821  0.72393  1.0000
  C   C14       1.0  0.24549000000000007  0.39641  0.5713  1.0000
  C   C15       1.0  0.9499700000000002  0.07099999999999997  0.12294  1.0000
  C   C16       1.0  0.8671600000000003  0.09014  0.1597  1.0000
  C   C17       1.0  0.7872200000000001  0.10823  0.12277  1.0000
  C   C18       1.0  0.71542  0.13691  0.16012  1.0000
  C   C19       1.0  0.71838  0.14696  0.23365999999999998  1.0000
  C   C20       1.0  0.79882  0.12477  0.26817  1.0000
  C   C21       1.0  0.8731400000000002  0.09824  0.23280999999999996  1.0000
  C   C22       1.0  0.6543800000000002  0.19774999999999995  0.27587  1.0000
  C   C23       1.0  0.68311  0.28253  0.30733  1.0000
  C   C24       1.0  0.63135  0.33400999999999986  0.35178  1.0000
  C   C25       1.0  0.5450500000000001  0.3014999999999999  0.3639  1.0000
  C   C26       1.0  0.51203  0.21812999999999994  0.33098  1.0000
  C   C27       1.0  0.56681  0.16809  0.28866  1.0000
  C   C28       1.0  0.4878500000000002  0.35389999999999994  0.41205  1.0000
  C   C29       1.0  0.54252  0.4523499999999998  0.62255  1.0000
  C   C30       1.0  0.56882  0.4029699999999999  0.6738  1.0000
  C   C31       1.0  0.66266  0.3971199999999999  0.69465  1.0000
  C   C32       1.0  0.68644  0.34285  0.7347  1.0000
  C   C33       1.0  0.61964  0.2919  0.75589  1.0000
  C   C34       1.0  0.52588  0.30203  0.73615  1.0000
  C   C35       1.0  0.50035  0.3559699999999999  0.69586  1.0000
  C   C36       1.0  0.64721  0.2263  0.79075  1.0000
  C   C37       1.0  0.6651  0.14768999999999996  0.75053  1.0000
  C   C38       1.0  0.6952700000000002  0.08779  0.7826  1.0000
  C   C39       1.0  0.7066  0.10292999999999997  0.8565200000000001  1.0000
  C   C40       1.0  0.6852500000000002  0.1783599999999999  0.89818  1.0000
  C   C41       1.0  0.65718  0.23831000000000002  0.8651600000000002  1.0000
  C   C42       1.0  0.7459800000000002  0.03862999999999999  0.88775  1.0000
  C   C43       1.0  0.7360300000000002  0.7964400000000001  0.80719  1.0000
  C   C44       1.0  0.70227  0.7193  0.7601  1.0000
  C   C45       1.0  0.73661  0.64821  0.77158  1.0000
  C   C46       1.0  0.8053000000000002  0.65685  0.83003  1.0000
  C   C47       1.0  0.83605  0.7364599999999999  0.8741500000000001  1.0000
  C   C48       1.0  0.8441700000000004  0.58324  0.84541  1.0000
  C   C49       1.0  0.3047800000000001  0.65221  0.47349  1.0000
  C   C50       1.0  0.26055  0.72121  0.46798000000000006  1.0000
  C   C51       1.0  0.16538000000000005  0.71863  0.47226999999999997  1.0000
  C   C52       1.0  0.11866  0.64738  0.48286  1.0000
  C   C53       1.0  0.16913  0.58046  0.48839999999999995  1.0000
  C   C54       1.0  0.01770000000000001  0.6461600000000001  0.48853  1.0000
  C   C55       1.0  0.9784  0.87013  0.06115  1.0000
  C   C56       1.0  0.9575400000000002  0.8184399999999997  0.11042  1.0000
  C   C57       1.0  0.01691  0.82847  0.17377000000000004  1.0000
  C   C58       1.0  0.9910900000000002  0.7887099999999998  0.22397  1.0000
  C   C59       1.0  0.9071700000000003  0.7357999999999998  0.2128  1.0000
  C   C60       1.0  0.8519600000000005  0.72386  0.14632  1.0000
  C   C61       1.0  0.8750400000000003  0.76501  0.09665  1.0000
  C   C62       1.0  0.8726599999999999  0.7023499999999998  0.26998  1.0000
  C   C63       1.0  0.82452  0.75063  0.32131  1.0000
  C   C64       1.0  0.78997  0.72055  0.37441  1.0000
  C   C65       1.0  0.79924  0.63871  0.3761  1.0000
  C   C66       1.0  0.8477500000000002  0.58921  0.32678  1.0000
  C   C67       1.0  0.8849500000000002  0.6217899999999997  0.27608  1.0000
  C   C68       1.0  0.7545100000000002  0.60359  0.4287  1.0000
  C   C69       1.0  0.050040000000000015  0.9290000000000002  0.87706  1.0000
  C   C70       1.0  0.13284  0.9098599999999997  0.8403  1.0000
  C   C71       1.0  0.21278  0.8917699999999996  0.87723  1.0000
  C   C72       1.0  0.28458  0.86309  0.83988  1.0000
  C   C73       1.0  0.28162  0.85304  0.76634  1.0000
  C   C74       1.0  0.20117999999999997  0.8752299999999997  0.73183  1.0000
  C   C75       1.0  0.12686  0.90176  0.76719  1.0000
  C   C76       1.0  0.3456200000000001  0.80225  0.72413  1.0000
  C   C77       1.0  0.31689  0.71747  0.69268  1.0000
  C   C78       1.0  0.3686499999999999  0.6659899999999997  0.64822  1.0000
  C   C79       1.0  0.45496  0.6985  0.63611  1.0000
  C   C80       1.0  0.48797  0.78187  0.66903  1.0000
  C   C81       1.0  0.43319  0.8319099999999999  0.71134  1.0000
  C   C82       1.0  0.51215  0.6461  0.58796  1.0000
  C   C83       1.0  0.45748000000000016  0.5476499999999999  0.37746  1.0000
  C   C84       1.0  0.43118  0.5970299999999996  0.32621  1.0000
  C   C85       1.0  0.33734  0.60288  0.30535  1.0000
  C   C86       1.0  0.31356  0.6571599999999997  0.2653  1.0000
  C   C87       1.0  0.3803700000000002  0.7081  0.24412  1.0000
  C   C88       1.0  0.4741300000000001  0.69798  0.26385  1.0000
  C   C89       1.0  0.4996500000000001  0.64403  0.30415  1.0000
  C   C90       1.0  0.35279  0.7737  0.20926  1.0000
  C   C91       1.0  0.3349000000000001  0.8523099999999998  0.24946999999999997  1.0000
  C   C92       1.0  0.3047300000000001  0.9122099999999997  0.21741000000000002  1.0000
  C   C93       1.0  0.2934000000000001  0.89707  0.14349  1.0000
  C   C94       1.0  0.31476  0.8216399999999998  0.10182  1.0000
  C   C95       1.0  0.34283000000000013  0.7616899999999998  0.13485  1.0000
  C   C96       1.0  0.25402  0.9613699999999998  0.11225000000000002  1.0000
  C   C97       1.0  0.2639700000000001  0.20356000000000002  0.19281  1.0000
  C   C98       1.0  0.29773  0.2807  0.2399  1.0000
  C   C99       1.0  0.2634  0.3517899999999999  0.22842  1.0000
  C   C100      1.0  0.1947000000000001  0.34315  0.16997  1.0000
  C   C101      1.0  0.16394999999999996  0.2635399999999999  0.12586  1.0000
  C   C102      1.0  0.15583000000000005  0.4167599999999999  0.15459  1.0000
  C   C103      1.0  0.6952200000000002  0.34779  0.52651  1.0000
  C   C104      1.0  0.73945  0.2788  0.53202  1.0000
  C   C105      1.0  0.8346200000000003  0.2813699999999999  0.52773  1.0000
  C   C106      1.0  0.8813400000000002  0.35262  0.51714  1.0000
  C   C107      1.0  0.83087  0.41954  0.5116  1.0000
  C   C108      1.0  0.9823100000000002  0.35384  0.51147  1.0000
  N   N1        1.0  0.9455500000000002  0.19259  0.70833  1.0000
  N   N2        1.0  0.23641000000000006  0.33157  0.87319  1.0000
  N   N3        1.0  0.18772000000000008  0.1617  0.67685  1.0000
  N   N4        1.0  0.06356000000000003  0.43307  0.7745  1.0000
  N   N5        1.0  0.63783  0.16445  0.12006  1.0000
  N   N6        1.0  0.80878  0.13369  0.34577  1.0000
  N   N7        1.0  0.7735800000000002  0.3207  0.29549  1.0000
  N   N8        1.0  0.53047  0.0803  0.25642  1.0000
  N   N9        1.0  0.7861400000000002  0.33548  0.75084  1.0000
  N   N10       1.0  0.4493900000000001  0.25324999999999986  0.75621  1.0000
  N   N11       1.0  0.65112  0.12330999999999999  0.67157  1.0000
  N   N12       1.0  0.6388500000000001  0.3182699999999999  0.91191  1.0000
  N   N13       1.0  0.80216  0.80591  0.86394  1.0000
  N   N14       1.0  0.26096  0.58208  0.48322999999999994  1.0000
  N   N15       1.0  0.05445000000000001  0.80741  0.29168  1.0000
  N   N16       1.0  0.7636  0.66843  0.12682  1.0000
  N   N17       1.0  0.81228  0.8383  0.32316  1.0000
  N   N18       1.0  0.9364400000000002  0.56693  0.2255  1.0000
  N   N19       1.0  0.36217  0.83555  0.87994  1.0000
  N   N20       1.0  0.19121999999999997  0.8663199999999996  0.65423  1.0000
  N   N21       1.0  0.2264200000000001  0.6793  0.70451  1.0000
  N   N22       1.0  0.4695300000000001  0.9197  0.74359  1.0000
  N   N23       1.0  0.21386000000000005  0.66452  0.24917  1.0000
  N   N24       1.0  0.55061  0.7467499999999998  0.24380000000000002  1.0000
  N   N25       1.0  0.34888000000000013  0.8766899999999996  0.32844  1.0000
  N   N26       1.0  0.36115  0.6817299999999997  0.08809  1.0000
  N   N27       1.0  0.19785000000000005  0.19409  0.13606  1.0000
  N   N28       1.0  0.7390400000000003  0.41792000000000007  0.51677  1.0000
  O   O1        1.0  0.9454400000000001  0.08295  0.92256  1.0000
  O   O2        1.0  0.08360000000000005  0.13474999999999995  0.99217  1.0000
  O   O3        1.0  0.27271  0.34729  0.51784  1.0000
  O   O4        1.0  0.25962  0.4754599999999999  0.58252  1.0000
  O   O5        1.0  0.86612  0.15881  0.70682  1.0000
  O   O6        1.0  0.9754400000000001  0.21075  0.65663  1.0000
  O   O7        1.0  0.2974300000000001  0.31410000000000005  0.9145700000000001  1.0000
  O   O8        1.0  0.24233000000000002  0.3924499999999999  0.8483  1.0000
  O   O9        1.0  0.18453000000000003  0.13969999999999996  0.73247  1.0000
  O   O10       1.0  0.19986  0.11546999999999998  0.61905  1.0000
  O   O11       1.0  0.032240000000000026  0.40493000000000007  0.82094  1.0000
  O   O12       1.0  0.05545999999999999  0.5036399999999998  0.76748  1.0000
  O   O13       1.0  0.9397100000000003  0.04317  0.05453  1.0000
  O   O14       1.0  0.02996  0.0857  0.15926  1.0000
  O   O15       1.0  0.5284000000000002  0.42003  0.45843  1.0000
  O   O16       1.0  0.4016000000000001  0.33313  0.40791  1.0000
  O   O17       1.0  0.65681  0.1942  0.07117  1.0000
  O   O18       1.0  0.55922  0.15541  0.13805  1.0000
  O   O19       1.0  0.8890800000000001  0.14274999999999996  0.3776  1.0000
  O   O20       1.0  0.7364400000000002  0.13134  0.37362  1.0000
  O   O21       1.0  0.79125  0.30646  0.23342  1.0000
  O   O22       1.0  0.8240700000000002  0.36477  0.34905  1.0000
  O   O23       1.0  0.5874800000000001  0.03043999999999999  0.23870999999999998  1.0000
  O   O24       1.0  0.44471000000000005  0.06325999999999998  0.24912000000000004  1.0000
  O   O25       1.0  0.6072400000000002  0.5  0.6095  1.0000
  O   O26       1.0  0.4579700000000001  0.43994999999999995  0.5933  1.0000
  O   O27       1.0  0.75872  0.04751000000000002  0.95509  1.0000
  O   O28       1.0  0.7729600000000002  0.9761799999999999  0.84502  1.0000
  O   O29       1.0  0.8379000000000002  0.3507  0.70853  1.0000
  O   O30       1.0  0.8113  0.3133599999999999  0.80499  1.0000
  O   O31       1.0  0.4674300000000001  0.19136  0.77675  1.0000
  O   O32       1.0  0.3710100000000001  0.27744  0.75076  1.0000
  O   O33       1.0  0.6379300000000001  0.17824  0.6403  1.0000
  O   O34       1.0  0.65292  0.04919999999999999  0.64108  1.0000
  O   O35       1.0  0.6334700000000004  0.3777100000000001  0.8850700000000001  1.0000
  O   O36       1.0  0.63072  0.32112999999999997  0.9744799999999999  1.0000
  O   O37       1.0  0.8148900000000002  0.5119499999999998  0.81151  1.0000
  O   O38       1.0  0.9677600000000002  0.58823  0.49732  1.0000
  O   O39       1.0  0.05455999999999998  0.9170499999999998  0.07744  1.0000
  O   O40       1.0  0.9164000000000002  0.86525  0.00783  1.0000
  O   O41       1.0  0.7273  0.65271  0.48216  1.0000
  O   O42       1.0  0.7403800000000003  0.5245399999999998  0.41749  1.0000
  O   O43       1.0  0.13388  0.8411899999999999  0.29318  1.0000
  O   O44       1.0  0.024560000000000002  0.78925  0.34337  1.0000
  O   O45       1.0  0.70257  0.6859  0.08544  1.0000
  O   O46       1.0  0.75768  0.6075499999999998  0.1517  1.0000
  O   O47       1.0  0.8154700000000003  0.86031  0.26754  1.0000
  O   O48       1.0  0.80014  0.8845299999999999  0.38095  1.0000
  O   O49       1.0  0.9677600000000002  0.59507  0.17906  1.0000
  O   O50       1.0  0.94454  0.49636  0.23252  1.0000
  O   O51       1.0  0.06028999999999999  0.9568399999999998  0.94547  1.0000
  O   O52       1.0  0.9700400000000002  0.9142999999999999  0.84074  1.0000
  O   O53       1.0  0.4716  0.57997  0.54157  1.0000
  O   O54       1.0  0.5984  0.66687  0.59209  1.0000
  O   O55       1.0  0.34319000000000005  0.8057999999999997  0.9288299999999999  1.0000
  O   O56       1.0  0.44078  0.84459  0.86195  1.0000
  O   O57       1.0  0.11092  0.8572499999999996  0.6224  1.0000
  O   O58       1.0  0.26356  0.8686599999999998  0.62638  1.0000
  O   O59       1.0  0.20876  0.69354  0.76658  1.0000
  O   O60       1.0  0.17593  0.63524  0.65095  1.0000
  O   O61       1.0  0.4125300000000001  0.96956  0.7613  1.0000
  O   O62       1.0  0.55529  0.9367399999999998  0.75088  1.0000
  O   O63       1.0  0.3927600000000001  0.5  0.3905  1.0000
  O   O64       1.0  0.54203  0.56005  0.4067  1.0000
  O   O65       1.0  0.24128000000000005  0.95249  0.04491  1.0000
  O   O66       1.0  0.22704000000000005  0.023819999999999994  0.15498  1.0000
  O   O67       1.0  0.16210000000000005  0.6493099999999999  0.29147  1.0000
  O   O68       1.0  0.18870000000000006  0.68664  0.19501  1.0000
  O   O69       1.0  0.53257  0.80864  0.22326000000000001  1.0000
  O   O70       1.0  0.6289900000000003  0.7225599999999995  0.24924  1.0000
  O   O71       1.0  0.3620700000000001  0.82176  0.3597  1.0000
  O   O72       1.0  0.3470800000000001  0.95081  0.35893  1.0000
  O   O73       1.0  0.36653000000000013  0.6222999999999999  0.11493  1.0000
  O   O74       1.0  0.36928  0.6788699999999998  0.02552  1.0000
  O   O75       1.0  0.18511000000000002  0.48805  0.1885  1.0000
  O   O76       1.0  0.032240000000000026  0.41177  0.50268  1.0000
