data_image0
_chemical_formula_structural       Cu6H108C144N24O24
_chemical_formula_sum              "Cu6 H108 C144 N24 O24"
_cell_length_a       13.02843
_cell_length_b       25.29146
_cell_length_c       25.2918
_cell_angle_alpha    117.17368
_cell_angle_beta     99.92952
_cell_angle_gamma    99.93472

_space_group_name_H-M_alt    "P 1"
_space_group_IT_number       1

loop_
  _space_group_symop_operation_xyz
  'x, y, z'

loop_
  _atom_site_type_symbol
  _atom_site_label
  _atom_site_symmetry_multiplicity
  _atom_site_fract_x
  _atom_site_fract_y
  _atom_site_fract_z
  _atom_site_occupancy
  Cu  Cu1       1.0  0.54095  0.46001000000000003  0.00017  1.0000
  Cu  Cu2       1.0  0.08032000000000006  0.54043  0.54041  1.0000
  Cu  Cu3       1.0  0.54043  0.00010999999999998052  0.46006  1.0000
  Cu  Cu4       1.0  0.45947  0.53986  0.99981  1.0000
  Cu  Cu5       1.0  0.4597200000000001  0.9999600000000002  0.53996  1.0000
  Cu  Cu6       1.0  0.92011  0.45981  0.45978  1.0000
  H   H1        1.0  0.30144000000000004  0.29224000000000006  0.85384  1.0000
  H   H2        1.0  0.15283  0.4351000000000001  0.8625300000000001  1.0000
  H   H3        1.0  0.4373799999999999  0.11929999999999995  0.77599  1.0000
  H   H4        1.0  0.25605  0.13673  0.8186400000000001  1.0000
  H   H5        1.0  0.5357099999999999  0.19230999999999993  0.72703  1.0000
  H   H6        1.0  0.43373  0.18357000000000004  0.66441  1.0000
  H   H7        1.0  0.4626099999999999  0.11659999999999998  0.66317  1.0000
  H   H8        1.0  0.10342999999999998  0.17356  0.79335  1.0000
  H   H9        1.0  0.07182000000000001  0.16374  0.7181  1.0000
  H   H10       1.0  0.007160000000000072  0.5621100000000001  0.7069500000000001  1.0000
  H   H11       1.0  0.71488  0.42715000000000003  0.56443  1.0000
  H   H12       1.0  0.31903  0.65717  0.8815600000000001  1.0000
  H   H13       1.0  0.12093000000000007  0.683  0.8639500000000001  1.0000
  H   H14       1.0  0.34315999999999997  0.53437  0.80766  1.0000
  H   H15       1.0  0.24954000000000007  0.4811900000000001  0.8169000000000001  1.0000
  H   H16       1.0  0.3456799999999999  0.5474  0.88355  1.0000
  H   H17       1.0  0.93094  0.62094  0.82419  1.0000
  H   H18       1.0  0.90811  0.55693  0.83627  1.0000
  H   H19       1.0  0.4423199999999999  0.14404999999999998  0.43608  1.0000
  H   H20       1.0  0.28725999999999996  0.13659  0.57152  1.0000
  H   H21       1.0  0.65965  0.22415  0.34266  1.0000
  H   H22       1.0  0.4355299999999999  0.18068000000000004  0.31715  1.0000
  H   H23       1.0  0.8075799999999999  0.27316000000000007  0.46591000000000005  1.0000
  H   H24       1.0  0.7671599999999997  0.33569  0.51905  1.0000
  H   H25       1.0  0.7978599999999999  0.33633  0.45320000000000005  1.0000
  H   H26       1.0  0.3083699999999999  0.20435000000000003  0.37898000000000004  1.0000
  H   H27       1.0  0.35083999999999993  0.28019  0.44381  1.0000
  H   H28       1.0  0.5576300000000001  0.5638700000000001  0.8560300000000001  1.0000
  H   H29       1.0  0.7126300000000001  0.4284000000000001  0.8633200000000001  1.0000
  H   H30       1.0  0.3401499999999999  0.65736  0.7754100000000002  1.0000
  H   H31       1.0  0.5641899999999997  0.68299  0.81921  1.0000
  H   H32       1.0  0.19217  0.5339  0.72671  1.0000
  H   H33       1.0  0.23282000000000005  0.48092000000000007  0.6641500000000001  1.0000
  H   H34       1.0  0.20205  0.5468600000000001  0.66368  1.0000
  H   H35       1.0  0.69135  0.62127  0.79618  1.0000
  H   H36       1.0  0.6494  0.55665  0.72016  1.0000
  H   H37       1.0  0.6985499999999998  0.14618  0.70747  1.0000
  H   H38       1.0  0.8477199999999998  0.1374  0.56489  1.0000
  H   H39       1.0  0.56273  0.22402000000000002  0.88082  1.0000
  H   H40       1.0  0.74375  0.18112000000000003  0.8629300000000001  1.0000
  H   H41       1.0  0.46435  0.27316  0.80787  1.0000
  H   H42       1.0  0.56644  0.33584  0.81685  1.0000
  H   H43       1.0  0.53746  0.33677  0.88367  1.0000
  H   H44       1.0  0.8961000000000001  0.2063800000000001  0.82616  1.0000
  H   H45       1.0  0.92812  0.28175  0.83627  1.0000
  H   H46       1.0  0.9927800000000001  0.29306  0.43776  1.0000
  H   H47       1.0  0.28479000000000004  0.43554000000000004  0.57293  1.0000
  H   H48       1.0  0.68101  0.11832000000000002  0.34292  1.0000
  H   H49       1.0  0.87912  0.13606000000000001  0.31705000000000005  1.0000
  H   H50       1.0  0.6568999999999999  0.19227000000000002  0.46562000000000003  1.0000
  H   H51       1.0  0.75058  0.18314  0.51892  1.0000
  H   H52       1.0  0.65447  0.11641000000000003  0.45277  1.0000
  H   H53       1.0  0.06896000000000001  0.17572000000000002  0.37898000000000004  1.0000
  H   H54       1.0  0.09202999999999997  0.16373  0.44304  1.0000
  H   H55       1.0  0.6990699999999999  0.7078  0.14596  1.0000
  H   H56       1.0  0.8476499999999999  0.56503  0.13766000000000003  1.0000
  H   H57       1.0  0.5623499999999999  0.88061  0.22413  1.0000
  H   H58       1.0  0.7434599999999999  0.86306  0.18124000000000004  1.0000
  H   H59       1.0  0.46432  0.80746  0.27325  1.0000
  H   H60       1.0  0.56669  0.81656  0.33591000000000004  1.0000
  H   H61       1.0  0.53732  0.8833100000000002  0.33685000000000004  1.0000
  H   H62       1.0  0.89612  0.8263700000000002  0.20645000000000005  1.0000
  H   H63       1.0  0.9281999999999998  0.8364999999999999  0.28183  1.0000
  H   H64       1.0  0.9919400000000002  0.43853000000000003  0.29284  1.0000
  H   H65       1.0  0.28549  0.57174  0.43534000000000006  1.0000
  H   H66       1.0  0.6802299999999999  0.34306  0.11851000000000002  1.0000
  H   H67       1.0  0.87888  0.3178  0.13636  1.0000
  H   H68       1.0  0.6552799999999999  0.4657  0.19239  1.0000
  H   H69       1.0  0.7483399999999999  0.5190000000000001  0.18297  1.0000
  H   H70       1.0  0.65244  0.45257  0.11640000000000002  1.0000
  H   H71       1.0  0.06852999999999998  0.38011999999999996  0.17507  1.0000
  H   H72       1.0  0.09045  0.44473000000000007  0.16386  1.0000
  H   H73       1.0  0.55663  0.85546  0.56344  1.0000
  H   H74       1.0  0.71389  0.8641400000000001  0.42925  1.0000
  H   H75       1.0  0.3388799999999999  0.77526  0.65673  1.0000
  H   H76       1.0  0.56298  0.81865  0.68215  1.0000
  H   H77       1.0  0.19096999999999997  0.7263000000000001  0.5331700000000001  1.0000
  H   H78       1.0  0.23119  0.6634  0.48040000000000005  1.0000
  H   H79       1.0  0.20032999999999995  0.66345  0.54651  1.0000
  H   H80       1.0  0.6901099999999999  0.79437  0.6203  1.0000
  H   H81       1.0  0.6469100000000001  0.7187700000000001  0.5550100000000001  1.0000
  H   H82       1.0  0.44393999999999995  0.43695  0.14480000000000004  1.0000
  H   H83       1.0  0.28524  0.57031  0.13525000000000004  1.0000
  H   H84       1.0  0.66084  0.3432400000000001  0.22482000000000002  1.0000
  H   H85       1.0  0.43686  0.31809  0.18118  1.0000
  H   H86       1.0  0.80928  0.46686  0.27381  1.0000
  H   H87       1.0  0.7691399999999999  0.5194800000000002  0.33679  1.0000
  H   H88       1.0  0.7994699999999998  0.45312  0.33636  1.0000
  H   H89       1.0  0.31010999999999994  0.37996  0.20554  1.0000
  H   H90       1.0  0.35332  0.44517  0.28115  1.0000
  H   H91       1.0  0.3012699999999999  0.8537199999999999  0.29236  1.0000
  H   H92       1.0  0.1528  0.86249  0.43528  1.0000
  H   H93       1.0  0.43703000000000003  0.7757400000000001  0.11945000000000001  1.0000
  H   H94       1.0  0.25633  0.81897  0.13735  1.0000
  H   H95       1.0  0.53473  0.72627  0.19244  1.0000
  H   H96       1.0  0.4320499999999999  0.6634  0.18281000000000003  1.0000
  H   H97       1.0  0.46177999999999997  0.66308  0.11636  1.0000
  H   H98       1.0  0.10373  0.7939  0.17407  1.0000
  H   H99       1.0  0.07124999999999994  0.71847  0.16379000000000002  1.0000
  H   H100      1.0  0.007670000000000012  0.70695  0.56136  1.0000
  H   H101      1.0  0.7142799999999999  0.5643500000000001  0.42782000000000003  1.0000
  H   H102      1.0  0.31929  0.88127  0.65666  1.0000
  H   H103      1.0  0.1207099999999999  0.8636600000000001  0.68205  1.0000
  H   H104      1.0  0.3441  0.80742  0.53409  1.0000
  H   H105      1.0  0.25121  0.8169  0.48079000000000005  1.0000
  H   H106      1.0  0.34715  0.88342  0.54722  1.0000
  H   H107      1.0  0.9309799999999998  0.8249299999999999  0.61973  1.0000
  H   H108      1.0  0.90888  0.83588  0.55502  1.0000
  C   C1        1.0  0.33418  0.41593  0.91447  1.0000
  C   C2        1.0  0.2371600000000001  0.3678100000000002  0.8637100000000002  1.0000
  C   C3        1.0  0.23218999999999995  0.30476  0.83722  1.0000
  C   C4        1.0  0.14069000000000007  0.25850000000000006  0.7907100000000001  1.0000
  C   C5        1.0  0.05134999999999999  0.27646  0.77048  1.0000
  C   C6        1.0  0.06213999999999998  0.33915  0.7975  1.0000
  C   C7        1.0  0.14959  0.38633  0.84301  1.0000
  C   C8        1.0  0.3746  0.13875000000000007  0.7652900000000001  1.0000
  C   C9        1.0  0.28614  0.14771000000000015  0.7864900000000001  1.0000
  C   C10       1.0  0.4565599999999999  0.16307999999999992  0.6929  1.0000
  C   C11       1.0  0.13252  0.19002000000000002  0.76367  1.0000
  C   C12       1.0  0.28566999999999987  0.1834699999999999  0.71681  1.0000
  C   C13       1.0  0.91539  0.49879000000000007  0.58327  1.0000
  C   C14       1.0  0.8667699999999999  0.49598  0.63136  1.0000
  C   C15       1.0  0.92558  0.5326  0.69436  1.0000
  C   C16       1.0  0.88141  0.53218  0.74077  1.0000
  C   C17       1.0  0.7744700000000001  0.49357  0.72324  1.0000
  C   C18       1.0  0.7218899999999999  0.45758000000000004  0.66047  1.0000
  C   C19       1.0  0.7610900000000002  0.45629000000000003  0.6131700000000001  1.0000
  C   C20       1.0  0.23646000000000006  0.6271200000000001  0.8615400000000001  1.0000
  C   C21       1.0  0.13932  0.6396  0.85245  1.0000
  C   C22       1.0  0.29304000000000013  0.5301100000000002  0.8369300000000002  1.0000
  C   C23       1.0  0.9426899999999996  0.57473  0.80904  1.0000
  C   C24       1.0  0.10187  0.5338  0.8153000000000001  1.0000
  C   C25       1.0  0.41514  0.08373999999999998  0.49959  1.0000
  C   C26       1.0  0.3692  0.1346  0.50243  1.0000
  C   C27       1.0  0.39085999999999993  0.1611  0.46592  1.0000
  C   C28       1.0  0.34777  0.20843000000000003  0.46715  1.0000
  C   C29       1.0  0.28029  0.22967000000000004  0.50619  1.0000
  C   C30       1.0  0.26368  0.20257  0.54182  1.0000
  C   C31       1.0  0.30397  0.15624  0.54244  1.0000
  C   C32       1.0  0.60762  0.23432000000000003  0.37287  1.0000
  C   C33       1.0  0.49788  0.2128  0.36042  1.0000
  C   C34       1.0  0.7620399999999999  0.30685000000000007  0.4701600000000001  1.0000
  C   C35       1.0  0.36667  0.23486000000000004  0.42529  1.0000
  C   C36       1.0  0.5670499999999999  0.28192  0.46618  1.0000
  C   C37       1.0  0.58457  0.5005200000000001  0.9162900000000002  1.0000
  C   C38       1.0  0.63058  0.49750000000000005  0.8653200000000001  1.0000
  C   C39       1.0  0.6089800000000001  0.5340200000000002  0.8388600000000003  1.0000
  C   C40       1.0  0.65213  0.53287  0.79159  1.0000
  C   C41       1.0  0.71955  0.49382  0.77032  1.0000
  C   C42       1.0  0.73604  0.45813  0.79736  1.0000
  C   C43       1.0  0.6958200000000001  0.4574899999999999  0.8437000000000001  1.0000
  C   C44       1.0  0.39219000000000004  0.6271700000000001  0.7654900000000001  1.0000
  C   C45       1.0  0.50192  0.6396600000000001  0.7871500000000001  1.0000
  C   C46       1.0  0.23780000000000012  0.5297800000000001  0.69307  1.0000
  C   C47       1.0  0.63327  0.57492  0.76541  1.0000
  C   C48       1.0  0.43279  0.53382  0.71836  1.0000
  C   C49       1.0  0.66638  0.08575  0.58382  1.0000
  C   C50       1.0  0.76332  0.13643  0.63204  1.0000
  C   C51       1.0  0.76795  0.1627800000000001  0.69504  1.0000
  C   C52       1.0  0.85934  0.20929  0.74141  1.0000
  C   C53       1.0  0.9488199999999999  0.22964  0.7236100000000001  1.0000
  C   C54       1.0  0.9383899999999997  0.20266000000000003  0.66096  1.0000
  C   C55       1.0  0.8510399999999999  0.15715  0.61368  1.0000
  C   C56       1.0  0.62539  0.23465000000000005  0.86124  1.0000
  C   C57       1.0  0.71371  0.21339000000000005  0.85213  1.0000
  C   C58       1.0  0.5435500000000001  0.3071999999999999  0.8371600000000001  1.0000
  C   C59       1.0  0.86729  0.23622000000000004  0.80984  1.0000
  C   C60       1.0  0.71423  0.28319  0.81654  1.0000
  C   C61       1.0  0.08448999999999998  0.41675  0.50132  1.0000
  C   C62       1.0  0.13304000000000005  0.36862000000000006  0.5040900000000001  1.0000
  C   C63       1.0  0.07431  0.30561  0.46733  1.0000
  C   C64       1.0  0.11851999999999997  0.25921  0.46775  1.0000
  C   C65       1.0  0.22540999999999994  0.27677  0.50646  1.0000
  C   C66       1.0  0.2780299999999999  0.33954  0.54252  1.0000
  C   C67       1.0  0.23861999999999994  0.38678999999999997  0.54376  1.0000
  C   C68       1.0  0.76359  0.13837000000000002  0.37295  1.0000
  C   C69       1.0  0.8607  0.14749  0.36044  1.0000
  C   C70       1.0  0.7070299999999999  0.16302999999999998  0.46999  1.0000
  C   C71       1.0  0.05733000000000003  0.19091000000000002  0.42522000000000004  1.0000
  C   C72       1.0  0.8981899999999997  0.18458999999999998  0.46624  1.0000
  C   C73       1.0  0.66625  0.58398  0.08559  1.0000
  C   C74       1.0  0.7632899999999999  0.63221  0.1363  1.0000
  C   C75       1.0  0.7681999999999999  0.69526  0.16267  1.0000
  C   C76       1.0  0.8594599999999997  0.74157  0.20936  1.0000
  C   C77       1.0  0.94869  0.7237  0.22984  1.0000
  C   C78       1.0  0.93812  0.66104  0.20282  1.0000
  C   C79       1.0  0.8508399999999998  0.6138  0.1572  1.0000
  C   C80       1.0  0.62513  0.86109  0.23473000000000005  1.0000
  C   C81       1.0  0.7135199999999999  0.8521600000000001  0.21348  1.0000
  C   C82       1.0  0.54352  0.8368199999999999  0.30726  1.0000
  C   C83       1.0  0.86739  0.81001  0.23628000000000002  1.0000
  C   C84       1.0  0.71425  0.8164  0.28316  1.0000
  C   C85       1.0  0.08458000000000002  0.50126  0.41669000000000006  1.0000
  C   C86       1.0  0.13302  0.50392  0.36849  1.0000
  C   C87       1.0  0.07380999999999999  0.46778  0.3055  1.0000
  C   C88       1.0  0.11800999999999993  0.46831999999999996  0.25913  1.0000
  C   C89       1.0  0.22542  0.50655  0.27673000000000003  1.0000
  C   C90       1.0  0.27840999999999994  0.54187  0.33937000000000006  1.0000
  C   C91       1.0  0.23911  0.54302  0.38661000000000006  1.0000
  C   C92       1.0  0.76266  0.37328  0.13857  1.0000
  C   C93       1.0  0.8600599999999997  0.36108000000000007  0.14772  1.0000
  C   C94       1.0  0.7051599999999999  0.47004000000000007  0.16304  1.0000
  C   C95       1.0  0.05641000000000001  0.42633  0.19081  1.0000
  C   C96       1.0  0.8965899999999998  0.46680999999999995  0.18466  1.0000
  C   C97       1.0  0.58465  0.91626  0.50055  1.0000
  C   C98       1.0  0.6306099999999999  0.8653299999999999  0.4976300000000001  1.0000
  C   C99       1.0  0.60838  0.83851  0.5338  1.0000
  C   C100      1.0  0.65134  0.79112  0.53252  1.0000
  C   C101      1.0  0.7194199999999997  0.77028  0.49376  1.0000
  C   C102      1.0  0.7366799999999999  0.79781  0.45868000000000003  1.0000
  C   C103      1.0  0.69663  0.84416  0.45798  1.0000
  C   C104      1.0  0.39085999999999993  0.76508  0.62649  1.0000
  C   C105      1.0  0.5006  0.78657  0.63888  1.0000
  C   C106      1.0  0.23631000000000005  0.6925800000000001  0.5292300000000001  1.0000
  C   C107      1.0  0.6316999999999998  0.76427  0.57396  1.0000
  C   C108      1.0  0.4312599999999999  0.71746  0.53313  1.0000
  C   C109      1.0  0.4154899999999999  0.49923  0.08354000000000002  1.0000
  C   C110      1.0  0.36908999999999986  0.5022  0.13435  1.0000
  C   C111      1.0  0.39171999999999996  0.46635999999999994  0.16147  1.0000
  C   C112      1.0  0.34868999999999994  0.46772  0.20885  1.0000
  C   C113      1.0  0.28021  0.50627  0.2295  1.0000
  C   C114      1.0  0.26266  0.54116  0.20175  1.0000
  C   C115      1.0  0.30277000000000004  0.5416900000000002  0.15533  1.0000
  C   C116      1.0  0.6090299999999998  0.37356  0.23487  1.0000
  C   C117      1.0  0.49933999999999995  0.36129  0.21331000000000003  1.0000
  C   C118      1.0  0.76376  0.47065  0.30742  1.0000
  C   C119      1.0  0.36849  0.4263  0.23566  1.0000
  C   C120      1.0  0.56898  0.46703999999999996  0.28241  1.0000
  C   C121      1.0  0.3342  0.91432  0.4158800000000001  1.0000
  C   C122      1.0  0.23713  0.86363  0.36799  1.0000
  C   C123      1.0  0.23204999999999998  0.83716  0.30494  1.0000
  C   C124      1.0  0.14044000000000006  0.79077  0.2587400000000001  1.0000
  C   C125      1.0  0.05114999999999997  0.77053  0.27673000000000003  1.0000
  C   C126      1.0  0.06189999999999999  0.79746  0.33941  1.0000
  C   C127      1.0  0.14959000000000003  0.84294  0.38650000000000007  1.0000
  C   C128      1.0  0.37428000000000006  0.7652000000000001  0.139  1.0000
  C   C129      1.0  0.28611  0.78661  0.14812  1.0000
  C   C130      1.0  0.45549999999999985  0.6923699999999999  0.1629  1.0000
  C   C131      1.0  0.13227  0.76394  0.19029000000000001  1.0000
  C   C132      1.0  0.28503  0.71673  0.18363  1.0000
  C   C133      1.0  0.91539  0.58326  0.49875  1.0000
  C   C134      1.0  0.8667399999999998  0.63135  0.49597  1.0000
  C   C135      1.0  0.9258199999999999  0.6943600000000001  0.53215  1.0000
  C   C136      1.0  0.8816199999999998  0.74073  0.53164  1.0000
  C   C137      1.0  0.7742400000000003  0.72306  0.49342  1.0000
  C   C138      1.0  0.72149  0.66039  0.45796000000000003  1.0000
  C   C139      1.0  0.76064  0.6130799999999998  0.4567  1.0000
  C   C140      1.0  0.23685  0.86131  0.62649  1.0000
  C   C141      1.0  0.13945000000000002  0.85222  0.63875  1.0000
  C   C142      1.0  0.29431  0.83681  0.52975  1.0000
  C   C143      1.0  0.94311  0.80907  0.57352  1.0000
  C   C144      1.0  0.10284  0.8153  0.533  1.0000
  N   N1        1.0  0.2342799999999999  0.17481999999999992  0.75665  1.0000
  N   N2        1.0  0.3724299999999999  0.16091  0.72385  1.0000
  N   N3        1.0  0.05971000000000001  0.58255  0.8242100000000001  1.0000
  N   N4        1.0  0.21139  0.56332  0.8386  1.0000
  N   N5        1.0  0.47579999999999995  0.24204000000000006  0.4174600000000001  1.0000
  N   N6        1.0  0.6469099999999998  0.27544  0.43667  1.0000
  N   N7        1.0  0.52402  0.5826  0.75819  1.0000
  N   N8        1.0  0.35291999999999996  0.5633300000000001  0.7245800000000001  1.0000
  N   N9        1.0  0.76552  0.24324  0.8250200000000001  1.0000
  N   N10       1.0  0.62755  0.27615000000000006  0.83916  1.0000
  N   N11       1.0  0.94032  0.17570000000000002  0.41747000000000006  1.0000
  N   N12       1.0  0.78867  0.16128999999999996  0.43674  1.0000
  N   N13       1.0  0.7655099999999999  0.82506  0.24328  1.0000
  N   N14       1.0  0.62742  0.8389100000000002  0.27615  1.0000
  N   N15       1.0  0.9392900000000001  0.41826  0.17585  1.0000
  N   N16       1.0  0.78718  0.43705  0.1614  1.0000
  N   N17       1.0  0.52258  0.75732  0.58181  1.0000
  N   N18       1.0  0.3514699999999999  0.72395  0.56269  1.0000
  N   N19       1.0  0.47757999999999995  0.41843  0.24254  1.0000
  N   N20       1.0  0.64859  0.43736  0.27597  1.0000
  N   N21       1.0  0.23402  0.75677  0.17515  1.0000
  N   N22       1.0  0.37178  0.72364  0.16103  1.0000
  N   N23       1.0  0.0602  0.82411  0.58158  1.0000
  N   N24       1.0  0.21226000000000003  0.8384999999999999  0.56273  1.0000
  O   O1        1.0  0.4097799999999998  0.39734  0.93426  1.0000
  O   O2        1.0  0.33382  0.47243000000000007  0.9346000000000001  1.0000
  O   O3        1.0  0.009429999999999982  0.53762  0.60231  1.0000
  O   O4        1.0  0.85942  0.46211  0.52655  1.0000
  O   O5        1.0  0.4705899999999999  0.0638  0.46098  1.0000
  O   O6        1.0  0.39578  0.06366999999999999  0.53617  1.0000
  O   O7        1.0  0.52862  0.53887  0.93587  1.0000
  O   O8        1.0  0.6044699999999998  0.46420000000000006  0.9365700000000001  1.0000
  O   O9        1.0  0.5911999999999998  0.06564000000000005  0.6024300000000001  1.0000
  O   O10       1.0  0.66604  0.06584000000000001  0.5272  1.0000
  O   O11       1.0  0.9903899999999998  0.39773  0.46248  1.0000
  O   O12       1.0  0.14053  0.47344  0.53795  1.0000
  O   O13       1.0  0.59061  0.6025  0.06575  1.0000
  O   O14       1.0  0.6664499999999999  0.52747  0.06559  1.0000
  O   O15       1.0  0.9905200000000003  0.46237000000000006  0.39769  1.0000
  O   O16       1.0  0.14055000000000004  0.53799  0.47338  1.0000
  O   O17       1.0  0.52896  0.93603  0.539  1.0000
  O   O18       1.0  0.60441  0.93653  0.46419  1.0000
  O   O19       1.0  0.4718399999999999  0.4610600000000001  0.06415  1.0000
  O   O20       1.0  0.39553  0.53553  0.06325000000000001  1.0000
  O   O21       1.0  0.40975  0.93414  0.3972300000000001  1.0000
  O   O22       1.0  0.33427999999999997  0.9346  0.4725  1.0000
  O   O23       1.0  0.009350000000000046  0.6022900000000002  0.53764  1.0000
  O   O24       1.0  0.85945  0.52655  0.46199  1.0000
