data_image0
_chemical_formula_structural       Cd12H56C120N16O48
_chemical_formula_sum              "Cd12 H56 C120 N16 O48"
_cell_length_a       18.92171
_cell_length_b       19.81447
_cell_length_c       23.589930000000003
_cell_angle_alpha    91.05399000000001
_cell_angle_beta     113.44873
_cell_angle_gamma    118.40633000000001

_symmetry_space_group_name_H-M    'P 1'
_symmetry_Int_Tables_number       1

loop_
  _symmetry_equiv_pos_as_xyz
  'x,y,z'

loop_
  _atom_site_type_symbol
  _atom_site_label
  _atom_site_symmetry_multiplicity
  _atom_site_fract_x
  _atom_site_fract_y
  _atom_site_fract_z
  _atom_site_occupancy
  Cd  Cd1       1.0  0.77379  0.11019000000000002  0.6978400000000001  1.0000
  Cd  Cd2       1.0  0.84102  0.3184  0.67455  1.0000
  Cd  Cd3       1.0  0.5580999999999998  0.31148  0.94552  1.0000
  Cd  Cd4       1.0  0.46466000000000024  0.38915  0.8013200000000003  1.0000
  Cd  Cd5       1.0  0.34762999999999994  0.18202999999999991  0.82538  1.0000
  Cd  Cd6       1.0  0.80033  0.1876  0.55397  1.0000
  Cd  Cd7       1.0  0.22620999999999986  0.8898099999999998  0.30216  1.0000
  Cd  Cd8       1.0  0.15899000000000002  0.68161  0.3254500000000001  1.0000
  Cd  Cd9       1.0  0.4419  0.68852  0.054480000000000015  1.0000
  Cd  Cd10      1.0  0.53535  0.61085  0.19868  1.0000
  Cd  Cd11      1.0  0.65238  0.81798  0.17462  1.0000
  Cd  Cd12      1.0  0.19966999999999993  0.8124  0.4460300000000001  1.0000
  H   H1        1.0  0.652  0.32126  0.75089  1.0000
  H   H2        1.0  0.75417  0.17085  0.82658  1.0000
  H   H3        1.0  0.54682  0.16838999999999996  0.86127  1.0000
  H   H4        1.0  0.72057  0.08175  0.99078  1.0000
  H   H5        1.0  0.43102000000000007  0.9498799999999998  0.8779600000000001  1.0000
  H   H6        1.0  0.7057799999999999  0.9948599999999999  0.06739  1.0000
  H   H7        1.0  0.4165299999999999  0.86067  0.9527600000000002  1.0000
  H   H8        1.0  0.52106  0.97241  0.44151  1.0000
  H   H9        1.0  0.67705  0.91892  0.60435  1.0000
  H   H10       1.0  0.39019000000000004  0.75536  0.49320000000000014  1.0000
  H   H11       1.0  0.6236599999999999  0.7328699999999998  0.67886  1.0000
  H   H12       1.0  0.33432  0.58703  0.56855  1.0000
  H   H13       1.0  0.6205299999999999  0.63441  0.7458800000000001  1.0000
  H   H14       1.0  0.3314299999999999  0.48824999999999996  0.63473  1.0000
  H   H15       1.0  0.07927000000000002  0.17826000000000006  0.74895  1.0000
  H   H16       1.0  0.25619  0.32944  0.67374  1.0000
  H   H17       1.0  0.015519999999999983  0.33012999999999987  0.6381100000000001  1.0000
  H   H18       1.0  0.14944  0.41917  0.50924  1.0000
  H   H19       1.0  0.10263  0.55039  0.62233  1.0000
  H   H20       1.0  0.14400000000000002  0.50561  0.43256  1.0000
  H   H21       1.0  0.10190999999999996  0.63932  0.54738  1.0000
  H   H22       1.0  0.60614  0.52635  0.05734  1.0000
  H   H23       1.0  0.6523499999999999  0.58063  0.8939  1.0000
  H   H24       1.0  0.6422  0.74499  0.00759  1.0000
  H   H25       1.0  0.71247  0.76665  0.82114  1.0000
  H   H26       1.0  0.67862  0.91348  0.93133  1.0000
  H   H27       1.0  0.7401000000000002  0.86448  0.7534500000000001  1.0000
  H   H28       1.0  0.7064  0.011019999999999993  0.86395  1.0000
  H   H29       1.0  0.34800000000000003  0.6787400000000001  0.24911  1.0000
  H   H30       1.0  0.2458399999999998  0.8291499999999998  0.17342  1.0000
  H   H31       1.0  0.45319  0.83161  0.13873  1.0000
  H   H32       1.0  0.27944  0.91825  0.00922  1.0000
  H   H33       1.0  0.56898  0.05013000000000001  0.12203000000000001  1.0000
  H   H34       1.0  0.2942300000000001  0.0051499999999999975  0.93261  1.0000
  H   H35       1.0  0.58348  0.13932999999999995  0.04723000000000001  1.0000
  H   H36       1.0  0.47894999999999993  0.027590000000000007  0.55848  1.0000
  H   H37       1.0  0.32295000000000007  0.08109000000000001  0.39565000000000006  1.0000
  H   H38       1.0  0.6098200000000001  0.24464000000000002  0.5068000000000001  1.0000
  H   H39       1.0  0.3763500000000001  0.26713000000000003  0.32114000000000004  1.0000
  H   H40       1.0  0.66569  0.41297  0.43145000000000006  1.0000
  H   H41       1.0  0.37948  0.36559  0.25412  1.0000
  H   H42       1.0  0.66858  0.51176  0.36527  1.0000
  H   H43       1.0  0.9207300000000002  0.82174  0.25105  1.0000
  H   H44       1.0  0.74382  0.6705599999999999  0.32626  1.0000
  H   H45       1.0  0.9844899999999999  0.6698699999999997  0.36189000000000004  1.0000
  H   H46       1.0  0.8505699999999999  0.58083  0.49075  1.0000
  H   H47       1.0  0.89737  0.44962  0.37767  1.0000
  H   H48       1.0  0.85601  0.49439  0.56744  1.0000
  H   H49       1.0  0.8980999999999999  0.36068  0.45262  1.0000
  H   H50       1.0  0.3938599999999999  0.47366  0.94266  1.0000
  H   H51       1.0  0.34765999999999997  0.41936999999999997  0.1061  1.0000
  H   H52       1.0  0.35781  0.25501000000000007  0.9924000000000001  1.0000
  H   H53       1.0  0.28753  0.23334999999999997  0.17885  1.0000
  H   H54       1.0  0.32139  0.08653  0.06867  1.0000
  H   H55       1.0  0.25991  0.13551999999999997  0.24655  1.0000
  H   H56       1.0  0.2936099999999998  0.9889899999999999  0.13604  1.0000
  C   C1        1.0  0.6510700000000003  0.27704000000000006  0.7776900000000002  1.0000
  C   C2        1.0  0.7683100000000002  0.27788000000000007  0.7536300000000001  1.0000
  C   C3        1.0  0.70905  0.24902  0.78529  1.0000
  C   C4        1.0  0.59282  0.24851999999999996  0.80555  1.0000
  C   C5        1.0  0.53477  0.28057  0.80258  1.0000
  C   C6        1.0  0.70959  0.19296  0.82077  1.0000
  C   C7        1.0  0.59138  0.19108999999999995  0.83928  1.0000
  C   C8        1.0  0.6490400000000001  0.1629300000000001  0.8466800000000002  1.0000
  C   C9        1.0  0.5763700000000002  0.018560000000000014  0.9292800000000001  1.0000
  C   C10       1.0  0.6549000000000001  0.03289999999999999  0.9830700000000001  1.0000
  C   C11       1.0  0.49021  0.95749  0.91892  1.0000
  C   C12       1.0  0.64652  0.98508  0.025250000000000005  1.0000
  C   C13       1.0  0.48241999999999996  0.90871  0.96035  1.0000
  C   C14       1.0  0.56052  0.9221599999999999  0.01374  1.0000
  C   C15       1.0  0.55199  0.86774  0.05679000000000001  1.0000
  C   C16       1.0  0.52483  0.93259  0.47204  1.0000
  C   C17       1.0  0.68855  0.03248000000000001  0.53679  1.0000
  C   C18       1.0  0.60798  0.95336  0.52344  1.0000
  C   C19       1.0  0.4459  0.8617599999999999  0.46180000000000004  1.0000
  C   C20       1.0  0.35587  0.84315  0.41117  1.0000
  C   C21       1.0  0.6132100000000003  0.9024  0.56335  1.0000
  C   C22       1.0  0.45096  0.8104499999999999  0.50095  1.0000
  C   C23       1.0  0.5347400000000001  0.8297900000000001  0.55121  1.0000
  C   C24       1.0  0.47892  0.6653399999999999  0.62002  1.0000
  C   C25       1.0  0.56065  0.67931  0.66998  1.0000
  C   C26       1.0  0.39638999999999996  0.5962899999999999  0.6073400000000001  1.0000
  C   C27       1.0  0.55875  0.6250499999999998  0.70668  1.0000
  C   C28       1.0  0.39487  0.54181  0.64403  1.0000
  C   C29       1.0  0.47611999999999993  0.5560299999999998  0.6942100000000001  1.0000
  C   C30       1.0  0.47518  0.49856  0.73455  1.0000
  C   C31       1.0  0.09562  0.2226  0.7222500000000001  1.0000
  C   C32       1.0  0.23606000000000005  0.2221  0.7468000000000001  1.0000
  C   C33       1.0  0.17422000000000015  0.25099000000000005  0.7149000000000001  1.0000
  C   C34       1.0  0.0377800000000001  0.25072000000000005  0.6942300000000001  1.0000
  C   C35       1.0  0.95079  0.21852999999999997  0.69735  1.0000
  C   C36       1.0  0.19514000000000012  0.30694000000000005  0.6793200000000001  1.0000
  C   C37       1.0  0.05976999999999997  0.30796999999999997  0.6602800000000001  1.0000
  C   C38       1.0  0.13831999999999997  0.33648  0.65304  1.0000
  C   C39       1.0  0.12864999999999996  0.48172  0.57088  1.0000
  C   C40       1.0  0.13973  0.46774999999999994  0.51709  1.0000
  C   C41       1.0  0.11352000000000002  0.54274  0.58134  1.0000
  C   C42       1.0  0.13655  0.51543  0.47482  1.0000
  C   C43       1.0  0.11281999999999999  0.5915  0.53989  1.0000
  C   C44       1.0  0.1242200000000001  0.57805  0.48633  1.0000
  C   C45       1.0  0.12654999999999994  0.6321899999999999  0.44308000000000003  1.0000
  C   C46       1.0  0.6194999999999998  0.5665399999999998  0.02703  1.0000
  C   C47       1.0  0.61872  0.4669100000000001  0.9612600000000002  1.0000
  C   C48       1.0  0.63038  0.54598  0.97519  1.0000
  C   C49       1.0  0.62206  0.63766  0.037950000000000005  1.0000
  C   C50       1.0  0.6014  0.65621  0.08892000000000001  1.0000
  C   C51       1.0  0.64653  0.59719  0.93541  1.0000
  C   C52       1.0  0.63963  0.6895599999999998  0.99919  1.0000
  C   C53       1.0  0.65335  0.6701  0.94842  1.0000
  C   C54       1.0  0.6939600000000002  0.83482  0.8800200000000002  1.0000
  C   C55       1.0  0.7116600000000001  0.82026  0.8298800000000001  1.0000
  C   C56       1.0  0.6925900000000001  0.9038300000000001  0.8924  1.0000
  C   C57       1.0  0.7267900000000002  0.87406  0.7927500000000002  1.0000
  C   C58       1.0  0.7078299999999998  0.9576399999999999  0.85505  1.0000
  C   C59       1.0  0.7248100000000002  0.94292  0.8048000000000001  1.0000
  C   C60       1.0  0.7408699999999999  0.99974  0.7639100000000001  1.0000
  C   C61       1.0  0.34893999999999986  0.7229599999999998  0.22231000000000004  1.0000
  C   C62       1.0  0.23169000000000012  0.72212  0.24637  1.0000
  C   C63       1.0  0.29094999999999993  0.7509899999999999  0.21471000000000004  1.0000
  C   C64       1.0  0.40719  0.75148  0.19445000000000004  1.0000
  C   C65       1.0  0.46524  0.71944  0.19742  1.0000
  C   C66       1.0  0.2904099999999999  0.8070499999999998  0.17923000000000003  1.0000
  C   C67       1.0  0.40863  0.80891  0.16072  1.0000
  C   C68       1.0  0.35097  0.83707  0.15332  1.0000
  C   C69       1.0  0.4236399999999999  0.9814399999999999  0.07072  1.0000
  C   C70       1.0  0.34509999999999996  0.96711  0.01692  1.0000
  C   C71       1.0  0.50979  0.042510000000000006  0.08108000000000001  1.0000
  C   C72       1.0  0.35349  0.01492  0.9747400000000002  1.0000
  C   C73       1.0  0.51758  0.09129  0.03965  1.0000
  C   C74       1.0  0.43949000000000016  0.07784000000000005  0.9862600000000002  1.0000
  C   C75       1.0  0.44801000000000013  0.13226000000000002  0.9432000000000001  1.0000
  C   C76       1.0  0.4751800000000001  0.06742000000000004  0.5279600000000001  1.0000
  C   C77       1.0  0.3114599999999999  0.9675299999999999  0.46321000000000007  1.0000
  C   C78       1.0  0.39203  0.04663999999999998  0.47656  1.0000
  C   C79       1.0  0.55411  0.13824999999999996  0.5382  1.0000
  C   C80       1.0  0.64414  0.15685  0.58883  1.0000
  C   C81       1.0  0.3868  0.0976  0.43665  1.0000
  C   C82       1.0  0.5490400000000001  0.18956  0.49905000000000005  1.0000
  C   C83       1.0  0.46527000000000013  0.17022000000000004  0.4487900000000001  1.0000
  C   C84       1.0  0.52109  0.33466  0.37997  1.0000
  C   C85       1.0  0.43934999999999996  0.32069  0.33002  1.0000
  C   C86       1.0  0.6036199999999999  0.40371999999999986  0.39266  1.0000
  C   C87       1.0  0.44125999999999993  0.37495999999999996  0.29331  1.0000
  C   C88       1.0  0.60513  0.45818999999999993  0.35597  1.0000
  C   C89       1.0  0.5238800000000001  0.4439699999999999  0.30579000000000006  1.0000
  C   C90       1.0  0.52482  0.50144  0.26544000000000006  1.0000
  C   C91       1.0  0.90438  0.7774  0.27775000000000005  1.0000
  C   C92       1.0  0.7639400000000001  0.7779  0.25320000000000004  1.0000
  C   C93       1.0  0.8257899999999998  0.74901  0.28509000000000007  1.0000
  C   C94       1.0  0.96223  0.74928  0.30577  1.0000
  C   C95       1.0  0.049209999999999865  0.7814699999999998  0.30265  1.0000
  C   C96       1.0  0.8048599999999998  0.6930599999999998  0.3206800000000001  1.0000
  C   C97       1.0  0.9402299999999999  0.69204  0.33972  1.0000
  C   C98       1.0  0.86168  0.66353  0.34696  1.0000
  C   C99       1.0  0.87136  0.51829  0.42912  1.0000
  C   C100      1.0  0.8602799999999999  0.53226  0.48291  1.0000
  C   C101      1.0  0.88648  0.45726  0.41866  1.0000
  C   C102      1.0  0.8634600000000001  0.48456999999999995  0.5251800000000001  1.0000
  C   C103      1.0  0.8871800000000001  0.4085  0.46011  1.0000
  C   C104      1.0  0.8757899999999998  0.42195  0.51367  1.0000
  C   C105      1.0  0.87345  0.3678100000000001  0.5569200000000001  1.0000
  C   C106      1.0  0.38050999999999996  0.4334599999999999  0.97297  1.0000
  C   C107      1.0  0.38129  0.53309  0.03874  1.0000
  C   C108      1.0  0.36963  0.45402  0.0248  1.0000
  C   C109      1.0  0.37794  0.36233999999999994  0.96204  1.0000
  C   C110      1.0  0.3986100000000001  0.3437899999999999  0.9110800000000001  1.0000
  C   C111      1.0  0.35348000000000007  0.40281000000000006  0.06459000000000001  1.0000
  C   C112      1.0  0.36038  0.3104499999999999  0.00081  1.0000
  C   C113      1.0  0.34666  0.32991  0.05158  1.0000
  C   C114      1.0  0.30605  0.16519  0.11998000000000002  1.0000
  C   C115      1.0  0.28835  0.17974000000000004  0.17012  1.0000
  C   C116      1.0  0.30742  0.09618  0.10759000000000003  1.0000
  C   C117      1.0  0.27322  0.12594  0.20725  1.0000
  C   C118      1.0  0.29218  0.042359999999999995  0.14494  1.0000
  C   C119      1.0  0.2752  0.05708  0.19520000000000007  1.0000
  C   C120      1.0  0.25914  0.0002600000000000191  0.23609000000000002  1.0000
  N   N1        1.0  0.65084  0.10736999999999997  0.8835200000000001  1.0000
  N   N2        1.0  0.57636  0.06635999999999999  0.88595  1.0000
  N   N3        1.0  0.54578  0.7803  0.59268  1.0000
  N   N4        1.0  0.4713799999999999  0.7163699999999998  0.57999  1.0000
  N   N5        1.0  0.15913000000000008  0.39216000000000006  0.6162700000000001  1.0000
  N   N6        1.0  0.12351000000000005  0.43351  0.61399  1.0000
  N   N7        1.0  0.67226  0.7196099999999999  0.9069900000000001  1.0000
  N   N8        1.0  0.6758599999999999  0.78423  0.92044  1.0000
  N   N9        1.0  0.34916000000000014  0.89263  0.11647  1.0000
  N   N10       1.0  0.4236500000000001  0.93364  0.11405000000000001  1.0000
  N   N11       1.0  0.45422  0.21969999999999992  0.40732000000000007  1.0000
  N   N12       1.0  0.52863  0.28363  0.42001  1.0000
  N   N13       1.0  0.8408799999999998  0.6078399999999999  0.38372  1.0000
  N   N14       1.0  0.8765  0.56649  0.3860100000000001  1.0000
  N   N15       1.0  0.3277399999999999  0.2803899999999999  0.09301  1.0000
  N   N16       1.0  0.32415  0.21578  0.07955  1.0000
  O   O1        1.0  0.8137200000000001  0.24663000000000002  0.7527600000000001  1.0000
  O   O2        1.0  0.77072  0.33355999999999997  0.72574  1.0000
  O   O3        1.0  0.49291000000000007  0.25694  0.8377600000000001  1.0000
  O   O4        1.0  0.52893  0.32881  0.77013  1.0000
  O   O5        1.0  0.47405  0.8036299999999997  0.03582  1.0000
  O   O6        1.0  0.62238  0.88937  0.10987  1.0000
  O   O7        1.0  0.75823  0.06519  0.59185  1.0000
  O   O8        1.0  0.6846499999999999  0.06901999999999996  0.49195  1.0000
  O   O9        1.0  0.35206  0.88578  0.37237  1.0000
  O   O10       1.0  0.28551  0.78352  0.41234  1.0000
  O   O11       1.0  0.39927  0.4340499999999999  0.71983  1.0000
  O   O12       1.0  0.54851  0.51411  0.78228  1.0000
  O   O13       1.0  0.31326  0.25256  0.74726  1.0000
  O   O14       1.0  0.21084999999999995  0.16712999999999995  0.77525  1.0000
  O   O15       1.0  0.89671  0.24118000000000006  0.6617000000000001  1.0000
  O   O16       1.0  0.9298900000000001  0.17114  0.7305  1.0000
  O   O17       1.0  0.1350300000000001  0.69701  0.4645  1.0000
  O   O18       1.0  0.12058000000000003  0.6096  0.38931000000000004  1.0000
  O   O19       1.0  0.6002800000000001  0.43417999999999995  0.9059600000000002  1.0000
  O   O20       1.0  0.62379  0.43051  0.00622  1.0000
  O   O21       1.0  0.59428  0.61377  0.12791  1.0000
  O   O22       1.0  0.58917  0.71577  0.08792  1.0000
  O   O23       1.0  0.74137  0.06339  0.77722  1.0000
  O   O24       1.0  0.7539300000000001  0.9848299999999999  0.71745  1.0000
  O   O25       1.0  0.18628999999999996  0.7533799999999999  0.24723000000000006  1.0000
  O   O26       1.0  0.22927999999999996  0.6664399999999999  0.27425  1.0000
  O   O27       1.0  0.5070999999999999  0.7430599999999998  0.16224  1.0000
  O   O28       1.0  0.4710699999999998  0.6711999999999998  0.22987000000000002  1.0000
  O   O29       1.0  0.5259500000000001  0.19637000000000004  0.9641800000000003  1.0000
  O   O30       1.0  0.3776300000000001  0.11062999999999995  0.89012  1.0000
  O   O31       1.0  0.24177999999999986  0.93481  0.40815000000000007  1.0000
  O   O32       1.0  0.3153599999999999  0.93098  0.5080500000000001  1.0000
  O   O33       1.0  0.64795  0.11422  0.62762  1.0000
  O   O34       1.0  0.7145  0.21648  0.58766  1.0000
  O   O35       1.0  0.60074  0.56595  0.28017  1.0000
  O   O36       1.0  0.4515  0.48589  0.21771000000000001  1.0000
  O   O37       1.0  0.68675  0.74744  0.25273  1.0000
  O   O38       1.0  0.78916  0.8328699999999999  0.22474000000000002  1.0000
  O   O39       1.0  0.10330000000000003  0.7588300000000001  0.3383  1.0000
  O   O40       1.0  0.07011999999999996  0.82886  0.26949  1.0000
  O   O41       1.0  0.86498  0.30299  0.53549  1.0000
  O   O42       1.0  0.8794300000000002  0.3904  0.61068  1.0000
  O   O43       1.0  0.3997299999999999  0.56583  0.09404  1.0000
  O   O44       1.0  0.37622000000000005  0.56949  0.9937800000000001  1.0000
  O   O45       1.0  0.40573  0.38622999999999996  0.87209  1.0000
  O   O46       1.0  0.41084000000000004  0.28423  0.91208  1.0000
  O   O47       1.0  0.25864  0.93661  0.22278  1.0000
  O   O48       1.0  0.24608000000000002  0.015169999999999987  0.28254  1.0000
