data_image0
_chemical_formula_structural       Ba4H72C136S16O32
_chemical_formula_sum              "Ba4 H72 C136 S16 O32"
_cell_length_a       10.27141
_cell_length_b       21.96202
_cell_length_c       22.79673
_cell_angle_alpha    118.85572
_cell_angle_beta     103.0419
_cell_angle_gamma    89.89021

_space_group_name_H-M_alt    "P 1"
_space_group_IT_number       1

loop_
  _space_group_symop_operation_xyz
  'x, y, z'

loop_
  _atom_site_type_symbol
  _atom_site_label
  _atom_site_symmetry_multiplicity
  _atom_site_fract_x
  _atom_site_fract_y
  _atom_site_fract_z
  _atom_site_occupancy
  Ba  Ba1       1.0  0.19515000000000005  0.4954800000000001  0.9999100000000001  1.0000
  Ba  Ba2       1.0  0.8048600000000001  0.50452  9e-05  1.0000
  Ba  Ba3       1.0  0.30332  0.9956  0.00011  1.0000
  Ba  Ba4       1.0  0.6966800000000001  0.004400000000000057  0.99989  1.0000
  H   H1        1.0  0.10230999999999991  0.52788  0.78014  1.0000
  H   H2        1.0  0.9783599999999999  0.54226  0.68098  1.0000
  H   H3        1.0  0.6160600000000002  0.5584300000000002  0.7503600000000001  1.0000
  H   H4        1.0  0.74275  0.54606  0.85058  1.0000
  H   H5        1.0  0.79829  0.6835400000000001  0.7809900000000001  1.0000
  H   H6        1.0  0.94105  0.7980600000000002  0.8595000000000003  1.0000
  H   H7        1.0  0.98324  0.81353  0.68386  1.0000
  H   H8        1.0  0.84067  0.69887  0.60452  1.0000
  H   H9        1.0  0.16554000000000008  0.95733  0.8318000000000001  1.0000
  H   H10       1.0  0.67663  0.25171  0.77973  1.0000
  H   H11       1.0  0.7032  0.13834999999999997  0.68041  1.0000
  H   H12       1.0  0.134  0.19257  0.75069  1.0000
  H   H13       1.0  0.10632000000000005  0.3049600000000001  0.8511400000000001  1.0000
  H   H14       1.0  0.9827900000000002  0.09785000000000017  0.7812700000000002  1.0000
  H   H15       1.0  0.91882  0.061840000000000006  0.85955  1.0000
  H   H16       1.0  0.70064  0.87057  0.68365  1.0000
  H   H17       1.0  0.76409  0.90601  0.60467  1.0000
  H   H18       1.0  0.66633  0.8748400000000001  0.83186  1.0000
  H   H19       1.0  0.39803  0.24764  0.21961000000000003  1.0000
  H   H20       1.0  0.52213  0.36116  0.31917  1.0000
  H   H21       1.0  0.88405  0.30764  0.24967  1.0000
  H   H22       1.0  0.75742  0.19515000000000002  0.14890000000000003  1.0000
  H   H23       1.0  0.70151  0.40209  0.21838  1.0000
  H   H24       1.0  0.55848  0.43824  0.14037  1.0000
  H   H25       1.0  0.51751  0.63002  0.31644  1.0000
  H   H26       1.0  0.65944  0.59414  0.39525  1.0000
  H   H27       1.0  0.33563  0.62616  0.16794  1.0000
  H   H28       1.0  0.82166  0.97191  0.21985  1.0000
  H   H29       1.0  0.79675  0.9577100000000001  0.31911  1.0000
  H   H30       1.0  0.36528  0.94166  0.24956  1.0000
  H   H31       1.0  0.39177000000000006  0.9538  0.14928  1.0000
  H   H32       1.0  0.51748  0.81664  0.21912000000000004  1.0000
  H   H33       1.0  0.58362  0.7023500000000001  0.14073  1.0000
  H   H34       1.0  0.8005600000000002  0.68684  0.31667  1.0000
  H   H35       1.0  0.7356100000000001  0.8014500000000001  0.39577000000000007  1.0000
  H   H36       1.0  0.83456  0.54246  0.16862000000000002  1.0000
  H   H37       1.0  0.8977  0.47212  0.21986000000000003  1.0000
  H   H38       1.0  0.021649999999999975  0.45774  0.31902  1.0000
  H   H39       1.0  0.38395  0.44157  0.24964  1.0000
  H   H40       1.0  0.25726  0.45394  0.14942  1.0000
  H   H41       1.0  0.20171999999999998  0.31646  0.21901000000000004  1.0000
  H   H42       1.0  0.05894999999999999  0.20193000000000003  0.1405  1.0000
  H   H43       1.0  0.016759999999999997  0.18647  0.31614  1.0000
  H   H44       1.0  0.15934000000000006  0.30113  0.39549  1.0000
  H   H45       1.0  0.83447  0.04267000000000002  0.16820000000000002  1.0000
  H   H46       1.0  0.32338  0.74829  0.22027000000000002  1.0000
  H   H47       1.0  0.2968  0.86164  0.31959  1.0000
  H   H48       1.0  0.86601  0.8074200000000001  0.24931  1.0000
  H   H49       1.0  0.89369  0.69503  0.14886  1.0000
  H   H50       1.0  0.01720999999999998  0.9021500000000001  0.21874  1.0000
  H   H51       1.0  0.08119  0.9381500000000002  0.14045  1.0000
  H   H52       1.0  0.29937  0.12943  0.31635  1.0000
  H   H53       1.0  0.23590999999999998  0.09398  0.39533  1.0000
  H   H54       1.0  0.3336700000000001  0.12516000000000002  0.16814000000000004  1.0000
  H   H55       1.0  0.60198  0.75236  0.78039  1.0000
  H   H56       1.0  0.4778700000000001  0.6388400000000001  0.6808300000000002  1.0000
  H   H57       1.0  0.11595999999999998  0.69236  0.75033  1.0000
  H   H58       1.0  0.24258  0.8048500000000001  0.8511100000000001  1.0000
  H   H59       1.0  0.29849000000000003  0.5979100000000002  0.7816200000000002  1.0000
  H   H60       1.0  0.44152  0.56176  0.85963  1.0000
  H   H61       1.0  0.4825000000000001  0.3699800000000001  0.6835600000000001  1.0000
  H   H62       1.0  0.34057  0.40586  0.60475  1.0000
  H   H63       1.0  0.66438  0.3738400000000001  0.8320600000000001  1.0000
  H   H64       1.0  0.17835  0.028089999999999983  0.78015  1.0000
  H   H65       1.0  0.20325  0.04228999999999998  0.68089  1.0000
  H   H66       1.0  0.63472  0.05833999999999998  0.7504400000000001  1.0000
  H   H67       1.0  0.6082400000000001  0.04620000000000007  0.8507200000000001  1.0000
  H   H68       1.0  0.48252999999999996  0.1833600000000001  0.78088  1.0000
  H   H69       1.0  0.41639  0.2976499999999999  0.85927  1.0000
  H   H70       1.0  0.19944  0.31316  0.68333  1.0000
  H   H71       1.0  0.26439  0.19854999999999995  0.60424  1.0000
  H   H72       1.0  0.16545  0.45754000000000006  0.83138  1.0000
  C   C1        1.0  0.92979  0.53632  0.82162  1.0000
  C   C2        1.0  0.9964100000000001  0.5353500000000001  0.77382  1.0000
  C   C3        1.0  0.9273500000000001  0.54359  0.71849  1.0000
  C   C4        1.0  0.79015  0.55252  0.71025  1.0000
  C   C5        1.0  0.72272  0.55228  0.75734  1.0000
  C   C6        1.0  0.79272  0.5449600000000001  0.8129300000000002  1.0000
  C   C7        1.0  0.002690000000000165  0.5285600000000001  0.8819200000000003  1.0000
  C   C8        1.0  0.71426  0.5594300000000001  0.6509000000000001  1.0000
  C   C9        1.0  0.72526  0.6148  0.63983  1.0000
  C   C10       1.0  0.81017  0.68221  0.68678  1.0000
  C   C11       1.0  0.8398099999999998  0.71128  0.75945  1.0000
  C   C12       1.0  0.9193800000000002  0.7754100000000003  0.8035500000000001  1.0000
  C   C13       1.0  0.9721099999999999  0.81272  0.77678  1.0000
  C   C14       1.0  0.94206  0.7848  0.70464  1.0000
  C   C15       1.0  0.8616599999999999  0.72073  0.66038  1.0000
  C   C16       1.0  0.05983999999999997  0.87996  0.82538  1.0000
  C   C17       1.0  0.54584  0.5189  0.5311  1.0000
  C   C18       1.0  0.8902600000000002  0.28523  0.8219000000000001  1.0000
  C   C19       1.0  0.7764500000000001  0.23819000000000007  0.77366  1.0000
  C   C20       1.0  0.79107  0.17483000000000007  0.7182100000000001  1.0000
  C   C21       1.0  0.9203000000000001  0.15797999999999998  0.71029  1.0000
  C   C22       1.0  0.03421999999999997  0.20555999999999994  0.75762  1.0000
  C   C23       1.0  0.01896999999999994  0.2683  0.81335  1.0000
  C   C24       1.0  0.8766800000000002  0.35306000000000004  0.8824500000000001  1.0000
  C   C25       1.0  0.9373500000000001  0.09165000000000005  0.6510600000000001  1.0000
  C   C26       1.0  0.9149299999999999  0.025210000000000024  0.6399500000000001  1.0000
  C   C27       1.0  0.87682  0.004899999999999991  0.68694  1.0000
  C   C28       1.0  0.91982  0.048490000000000054  0.75959  1.0000
  C   C29       1.0  0.8844099999999999  0.02841  0.80365  1.0000
  C   C30       1.0  0.80467  0.96435  0.77688  1.0000
  C   C31       1.0  0.76274  0.9201400000000001  0.70472  1.0000
  C   C32       1.0  0.79897  0.9399600000000001  0.66053  1.0000
  C   C33       1.0  0.76525  0.9457  0.82541  1.0000
  C   C34       1.0  0.98534  0.012190000000000013  0.53112  1.0000
  C   C35       1.0  0.57027  0.21444  0.17801  1.0000
  C   C36       1.0  0.5039  0.26137  0.22602  1.0000
  C   C37       1.0  0.57297  0.32482000000000005  0.28156000000000003  1.0000
  C   C38       1.0  0.71011  0.34183  0.28982  1.0000
  C   C39       1.0  0.77743  0.29444  0.24255000000000002  1.0000
  C   C40       1.0  0.70737  0.23165000000000002  0.18668  1.0000
  C   C41       1.0  0.49667999999999995  0.14651  0.11756000000000001  1.0000
  C   C42       1.0  0.7858  0.40818  0.34912  1.0000
  C   C43       1.0  0.77454  0.47457  0.35996000000000006  1.0000
  C   C44       1.0  0.68959  0.495  0.31293  1.0000
  C   C45       1.0  0.66001  0.45149  0.24023000000000003  1.0000
  C   C46       1.0  0.58006  0.47167  0.19629  1.0000
  C   C47       1.0  0.52685  0.5357900000000001  0.22314000000000003  1.0000
  C   C48       1.0  0.55797  0.5802  0.2953  1.0000
  C   C49       1.0  0.6384  0.56014  0.33938  1.0000
  C   C50       1.0  0.43779  0.55427  0.17469  1.0000
  C   C51       1.0  0.95415  0.48776  0.46889  1.0000
  C   C52       1.0  0.60767  0.96346  0.17831  1.0000
  C   C53       1.0  0.72212  0.9644800000000001  0.22615  1.0000
  C   C54       1.0  0.70835  0.9563800000000001  0.28154  1.0000
  C   C55       1.0  0.57944  0.94753  0.28974  1.0000
  C   C56       1.0  0.46492  0.94771  0.24259  1.0000
  C   C57       1.0  0.47935000000000005  0.9548900000000001  0.18698000000000004  1.0000
  C   C58       1.0  0.61943  0.97139  0.11804  1.0000
  C   C59       1.0  0.56293  0.9407200000000001  0.34911  1.0000
  C   C60       1.0  0.58496  0.8852800000000001  0.3601  1.0000
  C   C61       1.0  0.62342  0.81792  0.31326  1.0000
  C   C62       1.0  0.58087  0.78887  0.24063  1.0000
  C   C63       1.0  0.61732  0.72485  0.19666  1.0000
  C   C64       1.0  0.6972  0.68766  0.22365  1.0000
  C   C65       1.0  0.73837  0.71552  0.29578  1.0000
  C   C66       1.0  0.70138  0.77949  0.33987  1.0000
  C   C67       1.0  0.73756  0.62052  0.17535  1.0000
  C   C68       1.0  0.51473  0.98116  0.4689  1.0000
  C   C69       1.0  0.07022  0.46368  0.17839  1.0000
  C   C70       1.0  0.003599999999999985  0.46465  0.22618  1.0000
  C   C71       1.0  0.07265  0.45641000000000004  0.28151  1.0000
  C   C72       1.0  0.20985  0.44748000000000004  0.28976  1.0000
  C   C73       1.0  0.27729  0.44772000000000006  0.24266  1.0000
  C   C74       1.0  0.20728000000000002  0.45504  0.18707  1.0000
  C   C75       1.0  0.99731  0.47144  0.11808000000000002  1.0000
  C   C76       1.0  0.28574  0.44057  0.3491  1.0000
  C   C77       1.0  0.27474  0.3852  0.36017  1.0000
  C   C78       1.0  0.18984  0.31779  0.31322  1.0000
  C   C79       1.0  0.16019999999999998  0.28872000000000003  0.24055000000000004  1.0000
  C   C80       1.0  0.08063000000000001  0.22458000000000006  0.19645000000000007  1.0000
  C   C81       1.0  0.02788999999999998  0.18727000000000002  0.22322  1.0000
  C   C82       1.0  0.057940000000000026  0.21520000000000006  0.29536000000000007  1.0000
  C   C83       1.0  0.13835  0.27927  0.33962  1.0000
  C   C84       1.0  0.9401599999999999  0.12004000000000001  0.17463  1.0000
  C   C85       1.0  0.45417  0.4811  0.46891  1.0000
  C   C86       1.0  0.10973999999999999  0.71477  0.1781  1.0000
  C   C87       1.0  0.22355  0.7618000000000001  0.22634  1.0000
  C   C88       1.0  0.20894000000000001  0.8251700000000001  0.28179000000000004  1.0000
  C   C89       1.0  0.0797  0.84202  0.28971  1.0000
  C   C90       1.0  0.9657799999999999  0.7944400000000001  0.24238000000000004  1.0000
  C   C91       1.0  0.98103  0.7317000000000001  0.18666  1.0000
  C   C92       1.0  0.12333000000000001  0.64694  0.11755000000000002  1.0000
  C   C93       1.0  0.06265000000000004  0.90834  0.3489400000000001  1.0000
  C   C94       1.0  0.08507000000000003  0.9747800000000001  0.36005  1.0000
  C   C95       1.0  0.12318000000000001  0.99509  0.31306000000000006  1.0000
  C   C96       1.0  0.08018  0.95151  0.24041000000000004  1.0000
  C   C97       1.0  0.11559  0.97159  0.19635  1.0000
  C   C98       1.0  0.19534000000000007  0.03565000000000002  0.22312000000000004  1.0000
  C   C99       1.0  0.23727  0.07986000000000003  0.29528  1.0000
  C   C100      1.0  0.20102999999999996  0.06003000000000001  0.33947  1.0000
  C   C101      1.0  0.23475  0.0543  0.1746  1.0000
  C   C102      1.0  0.014660000000000013  0.9878100000000001  0.46888  1.0000
  C   C103      1.0  0.42973  0.7855600000000001  0.82199  1.0000
  C   C104      1.0  0.49609999999999993  0.73863  0.77398  1.0000
  C   C105      1.0  0.42704000000000003  0.6751800000000001  0.71844  1.0000
  C   C106      1.0  0.2899  0.6581700000000001  0.71018  1.0000
  C   C107      1.0  0.22257  0.70556  0.75745  1.0000
  C   C108      1.0  0.2926299999999999  0.7683500000000001  0.81332  1.0000
  C   C109      1.0  0.5033200000000001  0.85349  0.8824400000000001  1.0000
  C   C110      1.0  0.21419999999999997  0.59181  0.65088  1.0000
  C   C111      1.0  0.22546  0.52542  0.64004  1.0000
  C   C112      1.0  0.31041  0.505  0.68708  1.0000
  C   C113      1.0  0.3399900000000001  0.5485100000000002  0.7597700000000002  1.0000
  C   C114      1.0  0.4199400000000001  0.5283300000000001  0.8037100000000001  1.0000
  C   C115      1.0  0.47315  0.46421  0.77686  1.0000
  C   C116      1.0  0.44204000000000004  0.4198  0.7047  1.0000
  C   C117      1.0  0.3616  0.43986000000000003  0.66062  1.0000
  C   C118      1.0  0.56222  0.44573  0.82531  1.0000
  C   C119      1.0  0.04585  0.51224  0.53111  1.0000
  C   C120      1.0  0.39234000000000013  0.036540000000000065  0.8216900000000003  1.0000
  C   C121      1.0  0.27788  0.03551000000000006  0.77385  1.0000
  C   C122      1.0  0.29166  0.043620000000000034  0.71847  1.0000
  C   C123      1.0  0.42056  0.05246999999999997  0.71026  1.0000
  C   C124      1.0  0.53508  0.05229000000000005  0.7574100000000001  1.0000
  C   C125      1.0  0.52065  0.04509999999999991  0.81302  1.0000
  C   C126      1.0  0.3805700000000001  0.028600000000000004  0.8819600000000001  1.0000
  C   C127      1.0  0.43708  0.059279999999999985  0.65089  1.0000
  C   C128      1.0  0.41503999999999996  0.11471000000000003  0.6399  1.0000
  C   C129      1.0  0.37659000000000004  0.18208000000000005  0.6867400000000001  1.0000
  C   C130      1.0  0.41914  0.2111300000000001  0.75937  1.0000
  C   C131      1.0  0.38268000000000013  0.27515  0.80334  1.0000
  C   C132      1.0  0.30281  0.31234  0.77635  1.0000
  C   C133      1.0  0.26163  0.28448  0.70423  1.0000
  C   C134      1.0  0.29862  0.22051  0.66013  1.0000
  C   C135      1.0  0.26244  0.37948  0.82465  1.0000
  C   C136      1.0  0.48528  0.01884  0.53111  1.0000
  S   S1        1.0  0.59987  0.48603  0.58796  1.0000
  S   S2        1.0  0.61935  0.60492  0.56199  1.0000
  S   S3        1.0  0.9884599999999999  0.10197000000000006  0.5880100000000001  1.0000
  S   S4        1.0  0.9426399999999999  0.9570900000000001  0.562  1.0000
  S   S5        1.0  0.90018  0.39798  0.41229  1.0000
  S   S6        1.0  0.88043  0.54271  0.43771  1.0000
  S   S7        1.0  0.51209  0.014330000000000015  0.4123200000000001  1.0000
  S   S8        1.0  0.55701  0.8950300000000001  0.43784  1.0000
  S   S9        1.0  0.40013999999999994  0.51397  0.41204  1.0000
  S   S10       1.0  0.38066000000000005  0.39508  0.43801000000000007  1.0000
  S   S11       1.0  0.011550000000000015  0.8980300000000001  0.41199  1.0000
  S   S12       1.0  0.05737000000000004  0.04291000000000007  0.43800000000000006  1.0000
  S   S13       1.0  0.09982999999999996  0.6020200000000001  0.58771  1.0000
  S   S14       1.0  0.11957999999999996  0.45729000000000003  0.56229  1.0000
  S   S15       1.0  0.4879100000000001  0.9856700000000003  0.5876800000000001  1.0000
  S   S16       1.0  0.44299999999999995  0.10496999999999995  0.56216  1.0000
  O   O1        1.0  0.94037  0.5310400000000001  0.9247600000000001  1.0000
  O   O2        1.0  0.12883999999999993  0.52  0.88857  1.0000
  O   O3        1.0  0.09107999999999998  0.9036100000000001  0.88947  1.0000
  O   O4        1.0  0.10279000000000009  0.9113500000000001  0.7948200000000001  1.0000
  O   O5        1.0  0.9815200000000001  0.3939000000000001  0.9251500000000001  1.0000
  O   O6        1.0  0.7569900000000002  0.36757  0.8894000000000001  1.0000
  O   O7        1.0  0.7997299999999999  0.98537  0.88962  1.0000
  O   O8        1.0  0.68946  0.8843600000000003  0.7946600000000001  1.0000
  O   O9        1.0  0.55858  0.10612  0.07438  1.0000
  O   O10       1.0  0.3706999999999999  0.13155  0.11126  1.0000
  O   O11       1.0  0.40421  0.51334  0.11070000000000002  1.0000
  O   O12       1.0  0.39624999999999994  0.61674  0.20522  1.0000
  O   O13       1.0  0.51331  0.96878  0.07555  1.0000
  O   O14       1.0  0.73848  0.98026  0.11116000000000001  1.0000
  O   O15       1.0  0.70673  0.5970600000000001  0.11134000000000001  1.0000
  O   O16       1.0  0.80991  0.5888200000000001  0.20599000000000003  1.0000
  O   O17       1.0  0.05964  0.46895  0.07524  1.0000
  O   O18       1.0  0.8711700000000001  0.48000000000000004  0.11143  1.0000
  O   O19       1.0  0.90893  0.09639000000000002  0.11053000000000002  1.0000
  O   O20       1.0  0.8972199999999999  0.08865000000000002  0.20518  1.0000
  O   O21       1.0  0.01848  0.60609  0.07486  1.0000
  O   O22       1.0  0.24300999999999998  0.63243  0.11061000000000001  1.0000
  O   O23       1.0  0.20027999999999999  0.014630000000000004  0.11038  1.0000
  O   O24       1.0  0.31054  0.11564000000000003  0.20534000000000002  1.0000
  O   O25       1.0  0.44142  0.89388  0.92563  1.0000
  O   O26       1.0  0.6293  0.8684500000000003  0.8887500000000003  1.0000
  O   O27       1.0  0.5957899999999999  0.4866600000000001  0.8893000000000001  1.0000
  O   O28       1.0  0.6037600000000001  0.38326000000000005  0.7947900000000001  1.0000
  O   O29       1.0  0.4866900000000001  0.031220000000000095  0.9244500000000002  1.0000
  O   O30       1.0  0.26152  0.019740000000000025  0.88885  1.0000
  O   O31       1.0  0.2932800000000001  0.40294  0.8886600000000001  1.0000
  O   O32       1.0  0.19010000000000007  0.41118000000000005  0.7940100000000002  1.0000
