data_image0
_chemical_formula_structural       Mn16H128C96O64
_chemical_formula_sum              "Mn16 H128 C96 O64"
_cell_length_a       13.57775
_cell_length_b       14.47638
_cell_length_c       23.16598
_cell_angle_alpha    91.41561000000002
_cell_angle_beta     90.0
_cell_angle_gamma    90.0

_symmetry_space_group_name_H-M    'P 1'
_symmetry_Int_Tables_number       1

loop_
  _symmetry_equiv_pos_as_xyz
  'x,y,z'

loop_
  _atom_site_type_symbol
  _atom_site_label
  _atom_site_symmetry_multiplicity
  _atom_site_fract_x
  _atom_site_fract_y
  _atom_site_fract_z
  _atom_site_occupancy
  Mn  Mn1       1.0  0.50588  0.02517  0.24315  1.0000
  Mn  Mn2       1.0  0.47945  0.8484000000000003  0.64075  1.0000
  Mn  Mn3       1.0  0.9941099999999998  0.52517  0.74315  1.0000
  Mn  Mn4       1.0  0.7887699999999997  0.45514  0.33766  1.0000
  Mn  Mn5       1.0  0.25066  0.7426700000000003  0.60707  1.0000
  Mn  Mn6       1.0  0.75066  0.75733  0.89293  1.0000
  Mn  Mn7       1.0  0.49411  0.97483  0.75685  1.0000
  Mn  Mn8       1.0  0.52055  0.15161  0.35925  1.0000
  Mn  Mn9       1.0  0.97945  0.65161  0.85925  1.0000
  Mn  Mn10      1.0  0.24933999999999998  0.24267  0.10707  1.0000
  Mn  Mn11      1.0  0.00589  0.47483  0.25685  1.0000
  Mn  Mn12      1.0  0.21123  0.54486  0.66234  1.0000
  Mn  Mn13      1.0  0.28877  0.04486  0.16234  1.0000
  Mn  Mn14      1.0  0.74934  0.25733  0.39293000000000006  1.0000
  Mn  Mn15      1.0  0.02055  0.34839  0.14075  1.0000
  Mn  Mn16      1.0  0.71123  0.9551400000000002  0.8376600000000001  1.0000
  H   H1        1.0  0.04057999999999999  0.3186600000000001  0.5884  1.0000
  H   H2        1.0  0.20282  0.7373  0.8384500000000001  1.0000
  H   H3        1.0  0.71735  0.86603  0.62477  1.0000
  H   H4        1.0  0.92266  0.53397  0.99131  1.0000
  H   H5        1.0  0.19847  0.31126  0.93854  1.0000
  H   H6        1.0  0.28927  0.45652000000000004  0.96076  1.0000
  H   H7        1.0  0.08762  0.64771  0.48334  1.0000
  H   H8        1.0  0.28264  0.13397  0.37523000000000006  1.0000
  H   H9        1.0  0.27005  0.44562  0.47564  1.0000
  H   H10       1.0  0.29718  0.2373  0.33845  1.0000
  H   H11       1.0  0.80691  0.4770500000000001  0.06882  1.0000
  H   H12       1.0  0.70282  0.7627  0.66155  1.0000
  H   H13       1.0  0.70853  0.44355  0.55409  1.0000
  H   H14       1.0  0.88214  0.0692  0.13611  1.0000
  H   H15       1.0  0.9367  0.57093  0.4374700000000001  1.0000
  H   H16       1.0  0.9432899999999999  0.00403  0.85577  1.0000
  H   H17       1.0  0.7971799999999999  0.2627  0.16155  1.0000
  H   H18       1.0  0.58872  0.02681  0.02653  1.0000
  H   H19       1.0  0.88057  0.89281  0.67895  1.0000
  H   H20       1.0  0.7670499999999999  0.50334  0.72782  1.0000
  H   H21       1.0  0.23295  0.49666  0.27218  1.0000
  H   H22       1.0  0.78219  0.60822  0.69357  1.0000
  H   H23       1.0  0.69309  0.97705  0.56882  1.0000
  H   H24       1.0  0.30153  0.8112700000000003  0.43854  1.0000
  H   H25       1.0  0.60891  0.46668  0.67506  1.0000
  H   H26       1.0  0.47579  0.87058  0.44097  1.0000
  H   H27       1.0  0.7914699999999999  0.94355  0.05408999999999999  1.0000
  H   H28       1.0  0.81931  0.47439  0.96291  1.0000
  H   H29       1.0  0.55251  0.19455000000000003  0.62316  1.0000
  H   H30       1.0  0.85833  0.51838  0.5955  1.0000
  H   H31       1.0  0.52421  0.12941999999999995  0.55902  1.0000
  H   H32       1.0  0.14167  0.48162  0.4045000000000001  1.0000
  H   H33       1.0  0.03629  0.76057  0.57363  1.0000
  H   H34       1.0  0.38057  0.60719  0.82105  1.0000
  H   H35       1.0  0.53629  0.73944  0.92637  1.0000
  H   H36       1.0  0.35734  0.78431  0.89595  1.0000
  H   H37       1.0  0.7299499999999999  0.55438  0.52436  1.0000
  H   H38       1.0  0.02421  0.37058000000000013  0.9409700000000001  1.0000
  H   H39       1.0  0.91128  0.52681  0.52653  1.0000
  H   H40       1.0  0.96371  0.23944  0.4263700000000001  1.0000
  H   H41       1.0  0.63141  0.28184  0.20724000000000004  1.0000
  H   H42       1.0  0.05671  0.99597  0.14423  1.0000
  H   H43       1.0  0.3762499999999999  0.67221  0.9214400000000001  1.0000
  H   H44       1.0  0.14266  0.28431  0.39594999999999997  1.0000
  H   H45       1.0  0.7782  0.6261200000000001  0.12419  1.0000
  H   H46       1.0  0.35732  0.15487000000000004  0.91513  1.0000
  H   H47       1.0  0.21735999999999997  0.63397  0.87523  1.0000
  H   H48       1.0  0.6019  0.56068  0.76832  1.0000
  H   H49       1.0  0.94368  0.96925  0.7827200000000001  1.0000
  H   H50       1.0  0.69847  0.18874  0.56146  1.0000
  H   H51       1.0  0.21781  0.3917900000000001  0.30643  1.0000
  H   H52       1.0  0.78927  0.04348  0.53924  1.0000
  H   H53       1.0  0.05632  0.03075  0.21728  1.0000
  H   H54       1.0  0.29147  0.5564500000000001  0.44591000000000003  1.0000
  H   H55       1.0  0.2782  0.87388  0.37581  1.0000
  H   H56       1.0  0.7178  0.10822  0.19357000000000002  1.0000
  H   H57       1.0  0.73295  0.0033399999999999984  0.22782  1.0000
  H   H58       1.0  0.85732  0.34513  0.58487  1.0000
  H   H59       1.0  0.38473  0.33767  0.27032  1.0000
  H   H60       1.0  0.5633  0.07093  0.93747  1.0000
  H   H61       1.0  0.77004  0.05438  0.02436  1.0000
  H   H62       1.0  0.22179999999999997  0.37388  0.8758099999999999  1.0000
  H   H63       1.0  0.61786  0.56921  0.6361  1.0000
  H   H64       1.0  0.38214  0.4308  0.36389000000000005  1.0000
  H   H65       1.0  0.46371  0.26056  0.07363  1.0000
  H   H66       1.0  0.3981  0.4393200000000001  0.23168  1.0000
  H   H67       1.0  0.0633  0.42907  0.56253  1.0000
  H   H68       1.0  0.35833  0.98162  0.9045  1.0000
  H   H69       1.0  0.31931  0.02561  0.53709  1.0000
  H   H70       1.0  0.12375  0.17221  0.42145  1.0000
  H   H71       1.0  0.30691  0.02295  0.43118  1.0000
  H   H72       1.0  0.45942  0.81866  0.08840000000000002  1.0000
  H   H73       1.0  0.89108  0.9666900000000002  0.17506  1.0000
  H   H74       1.0  0.6152699999999999  0.66233  0.72968  1.0000
  H   H75       1.0  0.1019  0.93932  0.73168  1.0000
  H   H76       1.0  0.18069  0.52561  0.03709  1.0000
  H   H77       1.0  0.11786  0.9308000000000001  0.8638900000000002  1.0000
  H   H78       1.0  0.64268  0.8451300000000002  0.08487  1.0000
  H   H79       1.0  0.39108  0.53332  0.32494  1.0000
  H   H80       1.0  0.97579  0.62942  0.05902000000000001  1.0000
  H   H81       1.0  0.45808  0.32778  0.13724  1.0000
  H   H82       1.0  0.54058  0.18134  0.9116  1.0000
  H   H83       1.0  0.41237  0.14771000000000006  0.98334  1.0000
  H   H84       1.0  0.11526999999999998  0.8376700000000002  0.7703200000000001  1.0000
  H   H85       1.0  0.36859  0.7181600000000001  0.79276  1.0000
  H   H86       1.0  0.22995  0.94562  0.97564  1.0000
  H   H87       1.0  0.8980999999999999  0.06068  0.26832  1.0000
  H   H88       1.0  0.10892  0.03332  0.8249399999999999  1.0000
  H   H89       1.0  0.07733999999999999  0.46603  0.00869  1.0000
  H   H90       1.0  0.20852999999999997  0.05645  0.94591  1.0000
  H   H91       1.0  0.13141  0.21816  0.29276  1.0000
  H   H92       1.0  0.88473  0.16233  0.22968000000000002  1.0000
  H   H93       1.0  0.95942  0.68134  0.4116  1.0000
  H   H94       1.0  0.55671  0.50403  0.35577  1.0000
  H   H95       1.0  0.87625  0.8277900000000002  0.57855  1.0000
  H   H96       1.0  0.44329  0.49597  0.64423  1.0000
  H   H97       1.0  0.43669999999999987  0.92907  0.06253  1.0000
  H   H98       1.0  0.62375  0.32779  0.07855  1.0000
  H   H99       1.0  0.14268  0.6548800000000001  0.41513000000000005  1.0000
  H   H100      1.0  0.04192  0.82778  0.63724  1.0000
  H   H101      1.0  0.58762  0.8523  0.01666  1.0000
  H   H102      1.0  0.44367999999999996  0.53075  0.71728  1.0000
  H   H103      1.0  0.08872  0.47319  0.47347  1.0000
  H   H104      1.0  0.44749  0.8054500000000002  0.37684  1.0000
  H   H105      1.0  0.61942  0.39281  0.17895000000000003  1.0000
  H   H106      1.0  0.41128  0.97319  0.97347  1.0000
  H   H107      1.0  0.86859  0.78184  0.7072399999999999  1.0000
  H   H108      1.0  0.26705  0.99667  0.77218  1.0000
  H   H109      1.0  0.9580799999999999  0.17222  0.36276  1.0000
  H   H110      1.0  0.68069  0.97439  0.46291  1.0000
  H   H111      1.0  0.19309  0.52295  0.9311800000000001  1.0000
  H   H112      1.0  0.11942  0.10719  0.32105  1.0000
  H   H113      1.0  0.85734  0.71569  0.60405  1.0000
  H   H114      1.0  0.28219  0.89179  0.80643  1.0000
  H   H115      1.0  0.94749  0.69455  0.12315999999999999  1.0000
  H   H116      1.0  0.9123699999999998  0.35229  0.51666  1.0000
  H   H117      1.0  0.71073  0.54348  0.03924  1.0000
  H   H118      1.0  0.42266  0.96603  0.50869  1.0000
  H   H119      1.0  0.80153  0.6887400000000001  0.06146000000000001  1.0000
  H   H120      1.0  0.54192  0.67222  0.86276  1.0000
  H   H121      1.0  0.05251  0.30545  0.87684  1.0000
  H   H122      1.0  0.7218  0.12612  0.62419  1.0000
  H   H123      1.0  0.78264  0.36603  0.12477000000000002  1.0000
  H   H124      1.0  0.6416699999999999  0.01838  0.0955  1.0000
  H   H125      1.0  0.6426599999999999  0.21569  0.10405000000000002  1.0000
  H   H126      1.0  0.21072999999999995  0.95653  0.46076  1.0000
  H   H127      1.0  0.57734  0.03397  0.49131  1.0000
  H   H128      1.0  0.55632  0.46925  0.28272  1.0000
  C   C1        1.0  0.60697  0.28218  0.11454000000000002  1.0000
  C   C2        1.0  0.75423  0.07667  0.23082  1.0000
  C   C3        1.0  0.9755  0.95311  0.82512  1.0000
  C   C4        1.0  0.73729  0.83145  0.66512  1.0000
  C   C5        1.0  0.244  0.56063  0.53369  1.0000
  C   C6        1.0  0.49564  0.26748  0.11727000000000001  1.0000
  C   C7        1.0  0.59276  0.88738  0.059140000000000005  1.0000
  C   C8        1.0  0.70789  0.11962000000000003  0.28427  1.0000
  C   C9        1.0  0.39303  0.71782  0.8854599999999999  1.0000
  C   C10       1.0  0.03687  0.6835  0.65016  1.0000
  C   C11       1.0  0.00964  0.38899000000000006  0.58715  1.0000
  C   C12       1.0  0.256  0.06063  0.03369  1.0000
  C   C13       1.0  0.26271  0.16855000000000003  0.33488  1.0000
  C   C14       1.0  0.84239  0.53697  0.98732  1.0000
  C   C15       1.0  0.34239  0.96303  0.51268  1.0000
  C   C16       1.0  0.4755  0.54689  0.67488  1.0000
  C   C17       1.0  0.98883  0.57301  0.35170000000000007  1.0000
  C   C18       1.0  0.13401  0.91139  0.77117  1.0000
  C   C19       1.0  0.25772  0.016659999999999994  0.97357  1.0000
  C   C20       1.0  0.32104  0.8748400000000001  0.4161000000000001  1.0000
  C   C21       1.0  0.06669  0.13975  0.15909  1.0000
  C   C22       1.0  0.36246  0.015950000000000006  0.94726  1.0000
  C   C23       1.0  0.25423  0.42333  0.26918  1.0000
  C   C24       1.0  0.49036  0.88899  0.08715000000000002  1.0000
  C   C25       1.0  0.7094  0.04103  0.54638  1.0000
  C   C26       1.0  0.65098  0.32402  0.17021  1.0000
  C   C27       1.0  0.53623  0.04991000000000001  0.63514  1.0000
  C   C28       1.0  0.63754  0.98405  0.05274  1.0000
  C   C29       1.0  0.79059  0.54103  0.04638  1.0000
  C   C30       1.0  0.13754  0.51595  0.44726  1.0000
  C   C31       1.0  0.756  0.43937000000000004  0.46631  1.0000
  C   C32       1.0  0.48882999999999993  0.92699  0.1483  1.0000
  C   C33       1.0  0.56669  0.36025  0.34091  1.0000
  C   C34       1.0  0.18627  0.38138  0.048060000000000005  1.0000
  C   C35       1.0  0.68502  0.8841200000000001  0.71315  1.0000
  C   C36       1.0  0.41198  0.45987000000000006  0.32414  1.0000
  C   C37       1.0  0.93331  0.86025  0.84091  1.0000
  C   C38       1.0  0.09276  0.61262  0.44086  1.0000
  C   C39       1.0  0.10697  0.21782000000000004  0.38546  1.0000
  C   C40       1.0  0.76271  0.33145000000000013  0.16512  1.0000
  C   C41       1.0  0.18502  0.61588  0.7868500000000002  1.0000
  C   C42       1.0  0.5245  0.45311  0.32512  1.0000
  C   C43       1.0  0.50964  0.11101000000000004  0.91285  1.0000
  C   C44       1.0  0.8149799999999999  0.38412  0.21315  1.0000
  C   C45       1.0  0.06803  0.3698  0.9010900000000001  1.0000
  C   C46       1.0  0.24228  0.51666  0.47357  1.0000
  C   C47       1.0  0.15761  0.46303  0.01268  1.0000
  C   C48       1.0  0.23728999999999997  0.66855  0.83488  1.0000
  C   C49       1.0  0.93197  0.6302100000000002  0.09891  1.0000
  C   C50       1.0  0.36599  0.41139  0.27117  1.0000
  C   C51       1.0  0.00436  0.76748  0.61726  1.0000
  C   C52       1.0  0.90724  0.38738  0.55914  1.0000
  C   C53       1.0  0.53687  0.8165  0.84984  1.0000
  C   C54       1.0  0.20941  0.45897  0.95362  1.0000
  C   C55       1.0  0.31498  0.11588000000000002  0.28685  1.0000
  C   C56       1.0  0.40724  0.11262  0.94086  1.0000
  C   C57       1.0  0.86599  0.08861000000000001  0.22883  1.0000
  C   C58       1.0  0.29211  0.88038  0.71573  1.0000
  C   C59       1.0  0.7422799999999999  0.98334  0.02643  1.0000
  C   C60       1.0  0.43197  0.8698000000000002  0.40109  1.0000
  C   C61       1.0  0.24577  0.9233300000000001  0.76918  1.0000
  C   C62       1.0  0.0245  0.04689  0.17488  1.0000
  C   C63       1.0  0.99036  0.6110100000000003  0.41285  1.0000
  C   C64       1.0  0.58802  0.54013  0.67586  1.0000
  C   C65       1.0  0.08802  0.95987  0.82414  1.0000
  C   C66       1.0  0.56803  0.1302  0.59891  1.0000
  C   C67       1.0  0.29059  0.95897  0.45362  1.0000
  C   C68       1.0  0.03623  0.45009  0.86486  1.0000
  C   C69       1.0  0.6576099999999999  0.03697  0.48732000000000003  1.0000
  C   C70       1.0  0.99564  0.23252  0.38273  1.0000
  C   C71       1.0  0.31373  0.8813800000000002  0.54806  1.0000
  C   C72       1.0  0.67896  0.12516  0.5839  1.0000
  C   C73       1.0  0.01117  0.42699  0.6483  1.0000
  C   C74       1.0  0.51117  0.07301  0.8517  1.0000
  C   C75       1.0  0.43331  0.63975  0.65909  1.0000
  C   C76       1.0  0.75772  0.48334  0.52643  1.0000
  C   C77       1.0  0.8930299999999999  0.78218  0.61453  1.0000
  C   C78       1.0  0.96377  0.54991  0.13514  1.0000
  C   C79       1.0  0.46377  0.95009  0.3648600000000001  1.0000
  C   C80       1.0  0.15098  0.17598  0.32979  1.0000
  C   C81       1.0  0.96313  0.3165  0.34984  1.0000
  C   C82       1.0  0.84902  0.82402  0.67021  1.0000
  C   C83       1.0  0.86246  0.48405  0.55274  1.0000
  C   C84       1.0  0.17895999999999998  0.37484  0.9161  1.0000
  C   C85       1.0  0.63401  0.5886100000000001  0.7288300000000001  1.0000
  C   C86       1.0  0.74576  0.57667  0.7308200000000001  1.0000
  C   C87       1.0  0.6862699999999999  0.11862  0.45194  1.0000
  C   C88       1.0  0.50436  0.73253  0.88273  1.0000
  C   C89       1.0  0.81373  0.61862  0.95194  1.0000
  C   C90       1.0  0.91198  0.04013  0.17586000000000002  1.0000
  C   C91       1.0  0.744  0.9393700000000003  0.9663100000000001  1.0000
  C   C92       1.0  0.20789  0.38038  0.21573  1.0000
  C   C93       1.0  0.46313  0.1835  0.15016  1.0000
  C   C94       1.0  0.8210399999999999  0.62516  0.0839  1.0000
  C   C95       1.0  0.79211  0.61962  0.78427  1.0000
  C   C96       1.0  0.34901999999999994  0.67598  0.82979  1.0000
  O   O1        1.0  0.52813  0.9709799999999998  0.60871  1.0000
  O   O2        1.0  0.38489  0.8985900000000002  0.70644  1.0000
  O   O3        1.0  0.88489  0.60141  0.79356  1.0000
  O   O4        1.0  0.90608  0.54651  0.32827  1.0000
  O   O5        1.0  0.6193899999999999  0.17054999999999998  0.42862999999999996  1.0000
  O   O6        1.0  0.52384  0.13455  0.17636  1.0000
  O   O7        1.0  0.76632  0.49278  0.42319  1.0000
  O   O8        1.0  0.24164999999999998  0.82934  0.68285  1.0000
  O   O9        1.0  0.99077  0.7924200000000002  0.84875  1.0000
  O   O10       1.0  0.86876  0.3336  0.35187  1.0000
  O   O11       1.0  0.59392  0.04651  0.8282699999999998  1.0000
  O   O12       1.0  0.16107  0.14403000000000002  0.15431  1.0000
  O   O13       1.0  0.27647  0.36135  0.05425000000000001  1.0000
  O   O14       1.0  0.97832  0.56462  0.18884000000000004  1.0000
  O   O15       1.0  0.49076999999999993  0.70758  0.65125  1.0000
  O   O16       1.0  0.47616  0.86545  0.82364  1.0000
  O   O17       1.0  0.52167  0.06462  0.68884  1.0000
  O   O18       1.0  0.93232  0.43472  0.67728  1.0000
  O   O19       1.0  0.26674  0.06521000000000003  0.25138  1.0000
  O   O20       1.0  0.56768  0.93473  0.17728000000000002  1.0000
  O   O21       1.0  0.72352  0.63865  0.94575  1.0000
  O   O22       1.0  0.73368  0.99278  0.9231900000000001  1.0000
  O   O23       1.0  0.00923  0.20758  0.15125  1.0000
  O   O24       1.0  0.61511  0.10141  0.29356  1.0000
  O   O25       1.0  0.73326  0.93479  0.74862  1.0000
  O   O26       1.0  0.40607999999999994  0.95349  0.17173  1.0000
  O   O27       1.0  0.83893  0.85597  0.84569  1.0000
  O   O28       1.0  0.74165  0.67066  0.81715  1.0000
  O   O29       1.0  0.47832  0.9353800000000001  0.31116  1.0000
  O   O30       1.0  0.11939  0.32945  0.07137  1.0000
  O   O31       1.0  0.24775  0.14826  0.03715  1.0000
  O   O32       1.0  0.40964  0.12472  0.28564  1.0000
  O   O33       1.0  0.13124  0.66641  0.64813  1.0000
  O   O34       1.0  0.75835  0.17066  0.31715  1.0000
  O   O35       1.0  0.09036  0.62473  0.7856399999999999  1.0000
  O   O36       1.0  0.25835  0.32934  0.18285  1.0000
  O   O37       1.0  0.23368  0.50722  0.57681  1.0000
  O   O38       1.0  0.77647  0.13865  0.44575000000000004  1.0000
  O   O39       1.0  0.9718699999999998  0.47098  0.10872  1.0000
  O   O40       1.0  0.97616  0.63455  0.67636  1.0000
  O   O41       1.0  0.3687599999999999  0.16641000000000006  0.14813  1.0000
  O   O42       1.0  0.09392  0.45349  0.67173  1.0000
  O   O43       1.0  0.75225  0.8517400000000002  0.96285  1.0000
  O   O44       1.0  0.06768  0.56528  0.32272  1.0000
  O   O45       1.0  0.43232  0.06527000000000001  0.8227100000000002  1.0000
  O   O46       1.0  0.26632  0.00722  0.07681  1.0000
  O   O47       1.0  0.7477499999999999  0.35174  0.46285000000000004  1.0000
  O   O48       1.0  0.11511  0.39859  0.20644  1.0000
  O   O49       1.0  0.59036  0.8752800000000001  0.71436  1.0000
  O   O50       1.0  0.88061  0.6705500000000002  0.92863  1.0000
  O   O51       1.0  0.47187  0.029020000000000008  0.39128  1.0000
  O   O52       1.0  0.66107  0.35597  0.34569  1.0000
  O   O53       1.0  0.02384  0.36545  0.32364  1.0000
  O   O54       1.0  0.63124  0.8336  0.85187  1.0000
  O   O55       1.0  0.50923  0.29242  0.34875000000000006  1.0000
  O   O56       1.0  0.028129999999999995  0.52902  0.89128  1.0000
  O   O57       1.0  0.25225  0.64826  0.53715  1.0000
  O   O58       1.0  0.38061  0.8294600000000002  0.57137  1.0000
  O   O59       1.0  0.9096399999999999  0.37528  0.21436  1.0000
  O   O60       1.0  0.021679999999999998  0.43538  0.81116  1.0000
  O   O61       1.0  0.33892999999999995  0.64403  0.65431  1.0000
  O   O62       1.0  0.76674  0.4347900000000001  0.24862  1.0000
  O   O63       1.0  0.23326  0.56521  0.75138  1.0000
  O   O64       1.0  0.22352  0.86135  0.55425  1.0000
