data_image0
_chemical_formula_structural       In12H132C144O60
_chemical_formula_sum              "In12 H132 C144 O60"
_cell_length_a       15.80585
_cell_length_b       18.366919999999997
_cell_length_c       23.51582
_cell_angle_alpha    90.02754999999999
_cell_angle_beta     89.97428
_cell_angle_gamma    104.92425

_symmetry_space_group_name_H-M    'P 1'
_symmetry_Int_Tables_number       1

loop_
  _symmetry_equiv_pos_as_xyz
  'x,y,z'

loop_
  _atom_site_type_symbol
  _atom_site_label
  _atom_site_symmetry_multiplicity
  _atom_site_fract_x
  _atom_site_fract_y
  _atom_site_fract_z
  _atom_site_occupancy
  In  In1       1.0  0.6895  0.14001  0.48458  1.0000
  In  In2       1.0  0.81545  0.34452999999999995  0.47050999999999993  1.0000
  In  In3       1.0  0.30999  0.3592899999999999  0.9846699999999999  1.0000
  In  In4       1.0  0.18496  0.15471999999999994  0.96935  1.0000
  In  In5       1.0  0.3104999999999999  0.85999  0.5154199999999999  1.0000
  In  In6       1.0  0.18456  0.65547  0.5295  1.0000
  In  In7       1.0  0.69001  0.64071  0.015329999999999996  1.0000
  In  In8       1.0  0.81505  0.8452799999999999  0.030649999999999993  1.0000
  In  In9       1.0  0.5  0.0  0.4999999999999999  1.0000
  In  In10      1.0  0.5  0.5  0.0  1.0000
  In  In11      1.0  0.0  0.5  0.4999999999999999  1.0000
  In  In12      1.0  0.0  0.0  0.0  1.0000
  H   H1        1.0  0.52573  0.13641  0.45728  1.0000
  H   H2        1.0  0.7349999999999998  0.2539799999999999  0.5547099999999999  1.0000
  H   H3        1.0  0.87614  0.465  0.4165699999999999  1.0000
  H   H4        1.0  0.64653  0.89932  0.36858999999999986  1.0000
  H   H5        1.0  0.8258500000000001  0.95585  0.4263499999999999  1.0000
  H   H6        1.0  0.81746  0.9292  0.23425  1.0000
  H   H7        1.0  0.70611  0.88843  0.24807999999999994  1.0000
  H   H8        1.0  0.76639  0.96121  0.29301  1.0000
  H   H9        1.0  0.9270399999999999  0.6630999999999999  0.29809  1.0000
  H   H10       1.0  0.81568  0.6140699999999998  0.29962  1.0000
  H   H11       1.0  0.85915  0.6683  0.23876  1.0000
  H   H12       1.0  0.7837  0.83201  0.47852  1.0000
  H   H13       1.0  0.85338  0.77  0.4829999999999999  1.0000
  H   H14       1.0  0.89852  0.8679499999999998  0.47398  1.0000
  H   H15       1.0  0.83608  0.82667  0.19155999999999998  1.0000
  H   H16       1.0  0.70252  0.67472  0.21281999999999998  1.0000
  H   H17       1.0  0.87555  0.6368299999999998  0.39501999999999987  1.0000
  H   H18       1.0  0.001579999999999932  0.7824799999999997  0.43972  1.0000
  H   H19       1.0  0.79089  0.5421399999999998  0.6338  1.0000
  H   H20       1.0  0.6526499999999998  0.40445  0.58932  1.0000
  H   H21       1.0  0.44634999999999997  0.46312999999999993  0.56239  1.0000
  H   H22       1.0  0.5550199999999998  0.5177899999999998  0.55023  1.0000
  H   H23       1.0  0.53388  0.4191799999999999  0.55556  1.0000
  H   H24       1.0  0.42054  0.4887099999999999  0.8165499999999999  1.0000
  H   H25       1.0  0.41491  0.5651  0.7724799999999999  1.0000
  H   H26       1.0  0.34668  0.47499  0.7583  1.0000
  H   H27       1.0  0.70832  0.44320999999999994  0.7826599999999998  1.0000
  H   H28       1.0  0.74295  0.42994  0.7120999999999998  1.0000
  H   H29       1.0  0.7669199999999999  0.5207799999999998  0.7421299999999998  1.0000
  H   H30       1.0  0.32165  0.4618399999999999  0.66932  1.0000
  H   H31       1.0  0.43133  0.59625  0.60217  1.0000
  H   H32       1.0  0.52636  0.4629  0.8429999999999999  1.0000
  H   H33       1.0  0.70159  0.57832  0.82036  1.0000
  H   H34       1.0  0.47404  0.36424  0.9573099999999998  1.0000
  H   H35       1.0  0.26404  0.24477999999999997  0.05461999999999999  1.0000
  H   H36       1.0  0.12385  0.03297  0.9167299999999999  1.0000
  H   H37       1.0  0.35162999999999994  0.5990899999999999  0.86897  1.0000
  H   H38       1.0  0.17215  0.54326  0.92661  1.0000
  H   H39       1.0  0.18092  0.57006  0.73465  1.0000
  H   H40       1.0  0.29217999999999994  0.6107599999999997  0.74804  1.0000
  H   H41       1.0  0.23243  0.53805  0.79318  1.0000
  H   H42       1.0  0.07183  0.83649  0.7993899999999998  1.0000
  H   H43       1.0  0.18366999999999994  0.88475  0.79923  1.0000
  H   H44       1.0  0.13775000000000004  0.82946  0.7393699999999997  1.0000
  H   H45       1.0  0.21543  0.66676  0.9789099999999997  1.0000
  H   H46       1.0  0.146  0.72896  0.98383  1.0000
  H   H47       1.0  0.10054999999999997  0.6311399999999999  0.97459  1.0000
  H   H48       1.0  0.16122  0.67172  0.69228  1.0000
  H   H49       1.0  0.29239  0.82504  0.71295  1.0000
  H   H50       1.0  0.12189000000000005  0.86193  0.89534  1.0000
  H   H51       1.0  0.99733  0.71656  0.94176  1.0000
  H   H52       1.0  0.20793  0.95746  0.13397999999999996  1.0000
  H   H53       1.0  0.34584  0.0947  0.08881  1.0000
  H   H54       1.0  0.55294  0.03863  0.06235999999999999  1.0000
  H   H55       1.0  0.44485  0.98302  0.04998  1.0000
  H   H56       1.0  0.46449  0.08148  0.055559999999999984  1.0000
  H   H57       1.0  0.57908  0.013439999999999997  0.3163099999999999  1.0000
  H   H58       1.0  0.58527  0.93697  0.27251  1.0000
  H   H59       1.0  0.65271  0.027319999999999997  0.25792999999999994  1.0000
  H   H60       1.0  0.28967  0.05628999999999999  0.28247  1.0000
  H   H61       1.0  0.25473  0.06880999999999998  0.21184999999999996  1.0000
  H   H62       1.0  0.23209999999999997  0.9781199999999999  0.24208  1.0000
  H   H63       1.0  0.67721  0.03933999999999999  0.16906  1.0000
  H   H64       1.0  0.56739  0.90459  0.10224  1.0000
  H   H65       1.0  0.47321  0.037509999999999995  0.34283  1.0000
  H   H66       1.0  0.29725999999999997  0.9232199999999999  0.32023  1.0000
  H   H67       1.0  0.4742799999999999  0.8635899999999997  0.5427199999999999  1.0000
  H   H68       1.0  0.2649999999999999  0.7460199999999998  0.44528999999999996  1.0000
  H   H69       1.0  0.12387  0.535  0.5834399999999998  1.0000
  H   H70       1.0  0.35348  0.10067999999999998  0.63141  1.0000
  H   H71       1.0  0.17416  0.04415  0.57365  1.0000
  H   H72       1.0  0.18255  0.07079999999999997  0.7657499999999998  1.0000
  H   H73       1.0  0.2939  0.11157  0.75192  1.0000
  H   H74       1.0  0.23362  0.03879  0.707  1.0000
  H   H75       1.0  0.07296999999999997  0.33689999999999987  0.70192  1.0000
  H   H76       1.0  0.18433  0.38593  0.7003799999999999  1.0000
  H   H77       1.0  0.14086  0.3317  0.7612399999999999  1.0000
  H   H78       1.0  0.21631  0.16798999999999997  0.52148  1.0000
  H   H79       1.0  0.14663  0.22999999999999998  0.517  1.0000
  H   H80       1.0  0.10149  0.13205  0.52602  1.0000
  H   H81       1.0  0.16393  0.17333  0.8084399999999999  1.0000
  H   H82       1.0  0.29749  0.32528  0.7871799999999999  1.0000
  H   H83       1.0  0.12445  0.36317  0.60498  1.0000
  H   H84       1.0  0.99843  0.21751999999999996  0.56029  1.0000
  H   H85       1.0  0.20912  0.45785999999999993  0.3662  1.0000
  H   H86       1.0  0.34736  0.59554  0.4106799999999999  1.0000
  H   H87       1.0  0.55366  0.53687  0.43762  1.0000
  H   H88       1.0  0.44498  0.48221  0.44977  1.0000
  H   H89       1.0  0.46612999999999993  0.5808199999999999  0.44444  1.0000
  H   H90       1.0  0.57947  0.51129  0.18346  1.0000
  H   H91       1.0  0.5851  0.4349  0.22753  1.0000
  H   H92       1.0  0.65333  0.52501  0.2417  1.0000
  H   H93       1.0  0.29169  0.5567899999999998  0.21734  1.0000
  H   H94       1.0  0.25706  0.57006  0.28789999999999993  1.0000
  H   H95       1.0  0.23308999999999994  0.47922  0.25787  1.0000
  H   H96       1.0  0.67836  0.53816  0.33068  1.0000
  H   H97       1.0  0.56868  0.40375  0.3978399999999999  1.0000
  H   H98       1.0  0.47365  0.5371  0.157  1.0000
  H   H99       1.0  0.29842  0.42167999999999994  0.17963999999999994  1.0000
  H   H100      1.0  0.52597  0.6357599999999998  0.04269  1.0000
  H   H101      1.0  0.7359699999999998  0.7552199999999998  0.9453799999999998  1.0000
  H   H102      1.0  0.87616  0.9670299999999998  0.08326999999999998  1.0000
  H   H103      1.0  0.64837  0.4009099999999999  0.13104  1.0000
  H   H104      1.0  0.82786  0.45674  0.07339  1.0000
  H   H105      1.0  0.81908  0.42994  0.26535  1.0000
  H   H106      1.0  0.70782  0.38924  0.25195999999999996  1.0000
  H   H107      1.0  0.76757  0.46194999999999997  0.20682999999999996  1.0000
  H   H108      1.0  0.92817  0.16350999999999993  0.20061  1.0000
  H   H109      1.0  0.81634  0.11525  0.20077999999999996  1.0000
  H   H110      1.0  0.8622599999999998  0.17054  0.26063  1.0000
  H   H111      1.0  0.78458  0.33324  0.021089999999999998  1.0000
  H   H112      1.0  0.85401  0.27104  0.016179999999999996  1.0000
  H   H113      1.0  0.8994599999999998  0.36886  0.025419999999999995  1.0000
  H   H114      1.0  0.83878  0.32828  0.30772  1.0000
  H   H115      1.0  0.70762  0.17496  0.28705  1.0000
  H   H116      1.0  0.87811  0.13807  0.10466  1.0000
  H   H117      1.0  0.0026800000000000114  0.28344  0.05825  1.0000
  H   H118      1.0  0.79208  0.04253999999999999  0.8660199999999999  1.0000
  H   H119      1.0  0.65417  0.9053  0.91119  1.0000
  H   H120      1.0  0.44705999999999996  0.96137  0.93764  1.0000
  H   H121      1.0  0.55515  0.01698  0.95002  1.0000
  H   H122      1.0  0.53552  0.91852  0.9444499999999999  1.0000
  H   H123      1.0  0.42093  0.98656  0.6836899999999999  1.0000
  H   H124      1.0  0.41473  0.06303  0.72749  1.0000
  H   H125      1.0  0.34729999999999994  0.9726799999999999  0.7420699999999998  1.0000
  H   H126      1.0  0.71033  0.94371  0.7175299999999998  1.0000
  H   H127      1.0  0.74528  0.93119  0.78816  1.0000
  H   H128      1.0  0.76791  0.02188  0.75793  1.0000
  H   H129      1.0  0.3227999999999999  0.96065  0.83094  1.0000
  H   H130      1.0  0.43260999999999994  0.09541  0.89776  1.0000
  H   H131      1.0  0.52679  0.96249  0.6571799999999999  1.0000
  H   H132      1.0  0.70275  0.07678  0.6797699999999999  1.0000
  C   C1        1.0  0.67109  0.9906799999999999  0.42951  1.0000
  C   C2        1.0  0.69822  0.93429  0.39456999999999987  1.0000
  C   C3        1.0  0.77866  0.92197  0.3966799999999999  1.0000
  C   C4        1.0  0.8041300000000001  0.86146  0.36542  1.0000
  C   C5        1.0  0.79471  0.8530899999999998  0.3059799999999999  1.0000
  C   C6        1.0  0.81007  0.78808  0.27984999999999993  1.0000
  C   C7        1.0  0.84003  0.73473  0.31187  1.0000
  C   C8        1.0  0.85764  0.74834  0.37061  1.0000
  C   C9        1.0  0.83733  0.8100199999999999  0.39795999999999987  1.0000
  C   C10       1.0  0.76974  0.91115  0.26887  1.0000
  C   C11       1.0  0.86148  0.66679  0.28519  1.0000
  C   C12       1.0  0.8436399999999998  0.8201799999999998  0.46172999999999986  1.0000
  C   C13       1.0  0.7988999999999999  0.7803299999999997  0.21789999999999995  1.0000
  C   C14       1.0  0.74661  0.72118  0.19047  1.0000
  C   C15       1.0  0.74658  0.7170599999999999  0.12793  1.0000
  C   C16       1.0  0.9003  0.69758  0.40097999999999995  1.0000
  C   C17       1.0  0.97197  0.72265  0.43359999999999993  1.0000
  C   C18       1.0  0.01723  0.67179  0.4620599999999999  1.0000
  C   C19       1.0  0.8179  0.46518  0.56896  1.0000
  C   C20       1.0  0.76105  0.49058  0.61075  1.0000
  C   C21       1.0  0.6764599999999998  0.45281999999999994  0.61738  1.0000
  C   C22       1.0  0.61277  0.46979  0.6577199999999999  1.0000
  C   C23       1.0  0.53089  0.47541999999999995  0.6360499999999999  1.0000
  C   C24       1.0  0.46638  0.4875999999999999  0.67375  1.0000
  C   C25       1.0  0.4818799999999999  0.4903  0.7330099999999999  1.0000
  C   C26       1.0  0.56468  0.48695  0.75409  1.0000
  C   C27       1.0  0.63101  0.47671  0.71659  1.0000
  C   C28       1.0  0.51505  0.46837999999999996  0.5728599999999999  1.0000
  C   C29       1.0  0.41268  0.50469  0.7723999999999999  1.0000
  C   C30       1.0  0.71658  0.4668999999999999  0.73967  1.0000
  C   C31       1.0  0.38231  0.49932999999999994  0.65338  1.0000
  C   C32       1.0  0.37414999999999987  0.5552  0.6185699999999998  1.0000
  C   C33       1.0  0.28763  0.56625  0.6008599999999998  1.0000
  C   C34       1.0  0.57879  0.49454999999999993  0.81564  1.0000
  C   C35       1.0  0.6478199999999998  0.5402299999999998  0.8426999999999999  1.0000
  C   C36       1.0  0.64742  0.54763  0.90486  1.0000
  C   C37       1.0  0.32631999999999994  0.5078899999999997  0.9299499999999998  1.0000
  C   C38       1.0  0.29966  0.56428  0.8948199999999997  1.0000
  C   C39       1.0  0.21951  0.57707  0.8969999999999998  1.0000
  C   C40       1.0  0.19469  0.63786  0.86586  1.0000
  C   C41       1.0  0.20398  0.64616  0.8064099999999997  1.0000
  C   C42       1.0  0.18819999999999995  0.7109899999999998  0.7803599999999998  1.0000
  C   C43       1.0  0.15833000000000003  0.76428  0.8125599999999998  1.0000
  C   C44       1.0  0.14077  0.75067  0.8713199999999999  1.0000
  C   C45       1.0  0.16144  0.68913  0.8985699999999998  1.0000
  C   C46       1.0  0.22879999999999998  0.5880899999999999  0.7691599999999998  1.0000
  C   C47       1.0  0.13679999999999987  0.8320499999999997  0.7858  1.0000
  C   C48       1.0  0.1555099999999999  0.6788199999999998  0.96233  1.0000
  C   C49       1.0  0.19832999999999998  0.71843  0.71833  1.0000
  C   C50       1.0  0.24922  0.77801  0.69057  1.0000
  C   C51       1.0  0.24927  0.78165  0.6279699999999999  1.0000
  C   C52       1.0  0.09786999999999994  0.8011899999999997  0.9017699999999997  1.0000
  C   C53       1.0  0.026810000000000018  0.77631  0.935  1.0000
  C   C54       1.0  0.9823999999999999  0.8279999999999997  0.9633599999999998  1.0000
  C   C55       1.0  0.18108  0.03328  0.06818999999999999  1.0000
  C   C56       1.0  0.2377  0.00865  0.11051  1.0000
  C   C57       1.0  0.32216  0.04671  0.11718999999999999  1.0000
  C   C58       1.0  0.38592  0.030379999999999997  0.15767  1.0000
  C   C59       1.0  0.46799  0.025249999999999995  0.13597  1.0000
  C   C60       1.0  0.53256  0.013469999999999996  0.17368999999999998  1.0000
  C   C61       1.0  0.51724  0.01098  0.23294999999999993  1.0000
  C   C62       1.0  0.4343  0.01397  0.25409  1.0000
  C   C63       1.0  0.36773  0.023519999999999996  0.21654999999999994  1.0000
  C   C64       1.0  0.48405  0.03262  0.07279  1.0000
  C   C65       1.0  0.5869199999999998  0.99727  0.27221  1.0000
  C   C66       1.0  0.28172  0.03242  0.23952999999999997  1.0000
  C   C67       1.0  0.61654  0.0017899999999999997  0.15323999999999996  1.0000
  C   C68       1.0  0.62459  0.94582  0.11845  1.0000
  C   C69       1.0  0.71131  0.9351499999999999  0.10082999999999998  1.0000
  C   C70       1.0  0.42034  0.006299999999999998  0.31562  1.0000
  C   C71       1.0  0.35121999999999987  0.9607799999999999  0.3427399999999999  1.0000
  C   C72       1.0  0.35199  0.9526  0.40484  1.0000
  C   C73       1.0  0.32892  0.00932  0.57049  1.0000
  C   C74       1.0  0.30179  0.06570999999999999  0.60543  1.0000
  C   C75       1.0  0.22135  0.07802  0.60332  1.0000
  C   C76       1.0  0.19588  0.13854  0.63459  1.0000
  C   C77       1.0  0.2053  0.14691  0.69402  1.0000
  C   C78       1.0  0.18993999999999997  0.21192  0.72015  1.0000
  C   C79       1.0  0.15998  0.26527  0.6881299999999999  1.0000
  C   C80       1.0  0.14236  0.25166  0.6293899999999999  1.0000
  C   C81       1.0  0.16267999999999996  0.18997999999999995  0.60204  1.0000
  C   C82       1.0  0.23026  0.08885  0.7311299999999997  1.0000
  C   C83       1.0  0.13852999999999993  0.3332099999999999  0.71481  1.0000
  C   C84       1.0  0.15637  0.17982  0.53827  1.0000
  C   C85       1.0  0.2011  0.21967  0.7820999999999998  1.0000
  C   C86       1.0  0.25338999999999995  0.2788199999999999  0.80953  1.0000
  C   C87       1.0  0.25343  0.28294  0.87208  1.0000
  C   C88       1.0  0.0997  0.30242  0.59902  1.0000
  C   C89       1.0  0.02804  0.27735  0.5664  1.0000
  C   C90       1.0  0.98278  0.32821  0.53795  1.0000
  C   C91       1.0  0.18210999999999997  0.53482  0.4310499999999999  1.0000
  C   C92       1.0  0.23896  0.50942  0.3892599999999999  1.0000
  C   C93       1.0  0.32355  0.54718  0.3826299999999999  1.0000
  C   C94       1.0  0.38724  0.53021  0.34228999999999987  1.0000
  C   C95       1.0  0.4691199999999999  0.52458  0.36395  1.0000
  C   C96       1.0  0.53362  0.5124  0.32625  1.0000
  C   C97       1.0  0.51812  0.5097  0.267  1.0000
  C   C98       1.0  0.43533  0.51304  0.24591  1.0000
  C   C99       1.0  0.369  0.52329  0.28341  1.0000
  C   C100      1.0  0.48495  0.53162  0.42713999999999996  1.0000
  C   C101      1.0  0.58733  0.49531  0.22761  1.0000
  C   C102      1.0  0.28343  0.5331  0.26033  1.0000
  C   C103      1.0  0.6177  0.50067  0.34661999999999993  1.0000
  C   C104      1.0  0.62586  0.4448  0.3814399999999999  1.0000
  C   C105      1.0  0.71238  0.43374999999999997  0.3991399999999999  1.0000
  C   C106      1.0  0.42122  0.50545  0.18436  1.0000
  C   C107      1.0  0.35218  0.45977  0.15731  1.0000
  C   C108      1.0  0.35259  0.45237  0.09513999999999997  1.0000
  C   C109      1.0  0.67369  0.49211  0.07005  1.0000
  C   C110      1.0  0.7003499999999999  0.43572  0.10517999999999997  1.0000
  C   C111      1.0  0.7805  0.42293  0.10300999999999999  1.0000
  C   C112      1.0  0.80532  0.36214  0.13413999999999998  1.0000
  C   C113      1.0  0.7960199999999997  0.3538399999999999  0.19359  1.0000
  C   C114      1.0  0.81181  0.28901  0.21964  1.0000
  C   C115      1.0  0.84168  0.23571999999999999  0.18744  1.0000
  C   C116      1.0  0.85923  0.24932999999999997  0.12869  1.0000
  C   C117      1.0  0.83857  0.31087  0.10142999999999999  1.0000
  C   C118      1.0  0.77121  0.4119099999999999  0.23084  1.0000
  C   C119      1.0  0.86321  0.16795  0.21420999999999996  1.0000
  C   C120      1.0  0.8445  0.32117999999999997  0.037669999999999995  1.0000
  C   C121      1.0  0.80168  0.28157  0.28168  1.0000
  C   C122      1.0  0.7507799999999999  0.22197999999999996  0.30943  1.0000
  C   C123      1.0  0.75074  0.21834999999999993  0.37204  1.0000
  C   C124      1.0  0.90213  0.19881  0.09823999999999998  1.0000
  C   C125      1.0  0.9732  0.22368999999999997  0.06501  1.0000
  C   C126      1.0  0.017609999999999997  0.17199999999999996  0.03665  1.0000
  C   C127      1.0  0.8189199999999999  0.9667199999999999  0.9318199999999998  1.0000
  C   C128      1.0  0.76231  0.99135  0.8894899999999999  1.0000
  C   C129      1.0  0.67785  0.9532899999999999  0.88281  1.0000
  C   C130      1.0  0.61409  0.9696199999999999  0.84233  1.0000
  C   C131      1.0  0.53202  0.97475  0.8640299999999997  1.0000
  C   C132      1.0  0.46745000000000003  0.9865299999999999  0.8263099999999999  1.0000
  C   C133      1.0  0.48276999999999987  0.98901  0.76705  1.0000
  C   C134      1.0  0.5657  0.98603  0.7459099999999999  1.0000
  C   C135      1.0  0.63228  0.97648  0.78346  1.0000
  C   C136      1.0  0.51595  0.96738  0.9272099999999998  1.0000
  C   C137      1.0  0.41309  0.00273  0.72779  1.0000
  C   C138      1.0  0.7182899999999998  0.96758  0.76048  1.0000
  C   C139      1.0  0.38347  0.99821  0.8467599999999997  1.0000
  C   C140      1.0  0.37542  0.054179999999999985  0.88156  1.0000
  C   C141      1.0  0.28869  0.06485  0.89918  1.0000
  C   C142      1.0  0.5796599999999997  0.9937  0.6843799999999999  1.0000
  C   C143      1.0  0.6487899999999998  0.03921999999999999  0.6572599999999998  1.0000
  C   C144      1.0  0.64802  0.0474  0.59517  1.0000
  O   O1        1.0  0.5497000000000001  0.11969  0.4916099999999999  1.0000
  O   O2        1.0  0.72497  0.25063  0.51386  1.0000
  O   O3        1.0  0.9127599999999999  0.43637  0.43722  1.0000
  O   O4        1.0  0.72936  0.04046  0.45699  1.0000
  O   O5        1.0  0.58871  0.98627  0.42977999999999994  1.0000
  O   O6        1.0  0.68332  0.66564  0.10543999999999998  1.0000
  O   O7        1.0  0.80845  0.7599299999999998  0.09989  1.0000
  O   O8        1.0  0.9878499999999999  0.60094  0.4543  1.0000
  O   O9        1.0  0.08392999999999999  0.70504  0.49193999999999993  1.0000
  O   O10       1.0  0.7917399999999999  0.39684999999999987  0.55137  1.0000
  O   O11       1.0  0.8881  0.51332  0.55437  1.0000
  O   O12       1.0  0.21730000000000002  0.51969  0.61442  1.0000
  O   O13       1.0  0.29526  0.6278  0.57113  1.0000
  O   O14       1.0  0.59553  0.49574  0.93421  1.0000
  O   O15       1.0  0.69953  0.60727  0.92593  1.0000
  O   O16       1.0  0.4503  0.38104  0.9917299999999999  1.0000
  O   O17       1.0  0.27485999999999994  0.2483  0.013839999999999996  1.0000
  O   O18       1.0  0.08749  0.062179999999999985  0.9368999999999998  1.0000
  O   O19       1.0  0.26762  0.45767  0.9568499999999999  1.0000
  O   O20       1.0  0.40863999999999995  0.5125399999999999  0.9309599999999998  1.0000
  O   O21       1.0  0.31260999999999994  0.8329999999999999  0.60542  1.0000
  O   O22       1.0  0.18772  0.73816  0.60009  1.0000
  O   O23       1.0  0.011669999999999929  0.8985299999999998  0.95433  1.0000
  O   O24       1.0  0.91654  0.79608  0.9944199999999997  1.0000
  O   O25       1.0  0.20802  0.10087  0.04926  1.0000
  O   O26       1.0  0.11022999999999995  0.98522  0.05458999999999999  1.0000
  O   O27       1.0  0.78123  0.98218  0.11429999999999997  1.0000
  O   O28       1.0  0.70431  0.8733099999999998  0.07146  1.0000
  O   O29       1.0  0.40446  0.0038799999999999998  0.43431999999999993  1.0000
  O   O30       1.0  0.29992  0.89298  0.42587999999999987  1.0000
  O   O31       1.0  0.45031  0.88031  0.5084  1.0000
  O   O32       1.0  0.27504  0.74937  0.4861499999999999  1.0000
  O   O33       1.0  0.08724999999999992  0.5636299999999997  0.5627799999999998  1.0000
  O   O34       1.0  0.27065  0.9595399999999998  0.5430099999999999  1.0000
  O   O35       1.0  0.4113  0.01373  0.57022  1.0000
  O   O36       1.0  0.31669  0.33436  0.89456  1.0000
  O   O37       1.0  0.19155999999999998  0.24006999999999998  0.9001099999999999  1.0000
  O   O38       1.0  0.012159999999999995  0.39905  0.5457  1.0000
  O   O39       1.0  0.91608  0.2949599999999999  0.50806  1.0000
  O   O40       1.0  0.20826999999999998  0.6031499999999999  0.4486299999999999  1.0000
  O   O41       1.0  0.11190999999999997  0.48667999999999995  0.44563  1.0000
  O   O42       1.0  0.7827  0.48031  0.3855799999999999  1.0000
  O   O43       1.0  0.70475  0.3722  0.4288699999999999  1.0000
  O   O44       1.0  0.40448  0.50426  0.06579  1.0000
  O   O45       1.0  0.30048  0.3927299999999999  0.07408  1.0000
  O   O46       1.0  0.54971  0.61896  0.00828  1.0000
  O   O47       1.0  0.7251499999999999  0.7516999999999998  0.98617  1.0000
  O   O48       1.0  0.91252  0.93782  0.06311  1.0000
  O   O49       1.0  0.73239  0.54233  0.04315999999999999  1.0000
  O   O50       1.0  0.59136  0.48746  0.06905  1.0000
  O   O51       1.0  0.6874  0.167  0.3945899999999999  1.0000
  O   O52       1.0  0.81229  0.26184  0.39990999999999993  1.0000
  O   O53       1.0  0.98834  0.10146999999999998  0.04568  1.0000
  O   O54       1.0  0.08347  0.20392  0.005579999999999999  1.0000
  O   O55       1.0  0.79199  0.89913  0.9507399999999998  1.0000
  O   O56       1.0  0.88977  0.014780000000000001  0.94541  1.0000
  O   O57       1.0  0.21877  0.017819999999999996  0.8857  1.0000
  O   O58       1.0  0.2957  0.12669  0.9285399999999998  1.0000
  O   O59       1.0  0.59555  0.99611  0.56568  1.0000
  O   O60       1.0  0.70009  0.10702  0.57412  1.0000
