data_image0
_chemical_formula_structural       Mn12H56C120O56
_chemical_formula_sum              "Mn12 H56 C120 O56"
_cell_length_a       14.46095
_cell_length_b       18.10305
_cell_length_c       19.891889999999997
_cell_angle_alpha    90.02146
_cell_angle_beta     98.89856
_cell_angle_gamma    89.99005

_space_group_name_H-M_alt    "P 1"
_space_group_IT_number       1

loop_
  _space_group_symop_operation_xyz
  'x, y, z'

loop_
  _atom_site_type_symbol
  _atom_site_label
  _atom_site_symmetry_multiplicity
  _atom_site_fract_x
  _atom_site_fract_y
  _atom_site_fract_z
  _atom_site_occupancy
  Mn  Mn1       1.0  0.93132  0.15034  0.75986  1.0000
  Mn  Mn2       1.0  0.6157999999999999  0.15479999999999997  0.70255  1.0000
  Mn  Mn3       1.0  0.7668399999999999  0.01643  0.73152  1.0000
  Mn  Mn4       1.0  0.5681  0.65003  0.24044999999999997  1.0000
  Mn  Mn5       1.0  0.8857  0.65453  0.29713  1.0000
  Mn  Mn6       1.0  0.73347  0.51671  0.26876  1.0000
  Mn  Mn7       1.0  0.06868  0.84966  0.24014  1.0000
  Mn  Mn8       1.0  0.38419  0.8452  0.29745  1.0000
  Mn  Mn9       1.0  0.23315  0.9835700000000002  0.26848  1.0000
  Mn  Mn10      1.0  0.4318899999999999  0.34997  0.75955  1.0000
  Mn  Mn11      1.0  0.11429000000000003  0.34546  0.70287  1.0000
  Mn  Mn12      1.0  0.26653  0.48329  0.73124  1.0000
  H   H1        1.0  0.94181  0.92885  0.11647999999999999  1.0000
  H   H2        1.0  0.06922  0.14266  0.10763000000000002  1.0000
  H   H3        1.0  0.82393  0.96106  0.014599999999999998  1.0000
  H   H4        1.0  0.94494  0.17704  0.00897  1.0000
  H   H5        1.0  0.74546  0.13586  0.060149999999999995  1.0000
  H   H6        1.0  0.62304  0.23356  0.056499999999999995  1.0000
  H   H7        1.0  0.55973  0.2942  0.9455199999999999  1.0000
  H   H8        1.0  0.5094  0.9299599999999999  0.41719  1.0000
  H   H9        1.0  0.4813  0.15662  0.35251  1.0000
  H   H10       1.0  0.65728  0.96106  0.49392  1.0000
  H   H11       1.0  0.63048  0.18799  0.42895000000000005  1.0000
  H   H12       1.0  0.79206  0.14143  0.40101  1.0000
  H   H13       1.0  0.9120599999999998  0.24128999999999998  0.40436  1.0000
  H   H14       1.0  0.98136  0.29687  0.51566  1.0000
  H   H15       1.0  0.55731  0.42921  0.88325  1.0000
  H   H16       1.0  0.4301699999999999  0.64313  0.89263  1.0000
  H   H17       1.0  0.67551  0.46123999999999993  0.9849399999999999  1.0000
  H   H18       1.0  0.55485  0.67734  0.99114  1.0000
  H   H19       1.0  0.75415  0.6359399999999998  0.93962  1.0000
  H   H20       1.0  0.87685  0.73333  0.94343  1.0000
  H   H21       1.0  0.93992  0.79396  0.05433999999999999  1.0000
  H   H22       1.0  0.99095  0.42995  0.58287  1.0000
  H   H23       1.0  0.018720000000000007  0.65664  0.64731  1.0000
  H   H24       1.0  0.84273  0.46061  0.50638  1.0000
  H   H25       1.0  0.86919  0.68776  0.5711  1.0000
  H   H26       1.0  0.70709  0.64118  0.59894  1.0000
  H   H27       1.0  0.58759  0.74146  0.59542  1.0000
  H   H28       1.0  0.51875  0.79683  0.48393  1.0000
  H   H29       1.0  0.05818999999999997  0.07115  0.8835199999999999  1.0000
  H   H30       1.0  0.9307700000000001  0.85733  0.8923700000000001  1.0000
  H   H31       1.0  0.17606999999999998  0.03894  0.9853999999999999  1.0000
  H   H32       1.0  0.055049999999999995  0.82296  0.99103  1.0000
  H   H33       1.0  0.25453  0.8641299999999998  0.93985  1.0000
  H   H34       1.0  0.37695  0.76643  0.9435  1.0000
  H   H35       1.0  0.44026  0.7058  0.054479999999999994  1.0000
  H   H36       1.0  0.4906  0.07004  0.58281  1.0000
  H   H37       1.0  0.5187  0.84337  0.64749  1.0000
  H   H38       1.0  0.34271  0.03893  0.50608  1.0000
  H   H39       1.0  0.36952  0.81201  0.57105  1.0000
  H   H40       1.0  0.20794  0.85857  0.59899  1.0000
  H   H41       1.0  0.08793  0.75871  0.59564  1.0000
  H   H42       1.0  0.018639999999999993  0.70313  0.48434  1.0000
  H   H43       1.0  0.44269  0.57078  0.11675  1.0000
  H   H44       1.0  0.56983  0.35687  0.10737  1.0000
  H   H45       1.0  0.32449  0.53875  0.01506  1.0000
  H   H46       1.0  0.44515  0.32266  0.00886  1.0000
  H   H47       1.0  0.24583999999999998  0.36404999999999993  0.06038  1.0000
  H   H48       1.0  0.12313999999999999  0.26666  0.05657  1.0000
  H   H49       1.0  0.06007999999999998  0.20604  0.94566  1.0000
  H   H50       1.0  0.00905  0.57005  0.41713  1.0000
  H   H51       1.0  0.98128  0.34336  0.35269  1.0000
  H   H52       1.0  0.15727  0.53938  0.49362  1.0000
  H   H53       1.0  0.1308  0.31223  0.4289  1.0000
  H   H54       1.0  0.2929  0.35882  0.40106  1.0000
  H   H55       1.0  0.4124  0.25854  0.40458  1.0000
  H   H56       1.0  0.4812399999999999  0.20316999999999996  0.51607  1.0000
  C   C1        1.0  0.08341  0.014759999999999999  0.17757  1.0000
  C   C2        1.0  0.0123  0.03426  0.11849  1.0000
  C   C3        1.0  0.94319  0.9828000000000001  0.09256  1.0000
  C   C4        1.0  0.01406  0.10405  0.08777  1.0000
  C   C5        1.0  0.87703  0.0005  0.03622  1.0000
  C   C6        1.0  0.94623  0.12297999999999999  0.03291  1.0000
  C   C7        1.0  0.87858  0.07063  0.00742  1.0000
  C   C8        1.0  0.75004  0.14252  0.9525999999999999  1.0000
  C   C9        1.0  0.71771  0.16309999999999997  0.01257  1.0000
  C   C10       1.0  0.71492  0.17609  0.8902699999999999  1.0000
  C   C11       1.0  0.7570399999999999  0.15186  0.82948  1.0000
  C   C12       1.0  0.64906  0.21792  0.01004  1.0000
  C   C13       1.0  0.64563  0.23101  0.8883  1.0000
  C   C14       1.0  0.60504  0.26699  0.8226400000000001  1.0000
  C   C15       1.0  0.61336  0.25174  0.9485900000000002  1.0000
  C   C16       1.0  0.39506  0.02272  0.33812  1.0000
  C   C17       1.0  0.48511  0.04163  0.38029  1.0000
  C   C18       1.0  0.53556  0.98625  0.41979  1.0000
  C   C19       1.0  0.5202100000000002  0.11419000000000001  0.38371  1.0000
  C   C20       1.0  0.61821  0.0029699999999999996  0.46225  1.0000
  C   C21       1.0  0.60363  0.13176  0.4260399999999999  1.0000
  C   C22       1.0  0.65195  0.07553999999999998  0.46547999999999995  1.0000
  C   C23       1.0  0.7925399999999998  0.14462  0.50919  1.0000
  C   C24       1.0  0.82174  0.16733  0.44881000000000004  1.0000
  C   C25       1.0  0.82991  0.17576999999999998  0.57205  1.0000
  C   C26       1.0  0.78848  0.15129  0.63328  1.0000
  C   C27       1.0  0.88927  0.22291  0.45121  1.0000
  C   C28       1.0  0.8991  0.23068999999999998  0.57399  1.0000
  C   C29       1.0  0.94298  0.26402  0.63994  1.0000
  C   C30       1.0  0.92801  0.25419  0.5132  1.0000
  C   C31       1.0  0.41574  0.5149699999999999  0.82234  1.0000
  C   C32       1.0  0.4867899999999999  0.53462  0.8814799999999999  1.0000
  C   C33       1.0  0.55594  0.48312999999999995  0.90725  1.0000
  C   C34       1.0  0.48526  0.6044  0.9123499999999999  1.0000
  C   C35       1.0  0.62235  0.5007  0.9634600000000001  1.0000
  C   C36       1.0  0.55336  0.62326  0.9671100000000001  1.0000
  C   C37       1.0  0.621  0.57081  0.9923799999999999  1.0000
  C   C38       1.0  0.74969  0.64243  0.04721  1.0000
  C   C39       1.0  0.7819800000000002  0.66303  0.98725  1.0000
  C   C40       1.0  0.78496  0.67575  0.10965999999999998  1.0000
  C   C41       1.0  0.74311  0.65074  0.17038  1.0000
  C   C42       1.0  0.85065  0.71777  0.98983  1.0000
  C   C43       1.0  0.85432  0.73064  0.11167000000000002  1.0000
  C   C44       1.0  0.89509  0.76668  0.17731  1.0000
  C   C45       1.0  0.88637  0.75148  0.051329999999999994  1.0000
  C   C46       1.0  0.10476  0.52271  0.66182  1.0000
  C   C47       1.0  0.014810000000000007  0.54165  0.61963  1.0000
  C   C48       1.0  0.96448  0.48616  0.58024  1.0000
  C   C49       1.0  0.97968  0.61417  0.61621  1.0000
  C   C50       1.0  0.8816699999999998  0.50269  0.53793  1.0000
  C   C51       1.0  0.89612  0.63157  0.57401  1.0000
  C   C52       1.0  0.84776  0.57523  0.53473  1.0000
  C   C53       1.0  0.7076199999999998  0.64473  0.49089  1.0000
  C   C54       1.0  0.67799  0.66737  0.55117  1.0000
  C   C55       1.0  0.67116  0.67638  0.4280399999999999  1.0000
  C   C56       1.0  0.71279  0.65217  0.36677  1.0000
  C   C57       1.0  0.6106799999999999  0.72311  0.54866  1.0000
  C   C58       1.0  0.60149  0.731  0.42590999999999996  1.0000
  C   C59       1.0  0.5566  0.7639699999999999  0.36  1.0000
  C   C60       1.0  0.57233  0.75438  0.48662000000000005  1.0000
  C   C61       1.0  0.91658  0.98523  0.82243  1.0000
  C   C62       1.0  0.98769  0.96574  0.88151  1.0000
  C   C63       1.0  0.056799999999999996  0.0172  0.9074400000000001  1.0000
  C   C64       1.0  0.98594  0.8959400000000001  0.9122300000000001  1.0000
  C   C65       1.0  0.12295999999999994  0.9995  0.96378  1.0000
  C   C66       1.0  0.05377000000000003  0.87702  0.9670900000000001  1.0000
  C   C67       1.0  0.12141000000000003  0.92937  0.99258  1.0000
  C   C68       1.0  0.24996  0.85748  0.0474  1.0000
  C   C69       1.0  0.28229  0.83689  0.9874300000000001  1.0000
  C   C70       1.0  0.28507  0.82391  0.10973  1.0000
  C   C71       1.0  0.24296  0.84814  0.17052  1.0000
  C   C72       1.0  0.35092999999999996  0.78208  0.9899599999999998  1.0000
  C   C73       1.0  0.35436  0.76899  0.11170000000000001  1.0000
  C   C74       1.0  0.39495  0.733  0.17736  1.0000
  C   C75       1.0  0.38663  0.74826  0.05140999999999999  1.0000
  C   C76       1.0  0.6049399999999999  0.97727  0.66188  1.0000
  C   C77       1.0  0.51488  0.95837  0.61971  1.0000
  C   C78       1.0  0.46443  0.01375  0.58021  1.0000
  C   C79       1.0  0.47978999999999977  0.8858099999999999  0.61629  1.0000
  C   C80       1.0  0.38179  0.9970299999999999  0.53775  1.0000
  C   C81       1.0  0.39637  0.86823  0.57396  1.0000
  C   C82       1.0  0.34804  0.92446  0.53452  1.0000
  C   C83       1.0  0.20746  0.85538  0.49081  1.0000
  C   C84       1.0  0.17825  0.83267  0.55119  1.0000
  C   C85       1.0  0.17009  0.82423  0.42795  1.0000
  C   C86       1.0  0.21151  0.84871  0.36672  1.0000
  C   C87       1.0  0.11073  0.77709  0.54879  1.0000
  C   C88       1.0  0.10089  0.76931  0.42601  1.0000
  C   C89       1.0  0.05700999999999999  0.73597  0.36006  1.0000
  C   C90       1.0  0.07199  0.7458  0.4868  1.0000
  C   C91       1.0  0.58425  0.48502  0.17766  1.0000
  C   C92       1.0  0.5132  0.46537999999999996  0.11851999999999999  1.0000
  C   C93       1.0  0.44406  0.51687  0.09275  1.0000
  C   C94       1.0  0.51473  0.3956  0.08765  1.0000
  C   C95       1.0  0.37765  0.49928999999999996  0.03654  1.0000
  C   C96       1.0  0.44663  0.37673  0.03289  1.0000
  C   C97       1.0  0.379  0.42919  0.00762  1.0000
  C   C98       1.0  0.25031  0.35757  0.95279  1.0000
  C   C99       1.0  0.21802  0.33697  0.01275  1.0000
  C   C100      1.0  0.21502999999999997  0.32425  0.8903399999999999  1.0000
  C   C101      1.0  0.2568900000000001  0.34925  0.82962  1.0000
  C   C102      1.0  0.14934  0.28223  0.01017  1.0000
  C   C103      1.0  0.14567999999999998  0.26936  0.8883299999999998  1.0000
  C   C104      1.0  0.1049  0.23331000000000002  0.8226899999999999  1.0000
  C   C105      1.0  0.11363000000000002  0.24851  0.94867  1.0000
  C   C106      1.0  0.8952299999999997  0.47729  0.33818  1.0000
  C   C107      1.0  0.98518  0.4583400000000001  0.38037  1.0000
  C   C108      1.0  0.03550999999999997  0.51384  0.41975999999999997  1.0000
  C   C109      1.0  0.020310000000000016  0.38582  0.38379  1.0000
  C   C110      1.0  0.11832999999999998  0.49731  0.4620699999999999  1.0000
  C   C111      1.0  0.10387  0.36843  0.42599  1.0000
  C   C112      1.0  0.15222999999999995  0.42477  0.46526999999999996  1.0000
  C   C113      1.0  0.29236999999999996  0.35525999999999996  0.50911  1.0000
  C   C114      1.0  0.322  0.33262  0.44883  1.0000
  C   C115      1.0  0.32884  0.32362  0.57196  1.0000
  C   C116      1.0  0.2872  0.34783  0.63323  1.0000
  C   C117      1.0  0.38932  0.27689  0.45133999999999996  1.0000
  C   C118      1.0  0.3985  0.26899  0.57409  1.0000
  C   C119      1.0  0.44339999999999996  0.23603000000000002  0.64  1.0000
  C   C120      1.0  0.42766  0.24562000000000003  0.51338  1.0000
  O   O1        1.0  0.06896  0.9592699999999998  0.21543  1.0000
  O   O2        1.0  0.15872  0.05212  0.19201  1.0000
  O   O3        1.0  0.81383  0.08571  0.9495899999999999  1.0000
  O   O4        1.0  0.8336  0.18117  0.82155  1.0000
  O   O5        1.0  0.7137399999999998  0.10061999999999999  0.79137  1.0000
  O   O6        1.0  0.62585  0.24155000000000001  0.76717  1.0000
  O   O7        1.0  0.5507499999999999  0.32233  0.8253000000000001  1.0000
  O   O8        1.0  0.33716  0.07067  0.3108  1.0000
  O   O9        1.0  0.37167  0.95312  0.33047  1.0000
  O   O10       1.0  0.73185  0.08571  0.51233  1.0000
  O   O11       1.0  0.71545  0.18497  0.643  1.0000
  O   O12       1.0  0.8283  0.09773000000000001  0.66995  1.0000
  O   O13       1.0  0.92551  0.23747000000000001  0.69599  1.0000
  O   O14       1.0  0.99728  0.31912999999999997  0.63658  1.0000
  O   O15       1.0  0.43103  0.45983  0.78425  1.0000
  O   O16       1.0  0.33989  0.55179  0.80807  1.0000
  O   O17       1.0  0.68595  0.58564  0.05018  1.0000
  O   O18       1.0  0.6656099999999999  0.67845  0.17813  1.0000
  O   O19       1.0  0.78726  0.60021  0.20874  1.0000
  O   O20       1.0  0.87405  0.74156  0.23284  1.0000
  O   O21       1.0  0.94959  0.82186  0.17456  1.0000
  O   O22       1.0  0.16283  0.57055  0.68913  1.0000
  O   O23       1.0  0.12782  0.4530600000000001  0.66949  1.0000
  O   O24       1.0  0.76787  0.58547  0.48788  1.0000
  O   O25       1.0  0.78659  0.6849  0.35733  1.0000
  O   O26       1.0  0.6720399999999999  0.59935  0.32957  1.0000
  O   O27       1.0  0.57435  0.73763  0.30393  1.0000
  O   O28       1.0  0.50098  0.81829  0.3635  1.0000
  O   O29       1.0  0.9310299999999999  0.04072  0.78457  1.0000
  O   O30       1.0  0.84127  0.94787  0.80799  1.0000
  O   O31       1.0  0.18616  0.91429  0.05041  1.0000
  O   O32       1.0  0.16639  0.81883  0.17845  1.0000
  O   O33       1.0  0.28626  0.89938  0.20863  1.0000
  O   O34       1.0  0.37414  0.75845  0.23283000000000004  1.0000
  O   O35       1.0  0.44925  0.6776699999999999  0.1747  1.0000
  O   O36       1.0  0.66284  0.9293299999999999  0.6892  1.0000
  O   O37       1.0  0.62833  0.04688  0.66953  1.0000
  O   O38       1.0  0.26815  0.91429  0.48767  1.0000
  O   O39       1.0  0.28455  0.81503  0.357  1.0000
  O   O40       1.0  0.17169  0.9022699999999999  0.33005  1.0000
  O   O41       1.0  0.07448  0.76253  0.30401  1.0000
  O   O42       1.0  0.00272000000000001  0.68087  0.36342  1.0000
  O   O43       1.0  0.56896  0.54017  0.21575  1.0000
  O   O44       1.0  0.6601099999999998  0.44819999999999993  0.19193  1.0000
  O   O45       1.0  0.31405  0.41435999999999995  0.9498200000000001  1.0000
  O   O46       1.0  0.33438  0.32155  0.82187  1.0000
  O   O47       1.0  0.21272999999999997  0.39979  0.79126  1.0000
  O   O48       1.0  0.12595000000000003  0.25844  0.76716  1.0000
  O   O49       1.0  0.0504  0.17813  0.82544  1.0000
  O   O50       1.0  0.83717  0.42944999999999994  0.31087  1.0000
  O   O51       1.0  0.87217  0.5469399999999999  0.33051  1.0000
  O   O52       1.0  0.23212  0.41453  0.51212  1.0000
  O   O53       1.0  0.21339999999999998  0.3151  0.64267  1.0000
  O   O54       1.0  0.32796  0.40064  0.67043  1.0000
  O   O55       1.0  0.42565  0.26237  0.69607  1.0000
  O   O56       1.0  0.49901  0.18170999999999998  0.6365  1.0000
