data_image0
_chemical_formula_structural       Cu18H60C156N24O72
_chemical_formula_sum              "Cu18 H60 C156 N24 O72"
_cell_length_a       18.73196
_cell_length_b       18.732059999999997
_cell_length_c       39.95245
_cell_angle_alpha    90.0
_cell_angle_beta     90.0
_cell_angle_gamma    120.00111

_symmetry_space_group_name_H-M    'P 1'
_symmetry_Int_Tables_number       1

loop_
  _symmetry_equiv_pos_as_xyz
  'x,y,z'

loop_
  _atom_site_type_symbol
  _atom_site_label
  _atom_site_symmetry_multiplicity
  _atom_site_fract_x
  _atom_site_fract_y
  _atom_site_fract_z
  _atom_site_occupancy
  Cu  Cu1       1.0  0.4783599999999999  0.52164  0.52509  1.0000
  Cu  Cu2       1.0  0.47831  0.95666  0.52508  1.0000
  Cu  Cu3       1.0  0.04333999999999996  0.52169  0.52508  1.0000
  Cu  Cu4       1.0  0.52165  0.47835  0.025090000000000005  1.0000
  Cu  Cu5       1.0  0.5216899999999999  0.04334  0.025080000000000005  1.0000
  Cu  Cu6       1.0  0.95667  0.47831  0.025080000000000005  1.0000
  Cu  Cu7       1.0  0.52164  0.47835  0.47491  1.0000
  Cu  Cu8       1.0  0.95667  0.47831  0.47492  1.0000
  Cu  Cu9       1.0  0.5216899999999999  0.04334  0.47492  1.0000
  Cu  Cu10      1.0  0.4783599999999999  0.52164  0.97491  1.0000
  Cu  Cu11      1.0  0.04333999999999996  0.52169  0.97492  1.0000
  Cu  Cu12      1.0  0.47831  0.95666  0.97492  1.0000
  Cu  Cu13      1.0  0.9434199999999999  0.88685  0.25  1.0000
  Cu  Cu14      1.0  0.11315  0.05658  0.25  1.0000
  Cu  Cu15      1.0  0.94344  0.05656  0.25  1.0000
  Cu  Cu16      1.0  0.05657999999999999  0.11315  0.75  1.0000
  Cu  Cu17      1.0  0.8868499999999999  0.94341  0.75  1.0000
  Cu  Cu18      1.0  0.05656000000000008  0.94344  0.75  1.0000
  H   H1        1.0  0.63557  0.70288  0.41583  1.0000
  H   H2        1.0  0.77837  0.00419  0.3309  1.0000
  H   H3        1.0  0.29711  0.93274  0.41579  1.0000
  H   H4        1.0  0.99579  0.7742  0.33088  1.0000
  H   H5        1.0  0.06722999999999998  0.3645  0.41585  1.0000
  H   H6        1.0  0.22586  0.22168  0.33093  1.0000
  H   H7        1.0  0.3644299999999998  0.29711  0.9158300000000001  1.0000
  H   H8        1.0  0.22164000000000003  0.9957999999999999  0.8309  1.0000
  H   H9        1.0  0.70289  0.06726  0.91579  1.0000
  H   H10       1.0  0.00421000000000001  0.2258  0.83088  1.0000
  H   H11       1.0  0.93277  0.6355  0.91586  1.0000
  H   H12       1.0  0.7741399999999999  0.77832  0.8309300000000001  1.0000
  H   H13       1.0  0.7028799999999998  0.63556  0.58417  1.0000
  H   H14       1.0  0.004200000000000001  0.77836  0.6691  1.0000
  H   H15       1.0  0.9327399999999999  0.29711  0.58421  1.0000
  H   H16       1.0  0.7742  0.99579  0.66912  1.0000
  H   H17       1.0  0.36449999999999994  0.06723  0.58415  1.0000
  H   H18       1.0  0.22168  0.22586  0.66907  1.0000
  H   H19       1.0  0.29712  0.36443  0.08417  1.0000
  H   H20       1.0  0.9957999999999999  0.22164  0.16910000000000003  1.0000
  H   H21       1.0  0.06725999999999997  0.70289  0.08421  1.0000
  H   H22       1.0  0.2258  0.00421  0.16912  1.0000
  H   H23       1.0  0.6355  0.9327600000000001  0.08415  1.0000
  H   H24       1.0  0.77832  0.77414  0.16907  1.0000
  H   H25       1.0  0.3644399999999998  0.29711  0.58417  1.0000
  H   H26       1.0  0.22164000000000003  0.9957999999999999  0.6691  1.0000
  H   H27       1.0  0.70289  0.06726  0.58421  1.0000
  H   H28       1.0  0.00421000000000001  0.2258  0.66912  1.0000
  H   H29       1.0  0.93277  0.6355  0.58415  1.0000
  H   H30       1.0  0.7741399999999999  0.77832  0.66907  1.0000
  H   H31       1.0  0.63557  0.70288  0.08417  1.0000
  H   H32       1.0  0.77837  0.00419  0.16910000000000003  1.0000
  H   H33       1.0  0.29711  0.93274  0.08421  1.0000
  H   H34       1.0  0.99579  0.7742  0.16912  1.0000
  H   H35       1.0  0.06722999999999998  0.3645  0.08415  1.0000
  H   H36       1.0  0.22586  0.22168  0.16907  1.0000
  H   H37       1.0  0.29712  0.36443  0.41583  1.0000
  H   H38       1.0  0.9958000000000001  0.22163  0.3309  1.0000
  H   H39       1.0  0.06725999999999997  0.70289  0.41579  1.0000
  H   H40       1.0  0.2258  0.00421  0.33088  1.0000
  H   H41       1.0  0.6355  0.9327600000000001  0.41585  1.0000
  H   H42       1.0  0.77832  0.77414  0.33093  1.0000
  H   H43       1.0  0.7028799999999998  0.63556  0.9158300000000001  1.0000
  H   H44       1.0  0.004200000000000001  0.77836  0.8309  1.0000
  H   H45       1.0  0.9327399999999999  0.29711  0.91579  1.0000
  H   H46       1.0  0.7742  0.99579  0.83088  1.0000
  H   H47       1.0  0.36449999999999994  0.06723  0.91586  1.0000
  H   H48       1.0  0.22168  0.22586  0.8309300000000001  1.0000
  H   H49       1.0  0.52005  0.76006  0.49666000000000005  1.0000
  H   H50       1.0  0.23993999999999996  0.76006  0.49663  1.0000
  H   H51       1.0  0.23993  0.47995  0.49666000000000005  1.0000
  H   H52       1.0  0.47995  0.23993  0.99666  1.0000
  H   H53       1.0  0.76006  0.23994  0.99663  1.0000
  H   H54       1.0  0.7600699999999999  0.52005  0.99666  1.0000
  H   H55       1.0  0.7600699999999999  0.52005  0.50334  1.0000
  H   H56       1.0  0.76006  0.23994  0.50337  1.0000
  H   H57       1.0  0.47995  0.23993  0.50334  1.0000
  H   H58       1.0  0.23993  0.47995  0.00334  1.0000
  H   H59       1.0  0.23993999999999996  0.76006  0.0033700000000000006  1.0000
  H   H60       1.0  0.52005  0.76006  0.00334  1.0000
  C   C1        1.0  0.54968  0.64112  0.4735500000000001  1.0000
  C   C2        1.0  0.57491  0.72276  0.4578000000000001  1.0000
  C   C3        1.0  0.61886  0.74473  0.42766000000000004  1.0000
  C   C4        1.0  0.76032  0.94373  0.34135  1.0000
  C   C5        1.0  0.35887999999999987  0.90856  0.4735500000000001  1.0000
  C   C6        1.0  0.27725999999999995  0.85218  0.45777000000000007  1.0000
  C   C7        1.0  0.25531  0.87419  0.42763000000000007  1.0000
  C   C8        1.0  0.05625000000000002  0.81661  0.3413300000000001  1.0000
  C   C9        1.0  0.09152000000000003  0.45044  0.4735500000000001  1.0000
  C   C10       1.0  0.14786  0.42515  0.45779  1.0000
  C   C11       1.0  0.12579999999999997  0.38117  0.42765000000000003  1.0000
  C   C12       1.0  0.18341  0.23971  0.34136  1.0000
  C   C13       1.0  0.45032  0.35888  0.9735500000000002  1.0000
  C   C14       1.0  0.4250900000000001  0.27724  0.9578  1.0000
  C   C15       1.0  0.3811399999999999  0.25527  0.9276600000000002  1.0000
  C   C16       1.0  0.23968  0.05627  0.8413500000000002  1.0000
  C   C17       1.0  0.64112  0.09143  0.9735500000000002  1.0000
  C   C18       1.0  0.72275  0.14782  0.9577700000000001  1.0000
  C   C19       1.0  0.7446899999999999  0.1258  0.92763  1.0000
  C   C20       1.0  0.94375  0.18339  0.84134  1.0000
  C   C21       1.0  0.90848  0.54956  0.9735500000000002  1.0000
  C   C22       1.0  0.8521399999999999  0.57485  0.9577900000000001  1.0000
  C   C23       1.0  0.8741999999999999  0.61882  0.9276600000000002  1.0000
  C   C24       1.0  0.81659  0.76029  0.84136  1.0000
  C   C25       1.0  0.64112  0.54967  0.52645  1.0000
  C   C26       1.0  0.72276  0.57491  0.5422  1.0000
  C   C27       1.0  0.7447299999999999  0.61886  0.5723400000000001  1.0000
  C   C28       1.0  0.94373  0.76032  0.65866  1.0000
  C   C29       1.0  0.90857  0.35888  0.52645  1.0000
  C   C30       1.0  0.8521799999999998  0.27725  0.54223  1.0000
  C   C31       1.0  0.8741999999999999  0.2553  0.57238  1.0000
  C   C32       1.0  0.8166099999999998  0.05625  0.65867  1.0000
  C   C33       1.0  0.45044  0.09152  0.52645  1.0000
  C   C34       1.0  0.42514999999999986  0.14786  0.54221  1.0000
  C   C35       1.0  0.38116999999999995  0.1258  0.57235  1.0000
  C   C36       1.0  0.23970999999999998  0.18341  0.65864  1.0000
  C   C37       1.0  0.35888  0.45032  0.02645  1.0000
  C   C38       1.0  0.27723999999999993  0.4250900000000001  0.0422  1.0000
  C   C39       1.0  0.25527  0.38114  0.07234  1.0000
  C   C40       1.0  0.056269999999999966  0.23968  0.15865000000000004  1.0000
  C   C41       1.0  0.09143999999999994  0.64112  0.02645  1.0000
  C   C42       1.0  0.14782000000000003  0.72274  0.042230000000000004  1.0000
  C   C43       1.0  0.12580999999999998  0.74469  0.07238000000000001  1.0000
  C   C44       1.0  0.18338999999999994  0.94375  0.15867  1.0000
  C   C45       1.0  0.54956  0.90848  0.02645  1.0000
  C   C46       1.0  0.57485  0.85213  0.04221  1.0000
  C   C47       1.0  0.6188299999999999  0.87419  0.07235  1.0000
  C   C48       1.0  0.7603  0.81659  0.15864  1.0000
  C   C49       1.0  0.45032  0.35888  0.52645  1.0000
  C   C50       1.0  0.4250900000000001  0.27724  0.5422  1.0000
  C   C51       1.0  0.3811399999999999  0.25527  0.5723400000000001  1.0000
  C   C52       1.0  0.23968  0.05627  0.65866  1.0000
  C   C53       1.0  0.64112  0.09144  0.52645  1.0000
  C   C54       1.0  0.72275  0.14782  0.54223  1.0000
  C   C55       1.0  0.7447  0.12581  0.57238  1.0000
  C   C56       1.0  0.94375  0.18339  0.65867  1.0000
  C   C57       1.0  0.90848  0.54956  0.52645  1.0000
  C   C58       1.0  0.8521399999999999  0.57485  0.54221  1.0000
  C   C59       1.0  0.8741999999999999  0.61882  0.57235  1.0000
  C   C60       1.0  0.81659  0.76029  0.65864  1.0000
  C   C61       1.0  0.54968  0.64112  0.02645  1.0000
  C   C62       1.0  0.57491  0.72276  0.0422  1.0000
  C   C63       1.0  0.61886  0.74473  0.07234  1.0000
  C   C64       1.0  0.76032  0.94373  0.15865000000000004  1.0000
  C   C65       1.0  0.35887999999999987  0.90856  0.02645  1.0000
  C   C66       1.0  0.27725999999999995  0.85218  0.042230000000000004  1.0000
  C   C67       1.0  0.25531  0.87419  0.07238000000000001  1.0000
  C   C68       1.0  0.05625000000000002  0.81661  0.15867  1.0000
  C   C69       1.0  0.09152000000000003  0.45044  0.02645  1.0000
  C   C70       1.0  0.14786  0.42515  0.04221  1.0000
  C   C71       1.0  0.12579999999999997  0.38117  0.07235  1.0000
  C   C72       1.0  0.18341  0.23971  0.15864  1.0000
  C   C73       1.0  0.35888  0.45032  0.4735500000000001  1.0000
  C   C74       1.0  0.27723999999999993  0.4250900000000001  0.4578000000000001  1.0000
  C   C75       1.0  0.25527  0.38114  0.42766000000000004  1.0000
  C   C76       1.0  0.056269999999999966  0.23968  0.34135  1.0000
  C   C77       1.0  0.09143999999999994  0.64112  0.4735500000000001  1.0000
  C   C78       1.0  0.14782000000000003  0.72274  0.45777000000000007  1.0000
  C   C79       1.0  0.12580999999999998  0.74469  0.42763000000000007  1.0000
  C   C80       1.0  0.18338999999999994  0.94375  0.3413300000000001  1.0000
  C   C81       1.0  0.54956  0.90848  0.4735500000000001  1.0000
  C   C82       1.0  0.57485  0.85213  0.45779  1.0000
  C   C83       1.0  0.6188299999999999  0.87419  0.42765000000000003  1.0000
  C   C84       1.0  0.76029  0.81659  0.34136  1.0000
  C   C85       1.0  0.64112  0.54967  0.9735500000000002  1.0000
  C   C86       1.0  0.72276  0.57491  0.9578  1.0000
  C   C87       1.0  0.7447299999999999  0.61886  0.9276600000000002  1.0000
  C   C88       1.0  0.94373  0.76032  0.8413500000000002  1.0000
  C   C89       1.0  0.90856  0.35888  0.9735500000000002  1.0000
  C   C90       1.0  0.8521799999999998  0.27725  0.9577700000000001  1.0000
  C   C91       1.0  0.8741899999999999  0.2553  0.92763  1.0000
  C   C92       1.0  0.8166099999999998  0.05625  0.84133  1.0000
  C   C93       1.0  0.45044  0.09152  0.9735500000000002  1.0000
  C   C94       1.0  0.42514999999999986  0.14786  0.9577900000000001  1.0000
  C   C95       1.0  0.38116999999999995  0.1258  0.9276600000000002  1.0000
  C   C96       1.0  0.23970999999999998  0.18341  0.84136  1.0000
  C   C97       1.0  0.5536599999999999  0.77683  0.47313  1.0000
  C   C98       1.0  0.64202  0.82105  0.41264000000000006  1.0000
  C   C99       1.0  0.6915499999999998  0.84581  0.38156000000000007  1.0000
  C   C100      1.0  0.78721  0.89359  0.32635  1.0000
  C   C101      1.0  0.8432599999999999  0.92161  0.29689  1.0000
  C   C102      1.0  0.22315000000000007  0.7768500000000003  0.4731  1.0000
  C   C103      1.0  0.17897999999999997  0.82102  0.41261000000000003  1.0000
  C   C104      1.0  0.1542  0.84579  0.38153  1.0000
  C   C105      1.0  0.10638  0.89362  0.32634  1.0000
  C   C106      1.0  0.07836000000000004  0.92163  0.2968700000000001  1.0000
  C   C107      1.0  0.22315999999999997  0.44634  0.47313  1.0000
  C   C108      1.0  0.17895  0.35798  0.41264000000000006  1.0000
  C   C109      1.0  0.15419  0.30845  0.38156000000000007  1.0000
  C   C110      1.0  0.10639999999999997  0.21279  0.32635  1.0000
  C   C111      1.0  0.07839  0.15674  0.29689  1.0000
  C   C112      1.0  0.44633999999999996  0.22316  0.97313  1.0000
  C   C113      1.0  0.3579800000000001  0.17894  0.91264  1.0000
  C   C114      1.0  0.30845  0.15419  0.88156  1.0000
  C   C115      1.0  0.21279999999999993  0.1064  0.82635  1.0000
  C   C116      1.0  0.15674  0.07839  0.79689  1.0000
  C   C117      1.0  0.77685  0.22314  0.9731000000000001  1.0000
  C   C118      1.0  0.82102  0.17897  0.91261  1.0000
  C   C119      1.0  0.8457999999999998  0.1542  0.88153  1.0000
  C   C120      1.0  0.89363  0.10637  0.8263400000000001  1.0000
  C   C121      1.0  0.92164  0.07836  0.79687  1.0000
  C   C122      1.0  0.77684  0.55365  0.97313  1.0000
  C   C123      1.0  0.8210600000000001  0.64202  0.91264  1.0000
  C   C124      1.0  0.8458099999999998  0.69155  0.88156  1.0000
  C   C125      1.0  0.8935999999999998  0.7872  0.82635  1.0000
  C   C126      1.0  0.92162  0.8432600000000001  0.79689  1.0000
  C   C127      1.0  0.77684  0.55365  0.52687  1.0000
  C   C128      1.0  0.8210600000000001  0.64202  0.58736  1.0000
  C   C129      1.0  0.8458099999999998  0.69155  0.61845  1.0000
  C   C130      1.0  0.8935999999999998  0.7872  0.67365  1.0000
  C   C131      1.0  0.9216099999999999  0.84325  0.70312  1.0000
  C   C132      1.0  0.77686  0.22314  0.5269000000000001  1.0000
  C   C133      1.0  0.82103  0.17897  0.5873900000000001  1.0000
  C   C134      1.0  0.8457999999999998  0.1542  0.61847  1.0000
  C   C135      1.0  0.89363  0.10638  0.67366  1.0000
  C   C136      1.0  0.92164  0.07836  0.70313  1.0000
  C   C137      1.0  0.44633999999999996  0.22316  0.52687  1.0000
  C   C138      1.0  0.3579800000000001  0.17894  0.58736  1.0000
  C   C139      1.0  0.30845  0.15419  0.61845  1.0000
  C   C140      1.0  0.21279  0.1064  0.67365  1.0000
  C   C141      1.0  0.15674  0.07839  0.70312  1.0000
  C   C142      1.0  0.22315999999999997  0.44634  0.02687  1.0000
  C   C143      1.0  0.17895  0.35798  0.08736  1.0000
  C   C144      1.0  0.15419  0.30845  0.11845  1.0000
  C   C145      1.0  0.10639999999999997  0.21279  0.17365  1.0000
  C   C146      1.0  0.07839  0.15674  0.20311000000000004  1.0000
  C   C147      1.0  0.22315000000000007  0.7768500000000003  0.0269  1.0000
  C   C148      1.0  0.17897999999999997  0.82102  0.08739000000000001  1.0000
  C   C149      1.0  0.1542  0.8458  0.11847  1.0000
  C   C150      1.0  0.10638  0.89362  0.17366000000000004  1.0000
  C   C151      1.0  0.07837000000000005  0.92163  0.20313  1.0000
  C   C152      1.0  0.5536599999999999  0.77683  0.02687  1.0000
  C   C153      1.0  0.64202  0.82105  0.08736  1.0000
  C   C154      1.0  0.6915499999999998  0.84581  0.11845  1.0000
  C   C155      1.0  0.78721  0.89359  0.17365  1.0000
  C   C156      1.0  0.8432599999999999  0.92161  0.20312  1.0000
  N   N1        1.0  0.7128899999999999  0.92068  0.36866  1.0000
  N   N2        1.0  0.07932000000000002  0.79224  0.3686400000000001  1.0000
  N   N3        1.0  0.20776  0.28713  0.36867  1.0000
  N   N4        1.0  0.2871099999999999  0.07931  0.8686600000000001  1.0000
  N   N5        1.0  0.92069  0.20775  0.8686400000000001  1.0000
  N   N6        1.0  0.7922399999999999  0.71286  0.8686700000000002  1.0000
  N   N7        1.0  0.92069  0.71289  0.63134  1.0000
  N   N8        1.0  0.79225  0.07932  0.63136  1.0000
  N   N9        1.0  0.28713999999999995  0.20776  0.63133  1.0000
  N   N10       1.0  0.07931999999999999  0.28711  0.13134  1.0000
  N   N11       1.0  0.2077599999999999  0.92068  0.13136  1.0000
  N   N12       1.0  0.71287  0.79224  0.13133  1.0000
  N   N13       1.0  0.2871099999999999  0.07931  0.63134  1.0000
  N   N14       1.0  0.92069  0.20775  0.63136  1.0000
  N   N15       1.0  0.7922399999999999  0.71286  0.63133  1.0000
  N   N16       1.0  0.7128899999999999  0.92068  0.13134  1.0000
  N   N17       1.0  0.07932000000000002  0.79224  0.13136  1.0000
  N   N18       1.0  0.20776  0.28713  0.13133  1.0000
  N   N19       1.0  0.07931  0.28711  0.36866  1.0000
  N   N20       1.0  0.2077599999999999  0.92068  0.3686400000000001  1.0000
  N   N21       1.0  0.71287  0.79224  0.36867  1.0000
  N   N22       1.0  0.92069  0.71289  0.8686600000000001  1.0000
  N   N23       1.0  0.79224  0.07931  0.8686400000000001  1.0000
  N   N24       1.0  0.28712999999999994  0.20776  0.8686700000000002  1.0000
  O   O1        1.0  0.51937  0.62936  0.50313  1.0000
  O   O2        1.0  0.55979  0.58935  0.45622  1.0000
  O   O3        1.0  0.86549  0.87183  0.28581  1.0000
  O   O4        1.0  0.37059  0.88995  0.50312  1.0000
  O   O5        1.0  0.41067  0.97048  0.45624  1.0000
  O   O6        1.0  0.12814000000000006  0.9936300000000001  0.28579  1.0000
  O   O7        1.0  0.11019999999999999  0.48087  0.5031  1.0000
  O   O8        1.0  0.02956999999999995  0.44023  0.45624  1.0000
  O   O9        1.0  0.006400000000000001  0.1345  0.28581  1.0000
  O   O10       1.0  0.48063  0.37064  0.0031300000000000004  1.0000
  O   O11       1.0  0.44021  0.4106500000000001  0.9562200000000001  1.0000
  O   O12       1.0  0.13451  0.12817  0.7858100000000002  1.0000
  O   O13       1.0  0.62941  0.11005  0.00312  1.0000
  O   O14       1.0  0.58933  0.02952  0.9562400000000001  1.0000
  O   O15       1.0  0.8718599999999999  0.00637  0.7857900000000001  1.0000
  O   O16       1.0  0.8898  0.51912  0.0031000000000000003  1.0000
  O   O17       1.0  0.9704299999999999  0.55977  0.9562400000000001  1.0000
  O   O18       1.0  0.99361  0.8655  0.7858100000000002  1.0000
  O   O19       1.0  0.62936  0.51936  0.4968800000000001  1.0000
  O   O20       1.0  0.58935  0.55979  0.5437800000000002  1.0000
  O   O21       1.0  0.87183  0.86548  0.71419  1.0000
  O   O22       1.0  0.8899499999999999  0.37059  0.4968800000000001  1.0000
  O   O23       1.0  0.9704799999999999  0.41067  0.54376  1.0000
  O   O24       1.0  0.9936300000000002  0.12814  0.71421  1.0000
  O   O25       1.0  0.4808799999999999  0.1102  0.49690000000000006  1.0000
  O   O26       1.0  0.44023  0.02957  0.54376  1.0000
  O   O27       1.0  0.1345  0.00639  0.71419  1.0000
  O   O28       1.0  0.37064  0.48063  0.99688  1.0000
  O   O29       1.0  0.41064999999999996  0.44021  0.043780000000000006  1.0000
  O   O30       1.0  0.12817  0.13451  0.21419  1.0000
  O   O31       1.0  0.11005  0.62941  0.99688  1.0000
  O   O32       1.0  0.029519999999999973  0.58933  0.04376  1.0000
  O   O33       1.0  0.006370000000000044  0.87186  0.21421000000000004  1.0000
  O   O34       1.0  0.51912  0.8898  0.9969  1.0000
  O   O35       1.0  0.55977  0.97043  0.04376  1.0000
  O   O36       1.0  0.8655  0.9936  0.21419  1.0000
  O   O37       1.0  0.48063  0.37064  0.4968800000000001  1.0000
  O   O38       1.0  0.44021  0.4106500000000001  0.5437800000000002  1.0000
  O   O39       1.0  0.13451  0.12817  0.71419  1.0000
  O   O40       1.0  0.62941  0.11005  0.4968800000000001  1.0000
  O   O41       1.0  0.58933  0.02952  0.54376  1.0000
  O   O42       1.0  0.8718599999999999  0.00636  0.71421  1.0000
  O   O43       1.0  0.8898  0.51912  0.49690000000000006  1.0000
  O   O44       1.0  0.9704299999999999  0.55977  0.54376  1.0000
  O   O45       1.0  0.9936  0.8655  0.71419  1.0000
  O   O46       1.0  0.51937  0.62936  0.99688  1.0000
  O   O47       1.0  0.55979  0.58935  0.043780000000000006  1.0000
  O   O48       1.0  0.86549  0.87183  0.21419  1.0000
  O   O49       1.0  0.37059  0.88995  0.99688  1.0000
  O   O50       1.0  0.41067  0.97048  0.04376  1.0000
  O   O51       1.0  0.12814000000000006  0.9936300000000001  0.21421000000000004  1.0000
  O   O52       1.0  0.11019999999999999  0.48087  0.9969  1.0000
  O   O53       1.0  0.02956999999999995  0.44023  0.04376  1.0000
  O   O54       1.0  0.006390000000000003  0.1345  0.21419  1.0000
  O   O55       1.0  0.37064  0.48063  0.50313  1.0000
  O   O56       1.0  0.41064999999999996  0.44021  0.45622  1.0000
  O   O57       1.0  0.12817  0.13451  0.28581  1.0000
  O   O58       1.0  0.11005  0.62941  0.50312  1.0000
  O   O59       1.0  0.029519999999999973  0.58933  0.45624  1.0000
  O   O60       1.0  0.006370000000000044  0.87186  0.28579  1.0000
  O   O61       1.0  0.51912  0.8898  0.5031  1.0000
  O   O62       1.0  0.55977  0.97043  0.45624  1.0000
  O   O63       1.0  0.8655  0.9936  0.28581  1.0000
  O   O64       1.0  0.62936  0.51937  0.0031300000000000004  1.0000
  O   O65       1.0  0.58935  0.55978  0.9562200000000001  1.0000
  O   O66       1.0  0.87183  0.86549  0.7858100000000002  1.0000
  O   O67       1.0  0.8899499999999999  0.37059  0.00312  1.0000
  O   O68       1.0  0.9704799999999999  0.41067  0.9562400000000001  1.0000
  O   O69       1.0  0.99364  0.12814  0.7858  1.0000
  O   O70       1.0  0.4808799999999999  0.1102  0.0031000000000000003  1.0000
  O   O71       1.0  0.44023  0.02957  0.9562400000000001  1.0000
  O   O72       1.0  0.1345  0.0064  0.7858100000000002  1.0000
