data_image0
_chemical_formula_structural       Mn8H64C112N16O40
_chemical_formula_sum              "Mn8 H64 C112 N16 O40"
_cell_length_a       10.03757
_cell_length_b       19.44114
_cell_length_c       19.587559999999996
_cell_angle_alpha    90.0
_cell_angle_beta     89.9715
_cell_angle_gamma    90.0

_space_group_name_H-M_alt    "P 1"
_space_group_IT_number       1

loop_
  _space_group_symop_operation_xyz
  'x, y, z'

loop_
  _atom_site_type_symbol
  _atom_site_label
  _atom_site_symmetry_multiplicity
  _atom_site_fract_x
  _atom_site_fract_y
  _atom_site_fract_z
  _atom_site_occupancy
  Mn  Mn1       1.0  0.15788  0.9600299999999998  0.94352  1.0000
  Mn  Mn2       1.0  0.34136000000000005  0.53935  0.44219  1.0000
  Mn  Mn3       1.0  0.84212  0.03997  0.05648000000000001  1.0000
  Mn  Mn4       1.0  0.65864  0.46065  0.55781  1.0000
  Mn  Mn5       1.0  0.15864  0.03934999999999999  0.55781  1.0000
  Mn  Mn6       1.0  0.34212  0.46002999999999994  0.05648000000000001  1.0000
  Mn  Mn7       1.0  0.84136  0.9606499999999999  0.44219  1.0000
  Mn  Mn8       1.0  0.65788  0.53997  0.94352  1.0000
  H   H1        1.0  0.73202  0.69203  0.82874  1.0000
  H   H2        1.0  0.4549500000000001  0.7936399999999999  0.84065  1.0000
  H   H3        1.0  0.61776  0.9568699999999999  0.9631100000000001  1.0000
  H   H4        1.0  0.8791400000000001  0.8078  0.87017  1.0000
  H   H5        1.0  0.82547  0.52458  0.6736  1.0000
  H   H6        1.0  0.82399  0.62925  0.74719  1.0000
  H   H7        1.0  0.44445  0.6822699999999998  0.65815  1.0000
  H   H8        1.0  0.4589  0.57302  0.58899  1.0000
  H   H9        1.0  0.7662200000000002  0.80761  0.32864000000000004  1.0000
  H   H10       1.0  0.04365000000000001  0.70581  0.33908  1.0000
  H   H11       1.0  0.88258  0.54176  0.46101000000000003  1.0000
  H   H12       1.0  0.6197700000000002  0.69132  0.36978  1.0000
  H   H13       1.0  0.6744800000000001  0.9757499999999999  0.17319  1.0000
  H   H14       1.0  0.6761800000000001  0.87129  0.24687000000000003  1.0000
  H   H15       1.0  0.05568  0.8180799999999998  0.15769000000000002  1.0000
  H   H16       1.0  0.04104  0.92699  0.08835  1.0000
  H   H17       1.0  0.26798  0.30797  0.17126  1.0000
  H   H18       1.0  0.54505  0.20636999999999997  0.15935  1.0000
  H   H19       1.0  0.38224  0.04313  0.03688  1.0000
  H   H20       1.0  0.12086000000000002  0.19219999999999995  0.12983  1.0000
  H   H21       1.0  0.17453000000000002  0.47542  0.32639  1.0000
  H   H22       1.0  0.17601  0.37075  0.25281  1.0000
  H   H23       1.0  0.55555  0.31772999999999996  0.34185  1.0000
  H   H24       1.0  0.5411  0.4269799999999999  0.41101  1.0000
  H   H25       1.0  0.23378000000000004  0.19239  0.67136  1.0000
  H   H26       1.0  0.95635  0.29419  0.6609200000000001  1.0000
  H   H27       1.0  0.11742000000000002  0.45824  0.53898  1.0000
  H   H28       1.0  0.38023  0.30868  0.63022  1.0000
  H   H29       1.0  0.3255200000000001  0.024249999999999997  0.8268100000000002  1.0000
  H   H30       1.0  0.3238200000000001  0.12871  0.75313  1.0000
  H   H31       1.0  0.9443200000000002  0.18192  0.84231  1.0000
  H   H32       1.0  0.95896  0.07300999999999999  0.9116400000000001  1.0000
  H   H33       1.0  0.73378  0.30761  0.67136  1.0000
  H   H34       1.0  0.4563500000000001  0.20581  0.6609200000000001  1.0000
  H   H35       1.0  0.61742  0.04176  0.53898  1.0000
  H   H36       1.0  0.88024  0.19131999999999996  0.63022  1.0000
  H   H37       1.0  0.8255300000000001  0.47575  0.8268100000000002  1.0000
  H   H38       1.0  0.8238200000000001  0.37128  0.75313  1.0000
  H   H39       1.0  0.44432000000000005  0.3180699999999999  0.84231  1.0000
  H   H40       1.0  0.45896000000000003  0.4269899999999999  0.9116400000000001  1.0000
  H   H41       1.0  0.7679800000000002  0.19202999999999995  0.17126  1.0000
  H   H42       1.0  0.04505  0.29364  0.15935  1.0000
  H   H43       1.0  0.8822400000000001  0.45687  0.03688  1.0000
  H   H44       1.0  0.62087  0.30779999999999996  0.12983  1.0000
  H   H45       1.0  0.67453  0.024579999999999994  0.32639  1.0000
  H   H46       1.0  0.67601  0.12925  0.25281  1.0000
  H   H47       1.0  0.055550000000000016  0.18226999999999996  0.34185  1.0000
  H   H48       1.0  0.0411  0.07302  0.41101  1.0000
  H   H49       1.0  0.26622  0.6923899999999998  0.32864000000000004  1.0000
  H   H50       1.0  0.54365  0.79419  0.33908  1.0000
  H   H51       1.0  0.38258  0.9582399999999999  0.46101000000000003  1.0000
  H   H52       1.0  0.11976000000000002  0.80868  0.36978  1.0000
  H   H53       1.0  0.17447  0.52425  0.17319  1.0000
  H   H54       1.0  0.17618  0.62872  0.24687000000000003  1.0000
  H   H55       1.0  0.55568  0.68193  0.15769000000000002  1.0000
  H   H56       1.0  0.5410400000000001  0.57301  0.08835  1.0000
  H   H57       1.0  0.23202000000000003  0.8079699999999997  0.82874  1.0000
  H   H58       1.0  0.95495  0.70636  0.84065  1.0000
  H   H59       1.0  0.11776000000000003  0.5431299999999999  0.9631100000000001  1.0000
  H   H60       1.0  0.37913  0.6921999999999998  0.87017  1.0000
  H   H61       1.0  0.32547  0.97542  0.6736  1.0000
  H   H62       1.0  0.3239900000000001  0.8707499999999999  0.74719  1.0000
  H   H63       1.0  0.9444500000000001  0.81773  0.65815  1.0000
  H   H64       1.0  0.9589000000000002  0.92698  0.58899  1.0000
  C   C1        1.0  0.66809  0.79284  0.85139  1.0000
  C   C2        1.0  0.54035  0.81873  0.8634900000000001  1.0000
  C   C3        1.0  0.52195  0.87685  0.90428  1.0000
  C   C4        1.0  0.63221  0.9106299999999998  0.93267  1.0000
  C   C5        1.0  0.7604800000000002  0.88522  0.91996  1.0000
  C   C6        1.0  0.77844  0.8258699999999999  0.87996  1.0000
  C   C7        1.0  0.61463  0.72924  0.74826  1.0000
  C   C8        1.0  0.74196  0.56024  0.67248  1.0000
  C   C9        1.0  0.74005  0.61864  0.71366  1.0000
  C   C10       1.0  0.63077  0.6632099999999999  0.7091200000000001  1.0000
  C   C11       1.0  0.52853  0.64734  0.66314  1.0000
  C   C12       1.0  0.53706  0.5878399999999999  0.62446  1.0000
  C   C13       1.0  0.38517  0.90389  0.9150099999999999  1.0000
  C   C14       1.0  0.8787600000000001  0.92438  0.94441  1.0000
  C   C15       1.0  0.8306800000000001  0.70659  0.3506  1.0000
  C   C16       1.0  0.9586300000000002  0.68069  0.36225  1.0000
  C   C17       1.0  0.9775300000000002  0.6220699999999999  0.40223  1.0000
  C   C18       1.0  0.8676300000000001  0.58806  0.43074  1.0000
  C   C19       1.0  0.73919  0.61353  0.41866000000000003  1.0000
  C   C20       1.0  0.72063  0.6732099999999999  0.37914  1.0000
  C   C21       1.0  0.8850900000000002  0.77104  0.24822  1.0000
  C   C22       1.0  0.7581000000000002  0.9401199999999997  0.17198  1.0000
  C   C23       1.0  0.7601400000000001  0.88178  0.21331000000000003  1.0000
  C   C24       1.0  0.8694400000000002  0.8371699999999999  0.20903  1.0000
  C   C25       1.0  0.9715100000000001  0.8529599999999999  0.16283  1.0000
  C   C26       1.0  0.96284  0.91237  0.12392  1.0000
  C   C27       1.0  0.11427  0.5946399999999998  0.4118800000000001  1.0000
  C   C28       1.0  0.6215  0.5741499999999999  0.44355000000000006  1.0000
  C   C29       1.0  0.33191  0.20716  0.14861  1.0000
  C   C30       1.0  0.45965  0.18126999999999996  0.1365  1.0000
  C   C31       1.0  0.47805  0.12314999999999998  0.09572  1.0000
  C   C32       1.0  0.36779  0.08936999999999998  0.06733  1.0000
  C   C33       1.0  0.23952000000000004  0.11477999999999998  0.08004  1.0000
  C   C34       1.0  0.22156  0.17412999999999995  0.12004  1.0000
  C   C35       1.0  0.38537  0.27076  0.25174  1.0000
  C   C36       1.0  0.25804  0.43976  0.32752  1.0000
  C   C37       1.0  0.25995  0.38136  0.28634  1.0000
  C   C38       1.0  0.36923000000000006  0.3367899999999999  0.29088  1.0000
  C   C39       1.0  0.47147  0.35266  0.33685  1.0000
  C   C40       1.0  0.4629400000000001  0.41215999999999997  0.37554  1.0000
  C   C41       1.0  0.61483  0.09611  0.08499  1.0000
  C   C42       1.0  0.12124  0.07562  0.05559000000000001  1.0000
  C   C43       1.0  0.16931  0.29341  0.6494  1.0000
  C   C44       1.0  0.04137  0.31931  0.63774  1.0000
  C   C45       1.0  0.022470000000000004  0.37794  0.59777  1.0000
  C   C46       1.0  0.13237  0.4119399999999999  0.56926  1.0000
  C   C47       1.0  0.26081000000000004  0.38646999999999987  0.58133  1.0000
  C   C48       1.0  0.27937  0.32678999999999997  0.62086  1.0000
  C   C49       1.0  0.11491000000000001  0.22896  0.75178  1.0000
  C   C50       1.0  0.24190000000000003  0.059879999999999996  0.8280199999999999  1.0000
  C   C51       1.0  0.23986  0.11822  0.78669  1.0000
  C   C52       1.0  0.13056000000000004  0.16283  0.79097  1.0000
  C   C53       1.0  0.02848  0.14703999999999995  0.8371600000000001  1.0000
  C   C54       1.0  0.03716  0.08763  0.8760800000000001  1.0000
  C   C55       1.0  0.8857300000000002  0.40536  0.58812  1.0000
  C   C56       1.0  0.37850000000000006  0.42584999999999995  0.55645  1.0000
  C   C57       1.0  0.66932  0.20658999999999997  0.6494  1.0000
  C   C58       1.0  0.54137  0.18067999999999998  0.63774  1.0000
  C   C59       1.0  0.52247  0.12205999999999999  0.59777  1.0000
  C   C60       1.0  0.6323700000000001  0.08804999999999999  0.56926  1.0000
  C   C61       1.0  0.7608100000000001  0.11353  0.58133  1.0000
  C   C62       1.0  0.7793700000000002  0.17321  0.62086  1.0000
  C   C63       1.0  0.6149100000000001  0.27103999999999995  0.75178  1.0000
  C   C64       1.0  0.7419  0.44012  0.8280199999999999  1.0000
  C   C65       1.0  0.73986  0.3817799999999999  0.78669  1.0000
  C   C66       1.0  0.63056  0.33717  0.79097  1.0000
  C   C67       1.0  0.52849  0.35296  0.83717  1.0000
  C   C68       1.0  0.5371600000000001  0.41236999999999996  0.8760800000000001  1.0000
  C   C69       1.0  0.3857300000000001  0.09463  0.58812  1.0000
  C   C70       1.0  0.8785000000000002  0.07415  0.55645  1.0000
  C   C71       1.0  0.8319100000000001  0.29284  0.14861  1.0000
  C   C72       1.0  0.9596500000000001  0.31873  0.1365  1.0000
  C   C73       1.0  0.9780500000000001  0.37685  0.09572  1.0000
  C   C74       1.0  0.86779  0.41063999999999995  0.06733  1.0000
  C   C75       1.0  0.73952  0.38522  0.08004  1.0000
  C   C76       1.0  0.7215700000000002  0.32586999999999994  0.12003  1.0000
  C   C77       1.0  0.88538  0.22924  0.25174  1.0000
  C   C78       1.0  0.7580400000000003  0.06024  0.32752  1.0000
  C   C79       1.0  0.7599500000000002  0.11863999999999998  0.28634  1.0000
  C   C80       1.0  0.86923  0.16321  0.29088  1.0000
  C   C81       1.0  0.9714700000000001  0.14734  0.33685  1.0000
  C   C82       1.0  0.96294  0.08784  0.37554  1.0000
  C   C83       1.0  0.11482000000000002  0.4038899999999999  0.08499  1.0000
  C   C84       1.0  0.62124  0.42438  0.05559000000000001  1.0000
  C   C85       1.0  0.33068  0.79342  0.3506  1.0000
  C   C86       1.0  0.45863  0.81932  0.36225  1.0000
  C   C87       1.0  0.47753000000000007  0.87794  0.40223  1.0000
  C   C88       1.0  0.36763000000000007  0.91195  0.43073  1.0000
  C   C89       1.0  0.23919  0.88647  0.41866000000000003  1.0000
  C   C90       1.0  0.22063000000000005  0.8268  0.37914  1.0000
  C   C91       1.0  0.38509  0.7289599999999998  0.24822  1.0000
  C   C92       1.0  0.2581  0.55988  0.17198  1.0000
  C   C93       1.0  0.26014  0.61822  0.21330000000000002  1.0000
  C   C94       1.0  0.3694400000000001  0.6628299999999999  0.20903  1.0000
  C   C95       1.0  0.47151  0.64704  0.16283  1.0000
  C   C96       1.0  0.46284000000000003  0.58763  0.12392  1.0000
  C   C97       1.0  0.61427  0.9053699999999999  0.4118800000000001  1.0000
  C   C98       1.0  0.1215  0.92585  0.44355000000000006  1.0000
  C   C99       1.0  0.16809000000000002  0.70716  0.85139  1.0000
  C   C100      1.0  0.04035  0.6812699999999999  0.8634900000000001  1.0000
  C   C101      1.0  0.02195  0.62315  0.90428  1.0000
  C   C102      1.0  0.13221  0.58937  0.93267  1.0000
  C   C103      1.0  0.26048  0.61478  0.91996  1.0000
  C   C104      1.0  0.27843000000000007  0.6741299999999999  0.87996  1.0000
  C   C105      1.0  0.11462  0.77076  0.74826  1.0000
  C   C106      1.0  0.24196000000000006  0.9397599999999999  0.67248  1.0000
  C   C107      1.0  0.24005000000000004  0.88136  0.71366  1.0000
  C   C108      1.0  0.13077  0.83679  0.7091200000000001  1.0000
  C   C109      1.0  0.028530000000000003  0.8526599999999999  0.66314  1.0000
  C   C110      1.0  0.03706  0.9121599999999999  0.62446  1.0000
  C   C111      1.0  0.8851700000000001  0.5961099999999999  0.9150099999999999  1.0000
  C   C112      1.0  0.37876  0.57562  0.94441  1.0000
  N   N1        1.0  0.68366  0.7343899999999998  0.80845  1.0000
  N   N2        1.0  0.64244  0.54452  0.62866  1.0000
  N   N3        1.0  0.8147200000000002  0.7653499999999998  0.30805  1.0000
  N   N4        1.0  0.85751  0.9558099999999999  0.12797  1.0000
  N   N5        1.0  0.31634  0.26561  0.19155  1.0000
  N   N6        1.0  0.3575500000000001  0.45547999999999994  0.37133  1.0000
  N   N7        1.0  0.18528000000000003  0.23465  0.69195  1.0000
  N   N8        1.0  0.14249  0.04419  0.8720200000000001  1.0000
  N   N9        1.0  0.68528  0.26535  0.69195  1.0000
  N   N10       1.0  0.64249  0.45581  0.8720200000000001  1.0000
  N   N11       1.0  0.8163400000000002  0.23439  0.19155  1.0000
  N   N12       1.0  0.85755  0.04451999999999998  0.37133  1.0000
  N   N13       1.0  0.31472000000000006  0.73465  0.30805  1.0000
  N   N14       1.0  0.3575  0.5441899999999998  0.12797  1.0000
  N   N15       1.0  0.18366000000000002  0.76561  0.80845  1.0000
  N   N16       1.0  0.14244  0.95548  0.62866  1.0000
  O   O1        1.0  0.5408400000000001  0.77474  0.7252900000000001  1.0000
  O   O2        1.0  0.28664000000000006  0.8818799999999999  0.8792000000000001  1.0000
  O   O3        1.0  0.36596000000000006  0.95087  0.9598400000000001  1.0000
  O   O4        1.0  0.99405  0.8962799999999999  0.9392300000000001  1.0000
  O   O5        1.0  0.86071  0.9856999999999998  0.96646  1.0000
  O   O6        1.0  0.9595  0.7256899999999998  0.22546  1.0000
  O   O7        1.0  0.21313  0.61804  0.37718  1.0000
  O   O8        1.0  0.13325  0.54594  0.45493  1.0000
  O   O9        1.0  0.5057400000000001  0.6012999999999998  0.43734  1.0000
  O   O10       1.0  0.6401300000000001  0.5137099999999999  0.46763  1.0000
  O   O11       1.0  0.45916  0.22525999999999996  0.2747  1.0000
  O   O12       1.0  0.71336  0.11812  0.1208  1.0000
  O   O13       1.0  0.63404  0.04913  0.04016  1.0000
  O   O14       1.0  0.00595  0.10372  0.06077  1.0000
  O   O15       1.0  0.13929  0.01431  0.03353  1.0000
  O   O16       1.0  0.0405  0.27430999999999994  0.77454  1.0000
  O   O17       1.0  0.78687  0.38196999999999987  0.62282  1.0000
  O   O18       1.0  0.86675  0.45405999999999996  0.54507  1.0000
  O   O19       1.0  0.49426000000000003  0.3987  0.56266  1.0000
  O   O20       1.0  0.3598700000000001  0.48629  0.53237  1.0000
  O   O21       1.0  0.5405000000000001  0.22569  0.77454  1.0000
  O   O22       1.0  0.28687  0.11803  0.62282  1.0000
  O   O23       1.0  0.3667500000000001  0.04594  0.54507  1.0000
  O   O24       1.0  0.9942600000000001  0.1013  0.56266  1.0000
  O   O25       1.0  0.8598700000000001  0.013709999999999998  0.53237  1.0000
  O   O26       1.0  0.9591600000000001  0.27474  0.2747  1.0000
  O   O27       1.0  0.21336  0.38189  0.1208  1.0000
  O   O28       1.0  0.13404  0.4508799999999999  0.04016  1.0000
  O   O29       1.0  0.5059500000000001  0.39628  0.06076  1.0000
  O   O30       1.0  0.63929  0.48569999999999997  0.03353  1.0000
  O   O31       1.0  0.4595  0.77431  0.22546  1.0000
  O   O32       1.0  0.7131300000000002  0.8819699999999999  0.37718  1.0000
  O   O33       1.0  0.6332500000000001  0.9540599999999998  0.45493  1.0000
  O   O34       1.0  0.005740000000000001  0.8987  0.43734  1.0000
  O   O35       1.0  0.14013  0.98629  0.46763  1.0000
  O   O36       1.0  0.04084  0.7252599999999998  0.7253  1.0000
  O   O37       1.0  0.7866400000000001  0.61812  0.8792000000000001  1.0000
  O   O38       1.0  0.8659600000000002  0.54913  0.9598400000000001  1.0000
  O   O39       1.0  0.49405  0.60372  0.9392300000000001  1.0000
  O   O40       1.0  0.36071000000000003  0.5143  0.96646  1.0000
