data_image0
_chemical_formula_structural       Zn6H116C180N8O24
_chemical_formula_sum              "Zn6 H116 C180 N8 O24"
_cell_length_a       19.72099
_cell_length_b       21.322409999999998
_cell_length_c       21.76252
_cell_angle_alpha    117.8989
_cell_angle_beta     99.94895
_cell_angle_gamma    100.11174

_space_group_name_H-M_alt    "P 1"
_space_group_IT_number       1

loop_
  _space_group_symop_operation_xyz
  'x, y, z'

loop_
  _atom_site_type_symbol
  _atom_site_label
  _atom_site_symmetry_multiplicity
  _atom_site_fract_x
  _atom_site_fract_y
  _atom_site_fract_z
  _atom_site_occupancy
  Zn  Zn1       1.0  0.59627  0.13036  0.09693  1.0000
  Zn  Zn2       1.0  0.7670299999999999  0.20306  0.10688  1.0000
  Zn  Zn3       1.0  0.91939  0.16965  0.05627  1.0000
  Zn  Zn4       1.0  0.40373  0.86964  0.90307  1.0000
  Zn  Zn5       1.0  0.23296999999999993  0.7969399999999998  0.8931200000000001  1.0000
  Zn  Zn6       1.0  0.08060999999999999  0.83034  0.9437199999999999  1.0000
  H   H1        1.0  0.50629  0.19035  0.18862  1.0000
  H   H2        1.0  0.5070600000000001  0.9169299999999999  0.7326400000000002  1.0000
  H   H3        1.0  0.7554999999999998  0.04658999999999998  0.90276  1.0000
  H   H4        1.0  0.63329  0.14858  0.34591  1.0000
  H   H5        1.0  0.60935  0.87993  0.20189000000000004  1.0000
  H   H6        1.0  0.71687  0.63099  0.30329  1.0000
  H   H7        1.0  0.7667599999999998  0.54963  0.3311  1.0000
  H   H8        1.0  0.3762599999999999  0.18354  0.17742  1.0000
  H   H9        1.0  0.66873  0.9391099999999998  0.50832  1.0000
  H   H10       1.0  0.55125  0.8220999999999999  0.24406  1.0000
  H   H11       1.0  0.6951399999999999  0.8401899999999998  0.67194  1.0000
  H   H12       1.0  0.5374199999999999  0.67369  0.44169  1.0000
  H   H13       1.0  0.5461  0.7459499999999999  0.30105  1.0000
  H   H14       1.0  0.5256299999999999  0.0006400000000000769  0.86401  1.0000
  H   H15       1.0  0.45903000000000005  0.036720000000000044  0.96909  1.0000
  H   H16       1.0  0.73727  0.9638899999999999  0.77146  1.0000
  H   H17       1.0  0.6755299999999999  0.015269999999999983  0.45144  1.0000
  H   H18       1.0  0.61345  0.95535  0.14365  1.0000
  H   H19       1.0  0.3281299999999999  0.020899999999999988  0.94866  1.0000
  H   H20       1.0  0.5242099999999997  0.93048  0.63451  1.0000
  H   H21       1.0  0.51794  0.8710699999999998  0.50386  1.0000
  H   H22       1.0  0.6294399999999999  0.07387999999999995  0.40576  1.0000
  H   H23       1.0  0.78425  0.4251  0.26275  1.0000
  H   H24       1.0  0.55601  0.32334  0.19401  1.0000
  H   H25       1.0  0.22586999999999996  0.04234  0.012060000000000001  1.0000
  H   H26       1.0  0.55932  0.55058  0.3845000000000001  1.0000
  H   H27       1.0  0.69478  0.75347  0.36039  1.0000
  H   H28       1.0  0.5378899999999999  0.44744000000000006  0.26472000000000007  1.0000
  H   H29       1.0  0.6875899999999998  0.77983  0.54104  1.0000
  H   H30       1.0  0.9965699999999998  0.056129999999999985  0.05083  1.0000
  H   H31       1.0  0.12074999999999997  0.04251999999999999  0.05522  1.0000
  H   H32       1.0  0.06479  0.27612  0.10928  1.0000
  H   H33       1.0  0.28211  0.21039999999999998  0.12324  1.0000
  H   H34       1.0  0.19252999999999998  0.2737  0.11705000000000002  1.0000
  H   H35       1.0  0.77938  0.040919999999999984  0.29779  1.0000
  H   H36       1.0  0.79483  0.77341  0.4673  1.0000
  H   H37       1.0  0.9467399999999998  0.8339299999999998  0.3141  1.0000
  H   H38       1.0  0.9180699999999998  0.7498699999999999  0.45167  1.0000
  H   H39       1.0  0.77772  0.11572  0.23914  1.0000
  H   H40       1.0  0.9435599999999998  0.9047999999999999  0.25133  1.0000
  H   H41       1.0  0.95235  0.03411  0.60808  1.0000
  H   H42       1.0  0.80237  0.3538799999999999  0.08437  1.0000
  H   H43       1.0  0.92875  0.6238  0.38885  1.0000
  H   H44       1.0  0.75029  0.9493199999999999  0.3066  1.0000
  H   H45       1.0  0.8087699999999999  0.7199699999999999  0.24627  1.0000
  H   H46       1.0  0.9776699999999994  0.54377  0.32399  1.0000
  H   H47       1.0  0.7909199999999998  0.48077  0.14811  1.0000
  H   H48       1.0  0.91273  0.9293199999999999  0.17188  1.0000
  H   H49       1.0  0.82251  0.59524  0.18301000000000003  1.0000
  H   H50       1.0  0.91441  0.09997  0.70092  1.0000
  H   H51       1.0  0.98789  0.41593  0.25934  1.0000
  H   H52       1.0  0.75671  0.8819199999999999  0.37233000000000005  1.0000
  H   H53       1.0  0.9361899999999999  0.95803  0.47686000000000006  1.0000
  H   H54       1.0  0.8691799999999998  0.8975599999999999  0.70619  1.0000
  H   H55       1.0  0.80804  0.85031  0.59783  1.0000
  H   H56       1.0  0.91386  0.007829999999999998  0.11726  1.0000
  H   H57       1.0  0.87649  0.97  0.83641  1.0000
  H   H58       1.0  0.92736  0.17206  0.83322  1.0000
  H   H59       1.0  0.4937099999999998  0.8096499999999999  0.81138  1.0000
  H   H60       1.0  0.4929399999999998  0.08306  0.26735  1.0000
  H   H61       1.0  0.24449999999999997  0.95341  0.09724  1.0000
  H   H62       1.0  0.3667099999999999  0.85142  0.6540900000000002  1.0000
  H   H63       1.0  0.39065  0.12007  0.79811  1.0000
  H   H64       1.0  0.28313  0.36900999999999995  0.69671  1.0000
  H   H65       1.0  0.23323999999999998  0.45037  0.66889  1.0000
  H   H66       1.0  0.62374  0.81646  0.82258  1.0000
  H   H67       1.0  0.33127  0.060890000000000034  0.49168000000000006  1.0000
  H   H68       1.0  0.44874999999999987  0.17790000000000006  0.75593  1.0000
  H   H69       1.0  0.30486  0.15981  0.32806  1.0000
  H   H70       1.0  0.46258  0.32631  0.55831  1.0000
  H   H71       1.0  0.4539  0.25404  0.69894  1.0000
  H   H72       1.0  0.47436999999999996  0.99935  0.13598  1.0000
  H   H73       1.0  0.5409699999999998  0.96327  0.030910000000000003  1.0000
  H   H74       1.0  0.2627300000000001  0.03611000000000002  0.22854  1.0000
  H   H75       1.0  0.32447  0.9847199999999998  0.54856  1.0000
  H   H76       1.0  0.38655  0.04465000000000004  0.85635  1.0000
  H   H77       1.0  0.6718699999999999  0.9790999999999999  0.05134  1.0000
  H   H78       1.0  0.47578999999999994  0.06952000000000003  0.36548000000000014  1.0000
  H   H79       1.0  0.48205999999999993  0.12893000000000004  0.49614  1.0000
  H   H80       1.0  0.37055999999999994  0.9261199999999998  0.59424  1.0000
  H   H81       1.0  0.21575  0.5748899999999999  0.73725  1.0000
  H   H82       1.0  0.44399  0.6766499999999999  0.80598  1.0000
  H   H83       1.0  0.7741299999999998  0.9576599999999998  0.98794  1.0000
  H   H84       1.0  0.44068  0.4494099999999999  0.6155  1.0000
  H   H85       1.0  0.30522  0.24652999999999997  0.6396  1.0000
  H   H86       1.0  0.46211  0.55256  0.73528  1.0000
  H   H87       1.0  0.3124099999999999  0.22016  0.45896  1.0000
  H   H88       1.0  0.003429999999999999  0.9438699999999999  0.94917  1.0000
  H   H89       1.0  0.8792499999999999  0.9574699999999999  0.94477  1.0000
  H   H90       1.0  0.93521  0.7238699999999999  0.89071  1.0000
  H   H91       1.0  0.71789  0.7896  0.87676  1.0000
  H   H92       1.0  0.8074700000000001  0.7263000000000001  0.8829500000000001  1.0000
  H   H93       1.0  0.22061999999999996  0.95908  0.7022  1.0000
  H   H94       1.0  0.20517  0.22658  0.53269  1.0000
  H   H95       1.0  0.05326000000000001  0.16607000000000002  0.68589  1.0000
  H   H96       1.0  0.08193  0.25013  0.54833  1.0000
  H   H97       1.0  0.22228000000000006  0.8842800000000001  0.7608600000000001  1.0000
  H   H98       1.0  0.056439999999999976  0.0952  0.74867  1.0000
  H   H99       1.0  0.047649999999999956  0.9658899999999999  0.39192  1.0000
  H   H100      1.0  0.19762999999999997  0.6461199999999999  0.91563  1.0000
  H   H101      1.0  0.07125000000000001  0.37619  0.61115  1.0000
  H   H102      1.0  0.24971  0.05066999999999999  0.6934  1.0000
  H   H103      1.0  0.19122  0.28003  0.75373  1.0000
  H   H104      1.0  0.022329999999999992  0.4562299999999999  0.67601  1.0000
  H   H105      1.0  0.20907999999999996  0.51923  0.85189  1.0000
  H   H106      1.0  0.08726999999999997  0.07067999999999991  0.82811  1.0000
  H   H107      1.0  0.17748999999999998  0.40474999999999994  0.8169800000000002  1.0000
  H   H108      1.0  0.08559  0.90003  0.29908  1.0000
  H   H109      1.0  0.012109999999999989  0.58406  0.74066  1.0000
  H   H110      1.0  0.24328999999999995  0.11807999999999994  0.62766  1.0000
  H   H111      1.0  0.06379999999999998  0.04195999999999997  0.52314  1.0000
  H   H112      1.0  0.13082  0.10243999999999999  0.29381  1.0000
  H   H113      1.0  0.19196  0.14969  0.40217  1.0000
  H   H114      1.0  0.08613999999999994  0.99217  0.8827400000000001  1.0000
  H   H115      1.0  0.12351  0.02999999999999999  0.16359  1.0000
  H   H116      1.0  0.07264  0.82794  0.16678  1.0000
  C   C1        1.0  0.4646099999999999  0.15581999999999993  0.13659  1.0000
  C   C2        1.0  0.65224  0.08133000000000007  0.9701600000000001  1.0000
  C   C3        1.0  0.5615  0.9455599999999998  0.76942  1.0000
  C   C4        1.0  0.6179199999999999  0.97052  0.30829  1.0000
  C   C5        1.0  0.62089  0.93475  0.74224  1.0000
  C   C6        1.0  0.70114  0.017880000000000028  0.86548  1.0000
  C   C7        1.0  0.6286999999999999  0.08971  0.31533000000000005  1.0000
  C   C8        1.0  0.6115399999999999  0.89154  0.66342  1.0000
  C   C9        1.0  0.6139799999999996  0.9252099999999999  0.34287000000000006  1.0000
  C   C10       1.0  0.61368  0.9385799999999999  0.23394000000000004  1.0000
  C   C11       1.0  0.65102  0.50747  0.30256  1.0000
  C   C12       1.0  0.6710299999999999  0.36663000000000007  0.22385000000000002  1.0000
  C   C13       1.0  0.6773  0.63973  0.33336  1.0000
  C   C14       1.0  0.7205  0.50016  0.30168000000000006  1.0000
  C   C15       1.0  0.3925699999999999  0.15157999999999996  0.12952  1.0000
  C   C16       1.0  0.64141  0.029670000000000023  0.89169  1.0000
  C   C17       1.0  0.64252  0.9137699999999999  0.45054  1.0000
  C   C18       1.0  0.5783099999999999  0.8482799999999998  0.30182000000000003  1.0000
  C   C19       1.0  0.6564  0.84743  0.63546  1.0000
  C   C20       1.0  0.6393599999999999  0.5812099999999999  0.33908000000000005  1.0000
  C   C21       1.0  0.6039900000000001  0.8234699999999999  0.5144700000000001  1.0000
  C   C22       1.0  0.61428  0.7215  0.40451  1.0000
  C   C23       1.0  0.62311  0.05706  0.24099  1.0000
  C   C24       1.0  0.5761  0.6635599999999999  0.41068  1.0000
  C   C25       1.0  0.57452  0.80502  0.33372  1.0000
  C   C26       1.0  0.61943  0.10311000000000003  0.20618000000000006  1.0000
  C   C27       1.0  0.5716  0.9922299999999998  0.84322  1.0000
  C   C28       1.0  0.43854999999999994  0.06852  0.013720000000000001  1.0000
  C   C29       1.0  0.69069  0.97051  0.79169  1.0000
  C   C30       1.0  0.64564  0.95657  0.418  1.0000
  C   C31       1.0  0.61658  0.9810499999999998  0.20097  1.0000
  C   C32       1.0  0.60657  0.8371299999999998  0.40874  1.0000
  C   C33       1.0  0.36521999999999993  0.06023999999999999  0.00269  1.0000
  C   C34       1.0  0.56027  0.8976199999999999  0.61429  1.0000
  C   C35       1.0  0.6797199999999998  0.29261999999999994  0.17719  1.0000
  C   C36       1.0  0.5565899999999999  0.86446  0.54092  1.0000
  C   C37       1.0  0.6264099999999998  0.04742  0.34839  1.0000
  C   C38       1.0  0.7305899999999997  0.43057000000000006  0.2634600000000001  1.0000
  C   C39       1.0  0.60168  0.3732499999999999  0.22564  1.0000
  C   C40       1.0  0.26423  0.09657999999999999  0.05204  1.0000
  C   C41       1.0  0.58852  0.59456  0.3783  1.0000
  C   C42       1.0  0.66489  0.7088  0.36523  1.0000
  C   C43       1.0  0.34081  0.10291999999999998  0.06141  1.0000
  C   C44       1.0  0.59194  0.44263  0.26511  1.0000
  C   C45       1.0  0.6525899999999998  0.8136099999999999  0.56215  1.0000
  C   C46       1.0  0.04186  0.10212000000000002  0.06382000000000002  1.0000
  C   C47       1.0  0.11084  0.09502  0.06601000000000001  1.0000
  C   C48       1.0  0.08013  0.22594  0.09719  1.0000
  C   C49       1.0  0.16738  0.15717999999999996  0.08459000000000001  1.0000
  C   C50       1.0  0.24169999999999994  0.15626999999999996  0.08893  1.0000
  C   C51       1.0  0.15066  0.22385999999999995  0.10156  1.0000
  C   C52       1.0  0.8459299999999998  0.9786599999999999  0.23934000000000002  1.0000
  C   C53       1.0  0.84607  0.1148  0.14182  1.0000
  C   C54       1.0  0.8080299999999999  0.03203  0.25738  1.0000
  C   C55       1.0  0.89561  0.37666  0.16798  1.0000
  C   C56       1.0  0.8902499999999999  0.99279  0.69282  1.0000
  C   C57       1.0  0.8458999999999999  0.06718  0.17475  1.0000
  C   C58       1.0  0.8526899999999997  0.8543699999999999  0.34787  1.0000
  C   C59       1.0  0.84706  0.93397  0.27457  1.0000
  C   C60       1.0  0.8626199999999999  0.7445599999999999  0.35372  1.0000
  C   C61       1.0  0.8834699999999999  0.52259  0.24139000000000002  1.0000
  C   C62       1.0  0.87648  0.59825  0.28019  1.0000
  C   C63       1.0  0.8298599999999998  0.8303099999999999  0.49857000000000007  1.0000
  C   C64       1.0  0.9042299999999999  0.85994  0.31228  1.0000
  C   C65       1.0  0.86542  0.86015  0.46336  1.0000
  C   C66       1.0  0.89641  0.71573  0.39284  1.0000
  C   C67       1.0  0.8074899999999998  0.07508  0.22528000000000004  1.0000
  C   C68       1.0  0.9014099999999999  0.8992399999999998  0.27631  1.0000
  C   C69       1.0  0.91656  0.97758  0.57783  1.0000
  C   C70       1.0  0.8405099999999999  0.3959  0.13687000000000002  1.0000
  C   C71       1.0  0.9027899999999999  0.64421  0.35657  1.0000
  C   C72       1.0  0.7946899999999998  0.9259399999999999  0.30911  1.0000
  C   C73       1.0  0.8350399999999999  0.6987899999999999  0.27746  1.0000
  C   C74       1.0  0.9385  0.50234  0.27192  1.0000
  C   C75       1.0  0.88177  0.9483799999999999  0.61422  1.0000
  C   C76       1.0  0.8349299999999998  0.4676899999999999  0.17274  1.0000
  C   C77       1.0  0.8835799999999999  0.97052  0.18779000000000004  1.0000
  C   C78       1.0  0.8425499999999998  0.62792  0.24204000000000003  1.0000
  C   C79       1.0  0.90756  0.07095999999999993  0.73041  1.0000
  C   C80       1.0  0.9448999999999999  0.43093  0.23576999999999998  1.0000
  C   C81       1.0  0.79737  0.8870499999999999  0.34553  1.0000
  C   C82       1.0  0.9085799999999999  0.9345599999999998  0.50388  1.0000
  C   C83       1.0  0.8802  0.95748  0.7329  1.0000
  C   C84       1.0  0.83809  0.8739099999999997  0.5723900000000001  1.0000
  C   C85       1.0  0.8840299999999999  0.014319999999999998  0.15641  1.0000
  C   C86       1.0  0.88523  0.9979799999999998  0.80633  1.0000
  C   C87       1.0  0.9141799999999998  0.11178999999999993  0.80443  1.0000
  C   C88       1.0  0.90216  0.0756400000000001  0.8431200000000002  1.0000
  C   C89       1.0  0.90322  0.30099  0.13007  1.0000
  C   C90       1.0  0.9078  0.11849000000000003  0.92212  1.0000
  C   C91       1.0  0.53539  0.8441699999999999  0.86341  1.0000
  C   C92       1.0  0.34775999999999996  0.9186599999999999  0.02983  1.0000
  C   C93       1.0  0.43849  0.05444  0.23057  1.0000
  C   C94       1.0  0.3820799999999999  0.029479999999999996  0.69171  1.0000
  C   C95       1.0  0.37910999999999995  0.06525000000000003  0.25776  1.0000
  C   C96       1.0  0.29886  0.9821199999999998  0.13452  1.0000
  C   C97       1.0  0.3712999999999999  0.9102899999999999  0.6846600000000002  1.0000
  C   C98       1.0  0.38846  0.10845999999999999  0.33658  1.0000
  C   C99       1.0  0.38602000000000003  0.07478999999999998  0.65713  1.0000
  C   C100      1.0  0.38632  0.06140999999999991  0.76606  1.0000
  C   C101      1.0  0.34897999999999996  0.49252999999999997  0.69743  1.0000
  C   C102      1.0  0.32897000000000004  0.6333700000000001  0.7761500000000001  1.0000
  C   C103      1.0  0.3227  0.36027  0.66664  1.0000
  C   C104      1.0  0.2795  0.49984  0.69832  1.0000
  C   C105      1.0  0.60743  0.84842  0.87048  1.0000
  C   C106      1.0  0.3585799999999999  0.9703299999999999  0.10831  1.0000
  C   C107      1.0  0.35747999999999996  0.08623  0.54945  1.0000
  C   C108      1.0  0.42169  0.15172000000000002  0.69818  1.0000
  C   C109      1.0  0.3436  0.15256999999999998  0.36454  1.0000
  C   C110      1.0  0.36064  0.4187900000000001  0.6609200000000001  1.0000
  C   C111      1.0  0.39601  0.17651999999999993  0.48552999999999996  1.0000
  C   C112      1.0  0.38571999999999995  0.27849  0.59549  1.0000
  C   C113      1.0  0.37689  0.94293  0.75901  1.0000
  C   C114      1.0  0.42389999999999983  0.33644  0.58932  1.0000
  C   C115      1.0  0.42548  0.19496999999999995  0.66628  1.0000
  C   C116      1.0  0.38056999999999996  0.89688  0.79382  1.0000
  C   C117      1.0  0.42839999999999995  0.007769999999999994  0.15678  1.0000
  C   C118      1.0  0.56145  0.93148  0.98628  1.0000
  C   C119      1.0  0.30931  0.029479999999999996  0.20831  1.0000
  C   C120      1.0  0.35435  0.04342  0.582  1.0000
  C   C121      1.0  0.38342  0.018950000000000022  0.79903  1.0000
  C   C122      1.0  0.39343  0.16285999999999998  0.59126  1.0000
  C   C123      1.0  0.63478  0.9397599999999998  0.99731  1.0000
  C   C124      1.0  0.43973  0.10238000000000004  0.38571  1.0000
  C   C125      1.0  0.32027999999999995  0.7073799999999997  0.82281  1.0000
  C   C126      1.0  0.44340999999999997  0.13552999999999996  0.45908  1.0000
  C   C127      1.0  0.3735899999999999  0.9525799999999999  0.65161  1.0000
  C   C128      1.0  0.26941  0.56942  0.73654  1.0000
  C   C129      1.0  0.39832  0.62674  0.7743500000000002  1.0000
  C   C130      1.0  0.73577  0.90341  0.94795  1.0000
  C   C131      1.0  0.41148  0.40543999999999997  0.6217  1.0000
  C   C132      1.0  0.33510999999999996  0.29119999999999996  0.63477  1.0000
  C   C133      1.0  0.6591899999999999  0.8970799999999998  0.9385800000000001  1.0000
  C   C134      1.0  0.4080599999999999  0.5573599999999999  0.73489  1.0000
  C   C135      1.0  0.34741  0.18638  0.43785  1.0000
  C   C136      1.0  0.9581399999999999  0.89788  0.9361800000000001  1.0000
  C   C137      1.0  0.8891599999999998  0.9049699999999998  0.93398  1.0000
  C   C138      1.0  0.9198699999999999  0.7740600000000001  0.9028100000000001  1.0000
  C   C139      1.0  0.8326200000000002  0.8428199999999999  0.9154  1.0000
  C   C140      1.0  0.7583  0.84372  0.9110700000000002  1.0000
  C   C141      1.0  0.84934  0.7761299999999999  0.89844  1.0000
  C   C142      1.0  0.15407000000000004  0.021330000000000116  0.7606600000000001  1.0000
  C   C143      1.0  0.15393000000000007  0.8851900000000003  0.8581700000000002  1.0000
  C   C144      1.0  0.19196  0.96796  0.74261  1.0000
  C   C145      1.0  0.10439  0.62334  0.83201  1.0000
  C   C146      1.0  0.10974999999999999  0.007210000000000001  0.30718  1.0000
  C   C147      1.0  0.15409999999999993  0.93282  0.82525  1.0000
  C   C148      1.0  0.14730999999999997  0.14562  0.65213  1.0000
  C   C149      1.0  0.15293  0.06603000000000006  0.7254200000000001  1.0000
  C   C150      1.0  0.13736999999999994  0.25544  0.64628  1.0000
  C   C151      1.0  0.11653000000000001  0.47739999999999994  0.75861  1.0000
  C   C152      1.0  0.12351999999999998  0.40174  0.7198  1.0000
  C   C153      1.0  0.17014  0.16969  0.50143  1.0000
  C   C154      1.0  0.09576999999999995  0.14006  0.68771  1.0000
  C   C155      1.0  0.13457999999999995  0.13983999999999994  0.53663  1.0000
  C   C156      1.0  0.10358999999999999  0.28426  0.60716  1.0000
  C   C157      1.0  0.19250999999999996  0.9249199999999999  0.77472  1.0000
  C   C158      1.0  0.09858999999999994  0.10075999999999992  0.72369  1.0000
  C   C159      1.0  0.08343999999999999  0.022420000000000034  0.42217  1.0000
  C   C160      1.0  0.15949  0.6041  0.86313  1.0000
  C   C161      1.0  0.09720999999999999  0.35577999999999993  0.64343  1.0000
  C   C162      1.0  0.20531000000000002  0.07406000000000008  0.6908900000000001  1.0000
  C   C163      1.0  0.16496000000000002  0.3012099999999999  0.72253  1.0000
  C   C164      1.0  0.0615  0.49765999999999994  0.72808  1.0000
  C   C165      1.0  0.11822999999999997  0.05161999999999996  0.38577  1.0000
  C   C166      1.0  0.16506999999999994  0.5323099999999998  0.82726  1.0000
  C   C167      1.0  0.11641999999999998  0.029479999999999996  0.81221  1.0000
  C   C168      1.0  0.15745000000000003  0.37207999999999997  0.7579500000000001  1.0000
  C   C169      1.0  0.09243999999999998  0.9290300000000001  0.26959000000000005  1.0000
  C   C170      1.0  0.055099999999999996  0.56907  0.76422  1.0000
  C   C171      1.0  0.20262999999999998  0.11295000000000002  0.65446  1.0000
  C   C172      1.0  0.09141999999999999  0.06542999999999995  0.49612000000000006  1.0000
  C   C173      1.0  0.11979999999999999  0.042509999999999985  0.2671  1.0000
  C   C174      1.0  0.16191000000000003  0.12608000000000003  0.42761000000000005  1.0000
  C   C175      1.0  0.11596999999999998  0.98567  0.84359  1.0000
  C   C176      1.0  0.11476999999999997  0.0020200000000000023  0.19367  1.0000
  C   C177      1.0  0.08581999999999997  0.8882099999999999  0.19557  1.0000
  C   C178      1.0  0.09784  0.92435  0.15688  1.0000
  C   C179      1.0  0.09678  0.699  0.86993  1.0000
  C   C180      1.0  0.09218999999999995  0.8815099999999998  0.07788  1.0000
  N   N1        1.0  0.02619999999999999  0.16588999999999998  0.07831  1.0000
  N   N2        1.0  0.6033299999999999  0.7924999999999999  0.44051  1.0000
  N   N3        1.0  0.4876  0.11523999999999998  0.07934  1.0000
  N   N4        1.0  0.85716  0.8172499999999999  0.38786  1.0000
  N   N5        1.0  0.9738  0.8341099999999999  0.92169  1.0000
  N   N6        1.0  0.39667  0.20749999999999996  0.5594900000000002  1.0000
  N   N7        1.0  0.5123999999999999  0.8847499999999997  0.9206499999999999  1.0000
  N   N8        1.0  0.14284  0.18274000000000004  0.6121400000000001  1.0000
  O   O1        1.0  0.7171699999999999  0.12042  0.00892  1.0000
  O   O2        1.0  0.62239  0.23849999999999996  0.13819  1.0000
  O   O3        1.0  0.59708  0.08306999999999996  0.9936499999999999  1.0000
  O   O4        1.0  0.74386  0.28845  0.17729  1.0000
  O   O5        1.0  0.6242899999999999  0.0725  0.13941  1.0000
  O   O6        1.0  0.60959  0.16524  0.23914  1.0000
  O   O7        1.0  0.81083  0.16246  0.16302  1.0000
  O   O8        1.0  0.8806999999999999  0.10491  0.09528  1.0000
  O   O9        1.0  0.8830799999999999  0.08128000000000013  0.9508100000000002  1.0000
  O   O10       1.0  0.8477899999999999  0.24547999999999995  0.07915  1.0000
  O   O11       1.0  0.9623799999999999  0.28871  0.14471  1.0000
  O   O12       1.0  0.93651  0.18789999999999993  0.95958  1.0000
  O   O13       1.0  0.28283  0.8795799999999998  0.99107  1.0000
  O   O14       1.0  0.37760999999999995  0.7614899999999999  0.8618000000000002  1.0000
  O   O15       1.0  0.40290999999999993  0.9169299999999999  0.00635  1.0000
  O   O16       1.0  0.25614  0.71154  0.82271  1.0000
  O   O17       1.0  0.37570999999999993  0.9274999999999999  0.86059  1.0000
  O   O18       1.0  0.39041000000000003  0.83476  0.7608600000000001  1.0000
  O   O19       1.0  0.18916999999999998  0.83754  0.8369800000000001  1.0000
  O   O20       1.0  0.1193  0.8950899999999999  0.90471  1.0000
  O   O21       1.0  0.11692  0.9187199999999999  0.04919  1.0000
  O   O22       1.0  0.1522  0.75452  0.9208400000000001  1.0000
  O   O23       1.0  0.03762000000000001  0.71129  0.85528  1.0000
  O   O24       1.0  0.06348999999999996  0.8120999999999999  0.04042  1.0000
