data_image0
_chemical_formula_structural       Co4H104C100S8N16O16
_chemical_formula_sum              "Co4 H104 C100 S8 N16 O16"
_cell_length_a       12.18424
_cell_length_b       12.198830000000001
_cell_length_c       24.69739
_cell_angle_alpha    90.04692
_cell_angle_beta     89.96288
_cell_angle_gamma    90.07203

_symmetry_space_group_name_H-M    'P 1'
_symmetry_Int_Tables_number       1

loop_
  _symmetry_equiv_pos_as_xyz
  'x,y,z'

loop_
  _atom_site_type_symbol
  _atom_site_label
  _atom_site_symmetry_multiplicity
  _atom_site_fract_x
  _atom_site_fract_y
  _atom_site_fract_z
  _atom_site_occupancy
  Co  Co1       1.0  0.74958  0.74992  0.9171400000000001  1.0000
  Co  Co2       1.0  0.25027  0.25012  0.41715000000000013  1.0000
  Co  Co3       1.0  0.25041  0.25018  0.08294  1.0000
  Co  Co4       1.0  0.7497200000000003  0.74997  0.5829300000000001  1.0000
  H   H1        1.0  0.58834  0.55708  0.88934  1.0000
  H   H2        1.0  0.56959  0.40173  0.8237200000000002  1.0000
  H   H3        1.0  0.8539000000000002  0.53273  0.7403800000000003  1.0000
  H   H4        1.0  0.86223  0.6768  0.81108  1.0000
  H   H5        1.0  0.78922  0.42254  0.67621  1.0000
  H   H6        1.0  0.8623600000000002  0.33543  0.72273  1.0000
  H   H7        1.0  0.81738  0.15566  0.60219  1.0000
  H   H8        1.0  0.9097100000000002  0.17282999999999998  0.65763  1.0000
  H   H9        1.0  0.10374  0.10363  0.4903600000000001  1.0000
  H   H10       1.0  0.96393  0.11322  0.56339  1.0000
  H   H11       1.0  0.0047  0.46577  0.5606200000000001  1.0000
  H   H12       1.0  0.14376  0.4394  0.4876  1.0000
  H   H13       1.0  0.55762  0.8885699999999999  0.9012800000000002  1.0000
  H   H14       1.0  0.9101700000000003  0.94377  0.88977  1.0000
  H   H15       1.0  0.92991  0.09833  0.82399  1.0000
  H   H16       1.0  0.64605  0.96724  0.74034  1.0000
  H   H17       1.0  0.63687  0.8235400000000002  0.8112100000000002  1.0000
  H   H18       1.0  0.71066  0.07774  0.6762  1.0000
  H   H19       1.0  0.6375500000000001  0.16543  0.72261  1.0000
  H   H20       1.0  0.6834800000000002  0.34419  0.6020800000000001  1.0000
  H   H21       1.0  0.59086  0.32709  0.65755  1.0000
  H   H22       1.0  0.39822  0.39652999999999994  0.4898800000000001  1.0000
  H   H23       1.0  0.53659  0.38737  0.5634600000000001  1.0000
  H   H24       1.0  0.49463  0.03503  0.56139  1.0000
  H   H25       1.0  0.35692  0.06091  0.4876800000000001  1.0000
  H   H26       1.0  0.9420400000000002  0.61164  0.9003000000000002  1.0000
  H   H27       1.0  0.44370000000000004  0.08974999999999998  0.3895100000000001  1.0000
  H   H28       1.0  0.59897  0.07046  0.32384  1.0000
  H   H29       1.0  0.46855  0.35399  0.24034  1.0000
  H   H30       1.0  0.3243  0.36275  0.31104000000000004  1.0000
  H   H31       1.0  0.57876  0.29064  0.17661  1.0000
  H   H32       1.0  0.66723  0.36278  0.22301000000000004  1.0000
  H   H33       1.0  0.8442300000000001  0.317  0.10140000000000003  1.0000
  H   H34       1.0  0.8276  0.41016  0.15654  1.0000
  H   H35       1.0  0.89687  0.60315  0.9900200000000002  1.0000
  H   H36       1.0  0.88727  0.4645699999999999  0.06350000000000001  1.0000
  H   H37       1.0  0.53449  0.50503  0.06107000000000001  1.0000
  H   H38       1.0  0.5607900000000001  0.6431  0.9876400000000002  1.0000
  H   H39       1.0  0.11121000000000003  0.05813000000000001  0.40103  1.0000
  H   H40       1.0  0.056490000000000005  0.41068  0.3897700000000001  1.0000
  H   H41       1.0  0.9052300000000001  0.43348  0.32225  1.0000
  H   H42       1.0  0.03486  0.1487  0.23926  1.0000
  H   H43       1.0  0.17573  0.13692  0.31151  1.0000
  H   H44       1.0  0.9228800000000001  0.20966999999999997  0.17491  1.0000
  H   H45       1.0  0.8364600000000001  0.1421  0.22408000000000006  1.0000
  H   H46       1.0  0.65598  0.18257  0.10240000000000003  1.0000
  H   H47       1.0  0.67349  0.0911  0.15818000000000002  1.0000
  H   H48       1.0  0.60309  0.89654  0.9903400000000002  1.0000
  H   H49       1.0  0.61254  0.03646  0.06323  1.0000
  H   H50       1.0  0.9654600000000002  0.9955299999999999  0.06083000000000001  1.0000
  H   H51       1.0  0.9391  0.85632  0.9878700000000001  1.0000
  H   H52       1.0  0.38943  0.44271  0.40094000000000013  1.0000
  H   H53       1.0  0.41158  0.44318  0.11069000000000002  1.0000
  H   H54       1.0  0.43037  0.59841  0.17636000000000004  1.0000
  H   H55       1.0  0.14616  0.4674  0.2597  1.0000
  H   H56       1.0  0.13777  0.32322  0.18903000000000006  1.0000
  H   H57       1.0  0.21075  0.57754  0.32386000000000004  1.0000
  H   H58       1.0  0.13765  0.66465  0.27732000000000007  1.0000
  H   H59       1.0  0.18264000000000005  0.84431  0.39791000000000004  1.0000
  H   H60       1.0  0.09028000000000001  0.82723  0.3424900000000001  1.0000
  H   H61       1.0  0.89628  0.89645  0.50968  1.0000
  H   H62       1.0  0.03584  0.88684  0.43654  1.0000
  H   H63       1.0  0.9951900000000002  0.53432  0.43938  1.0000
  H   H64       1.0  0.8563200000000002  0.56068  0.51251  1.0000
  H   H65       1.0  0.4426300000000001  0.11158  0.09923000000000001  1.0000
  H   H66       1.0  0.08986  0.05617  0.11026000000000001  1.0000
  H   H67       1.0  0.07019  0.9015599999999999  0.17601  1.0000
  H   H68       1.0  0.35373  0.03273  0.25982000000000005  1.0000
  H   H69       1.0  0.3629  0.17659  0.18905  1.0000
  H   H70       1.0  0.28908  0.92232  0.32386000000000004  1.0000
  H   H71       1.0  0.36248  0.8346900000000002  0.27754  1.0000
  H   H72       1.0  0.31656  0.65582  0.39800000000000013  1.0000
  H   H73       1.0  0.40915000000000007  0.67293  0.34252  1.0000
  H   H74       1.0  0.6018400000000002  0.60352  0.5101900000000001  1.0000
  H   H75       1.0  0.46362  0.61264  0.4365200000000001  1.0000
  H   H76       1.0  0.5055100000000001  0.96496  0.43857000000000007  1.0000
  H   H77       1.0  0.6431000000000001  0.9391400000000001  0.51236  1.0000
  H   H78       1.0  0.05801  0.38837  0.09995000000000001  1.0000
  H   H79       1.0  0.5563200000000001  0.91029  0.61061  1.0000
  H   H80       1.0  0.40099  0.9295500000000001  0.67624  1.0000
  H   H81       1.0  0.53136  0.64606  0.75978  1.0000
  H   H82       1.0  0.67572  0.63729  0.68913  1.0000
  H   H83       1.0  0.42132  0.70926  0.82347  1.0000
  H   H84       1.0  0.33281000000000005  0.63719  0.77707  1.0000
  H   H85       1.0  0.15578  0.6833  0.89871  1.0000
  H   H86       1.0  0.17222  0.58993  0.84364  1.0000
  H   H87       1.0  0.10314  0.39682  0.01014  1.0000
  H   H88       1.0  0.11276  0.53523  0.9365600000000001  1.0000
  H   H89       1.0  0.46559  0.4950899999999999  0.93911  1.0000
  H   H90       1.0  0.43923000000000006  0.35708  0.012530000000000001  1.0000
  H   H91       1.0  0.8887600000000001  0.94192  0.59905  1.0000
  H   H92       1.0  0.9430400000000002  0.58929  0.6103200000000001  1.0000
  H   H93       1.0  0.09432  0.56619  0.67779  1.0000
  H   H94       1.0  0.9650600000000001  0.85104  0.76091  1.0000
  H   H95       1.0  0.8241300000000001  0.8630499999999999  0.6887  1.0000
  H   H96       1.0  0.0769  0.79004  0.8248700000000002  1.0000
  H   H97       1.0  0.16386  0.85827  0.77623  1.0000
  H   H98       1.0  0.34413  0.81748  0.89763  1.0000
  H   H99       1.0  0.32646  0.90899  0.8418900000000001  1.0000
  H   H100      1.0  0.39695  0.10322  0.00989  1.0000
  H   H101      1.0  0.38758  0.96343  0.9369500000000002  1.0000
  H   H102      1.0  0.03466  0.00456  0.9392900000000001  1.0000
  H   H103      1.0  0.06100000000000001  0.14383  0.012220000000000002  1.0000
  H   H104      1.0  0.6106300000000001  0.5574  0.59916  1.0000
  C   C1        1.0  0.64638  0.54713  0.8562700000000001  1.0000
  C   C2        1.0  0.63507  0.46181  0.8195600000000001  1.0000
  C   C3        1.0  0.7116100000000002  0.45277999999999996  0.7771400000000002  1.0000
  C   C4        1.0  0.7938600000000002  0.53275  0.7729100000000002  1.0000
  C   C5        1.0  0.79808  0.6148  0.8121500000000003  1.0000
  C   C6        1.0  0.78354  0.34978  0.70247  1.0000
  C   C7        1.0  0.84729  0.21407  0.6328  1.0000
  C   C8        1.0  0.07784000000000002  0.18257999999999996  0.50665  1.0000
  C   C9        1.0  0.0006599999999999999  0.18843  0.5481800000000001  1.0000
  C   C10       1.0  0.9711700000000002  0.29191  0.56822  1.0000
  C   C11       1.0  0.02378  0.384  0.546  1.0000
  C   C12       1.0  0.10002  0.36962  0.50486  1.0000
  C   C13       1.0  0.85235  0.95356  0.85663  1.0000
  C   C14       1.0  0.8641100000000002  0.03858  0.8198300000000002  1.0000
  C   C15       1.0  0.7880300000000002  0.04735  0.7772300000000002  1.0000
  C   C16       1.0  0.70561  0.9675099999999999  0.7730400000000002  1.0000
  C   C17       1.0  0.7009700000000001  0.8856500000000003  0.8123100000000001  1.0000
  C   C18       1.0  0.71652  0.15052  0.70248  1.0000
  C   C19       1.0  0.65344  0.28596  0.6327100000000001  1.0000
  C   C20       1.0  0.42389  0.31769  0.5062700000000001  1.0000
  C   C21       1.0  0.50044  0.31202  0.54805  1.0000
  C   C22       1.0  0.52949  0.20855  0.56817  1.0000
  C   C23       1.0  0.47647000000000006  0.11648  0.54615  1.0000
  C   C24       1.0  0.40090000000000003  0.13071  0.50476  1.0000
  C   C25       1.0  0.45367  0.14745  0.35636  1.0000
  C   C26       1.0  0.5391  0.13597  0.31967  1.0000
  C   C27       1.0  0.54826  0.21218  0.27719000000000005  1.0000
  C   C28       1.0  0.4683900000000001  0.2943  0.27295  1.0000
  C   C29       1.0  0.38620000000000004  0.29866  0.31214000000000003  1.0000
  C   C30       1.0  0.65182  0.28423  0.20264  1.0000
  C   C31       1.0  0.7861500000000001  0.34716  0.13209  1.0000
  C   C32       1.0  0.8178200000000002  0.57716  0.00632  1.0000
  C   C33       1.0  0.81197  0.50047  0.04799  1.0000
  C   C34       1.0  0.7082900000000002  0.47077  0.06790000000000002  1.0000
  C   C35       1.0  0.61615  0.52351  0.04596000000000001  1.0000
  C   C36       1.0  0.6305600000000001  0.59928  0.00471  1.0000
  C   C37       1.0  0.047730000000000015  0.35389  0.35611  1.0000
  C   C38       1.0  0.96453  0.36739  0.31842  1.0000
  C   C39       1.0  0.9561700000000001  0.29186  0.27557000000000004  1.0000
  C   C40       1.0  0.03462  0.20824  0.272  1.0000
  C   C41       1.0  0.11487000000000003  0.20207  0.31204  1.0000
  C   C42       1.0  0.8514800000000001  0.21864  0.2019  1.0000
  C   C43       1.0  0.71455  0.15313  0.133  1.0000
  C   C44       1.0  0.68207  0.9224400000000001  0.006700000000000002  1.0000
  C   C45       1.0  0.6879  0.9997  0.04819000000000001  1.0000
  C   C46       1.0  0.7915400000000002  0.029039999999999996  0.06827  1.0000
  C   C47       1.0  0.88367  0.9763399999999999  0.04611000000000001  1.0000
  C   C48       1.0  0.86924  0.90006  0.005030000000000001  1.0000
  C   C49       1.0  0.7502600000000003  0.25004  0.66813  1.0000
  C   C50       1.0  0.75096  0.25072  0.16794000000000006  1.0000
  C   C51       1.0  0.35355000000000003  0.45302  0.14377  1.0000
  C   C52       1.0  0.36495  0.53827  0.18053000000000005  1.0000
  C   C53       1.0  0.28842  0.54725  0.22295000000000006  1.0000
  C   C54       1.0  0.20617000000000005  0.46729999999999994  0.22716000000000003  1.0000
  C   C55       1.0  0.20188000000000006  0.38528  0.18793000000000007  1.0000
  C   C56       1.0  0.21645000000000003  0.65028  0.2976  1.0000
  C   C57       1.0  0.1527  0.78594  0.3673000000000001  1.0000
  C   C58       1.0  0.9221300000000002  0.81749  0.4933900000000001  1.0000
  C   C59       1.0  0.9992400000000001  0.81163  0.45182  1.0000
  C   C60       1.0  0.028770000000000004  0.70814  0.43182  1.0000
  C   C61       1.0  0.9761500000000002  0.61606  0.45405000000000006  1.0000
  C   C62       1.0  0.8999800000000002  0.63046  0.49521  1.0000
  C   C63       1.0  0.14769000000000002  0.046389999999999994  0.1434  1.0000
  C   C64       1.0  0.1359  0.96138  0.18020000000000003  1.0000
  C   C65       1.0  0.21192000000000005  0.9526099999999998  0.22282000000000005  1.0000
  C   C66       1.0  0.29424  0.03251  0.22708000000000003  1.0000
  C   C67       1.0  0.29891000000000006  0.11438  0.18782  1.0000
  C   C68       1.0  0.28342  0.84951  0.2976  1.0000
  C   C69       1.0  0.34657000000000004  0.71406  0.3673700000000001  1.0000
  C   C70       1.0  0.57618  0.68235  0.49378000000000005  1.0000
  C   C71       1.0  0.49966000000000005  0.68799  0.45197  1.0000
  C   C72       1.0  0.47056  0.79146  0.43188  1.0000
  C   C73       1.0  0.5236200000000001  0.8835400000000001  0.45386  1.0000
  C   C74       1.0  0.59915  0.86933  0.49527  1.0000
  C   C75       1.0  0.5463300000000001  0.8525600000000001  0.64375  1.0000
  C   C76       1.0  0.4609  0.86407  0.68044  1.0000
  C   C77       1.0  0.45175  0.7878700000000001  0.72292  1.0000
  C   C78       1.0  0.53161  0.70576  0.7271700000000002  1.0000
  C   C79       1.0  0.61381  0.70137  0.68799  1.0000
  C   C80       1.0  0.34824  0.71572  0.79746  1.0000
  C   C81       1.0  0.21381  0.65292  0.86805  1.0000
  C   C82       1.0  0.18219  0.4228  0.9938200000000003  1.0000
  C   C83       1.0  0.18805  0.49949  0.9521600000000002  1.0000
  C   C84       1.0  0.29172  0.52928  0.93227  1.0000
  C   C85       1.0  0.38391  0.4766  0.9541900000000001  1.0000
  C   C86       1.0  0.3694500000000001  0.40079  0.9954200000000001  1.0000
  C   C87       1.0  0.95206  0.64614  0.64394  1.0000
  C   C88       1.0  0.03533  0.63257  0.68159  1.0000
  C   C89       1.0  0.04391  0.7081800000000001  0.72441  1.0000
  C   C90       1.0  0.96541  0.7917499999999998  0.72806  1.0000
  C   C91       1.0  0.88506  0.79796  0.68806  1.0000
  C   C92       1.0  0.14866  0.7813899999999999  0.7981000000000003  1.0000
  C   C93       1.0  0.28548000000000007  0.84689  0.8670600000000002  1.0000
  C   C94       1.0  0.31799000000000005  0.07743  0.99347  1.0000
  C   C95       1.0  0.3121900000000001  0.00015000000000000037  0.95199  1.0000
  C   C96       1.0  0.20855000000000004  0.9709099999999999  0.93187  1.0000
  C   C97       1.0  0.11644000000000002  0.02367  0.95402  1.0000
  C   C98       1.0  0.13086  0.10003999999999999  0.9950800000000002  1.0000
  C   C99       1.0  0.24973  0.74999  0.33196000000000003  1.0000
  C   C100      1.0  0.24907000000000007  0.7492500000000001  0.8321500000000001  1.0000
  S   S1        1.0  0.554  0.77974  0.91023  1.0000
  S   S2        1.0  0.9450500000000001  0.7203  0.90993  1.0000
  S   S3        1.0  0.22022000000000003  0.05478999999999999  0.40988  1.0000
  S   S4        1.0  0.28037  0.4453  0.40984  1.0000
  S   S5        1.0  0.4461700000000001  0.22032  0.08997  1.0000
  S   S6        1.0  0.05497000000000001  0.27978  0.09010000000000001  1.0000
  S   S7        1.0  0.7797400000000001  0.94527  0.5902200000000001  1.0000
  S   S8        1.0  0.71969  0.55483  0.5903  1.0000
  N   N1        1.0  0.7277200000000003  0.62241  0.8540800000000001  1.0000
  N   N2        1.0  0.12694000000000003  0.27056  0.48393  1.0000
  N   N3        1.0  0.7711600000000001  0.87813  0.85428  1.0000
  N   N4        1.0  0.37489  0.22967000000000004  0.48351  1.0000
  N   N5        1.0  0.37832  0.22849  0.35406  1.0000
  N   N6        1.0  0.7297100000000002  0.62578  0.9835600000000001  1.0000
  N   N7        1.0  0.12195  0.27176  0.35427  1.0000
  N   N8        1.0  0.77007  0.87323  0.9840700000000002  1.0000
  N   N9        1.0  0.27221  0.37772999999999995  0.14598000000000003  1.0000
  N   N10       1.0  0.8731  0.72953  0.51614  1.0000
  N   N11       1.0  0.22886  0.12184  0.14579  1.0000
  N   N12       1.0  0.6251300000000001  0.7703900000000001  0.51654  1.0000
  N   N13       1.0  0.62168  0.77152  0.6460600000000001  1.0000
  N   N14       1.0  0.27032  0.37421  0.016570000000000005  1.0000
  N   N15       1.0  0.8779200000000001  0.72834  0.64581  1.0000
  N   N16       1.0  0.23003  0.12685  0.01604  1.0000
  O   O1        1.0  0.69923  0.36625  0.74309  1.0000
  O   O2        1.0  0.89564  0.31024  0.60782  1.0000
  O   O3        1.0  0.8006500000000001  0.13376  0.7431500000000001  1.0000
  O   O4        1.0  0.60499  0.18992  0.6076700000000002  1.0000
  O   O5        1.0  0.63483  0.19976  0.24312  1.0000
  O   O6        1.0  0.6897100000000003  0.39479  0.10713  1.0000
  O   O7        1.0  0.87147  0.30602  0.24058  1.0000
  O   O8        1.0  0.8103500000000001  0.10443000000000001  0.10786000000000001  1.0000
  O   O9        1.0  0.30077  0.63378  0.25699000000000005  1.0000
  O   O10       1.0  0.10436  0.6897599999999999  0.39225000000000004  1.0000
  O   O11       1.0  0.19937000000000002  0.8661499999999999  0.25688  1.0000
  O   O12       1.0  0.39498000000000005  0.8101  0.39243  1.0000
  O   O13       1.0  0.36516  0.80022  0.7569800000000002  1.0000
  O   O14       1.0  0.31023  0.60532  0.8930700000000003  1.0000
  O   O15       1.0  0.12888  0.6942  0.7592800000000002  1.0000
  O   O16       1.0  0.1897  0.89556  0.8922600000000002  1.0000
