data_image0
_chemical_formula_structural       In8H72C112O48
_chemical_formula_sum              "In8 H72 C112 O48"
_cell_length_a       14.00848
_cell_length_b       14.0076
_cell_length_c       25.58717
_cell_angle_alpha    105.40870000000001
_cell_angle_beta     105.41384
_cell_angle_gamma    92.08137

_symmetry_space_group_name_H-M    'P 1'
_symmetry_Int_Tables_number       1

loop_
  _symmetry_equiv_pos_as_xyz
  'x,y,z'

loop_
  _atom_site_type_symbol
  _atom_site_label
  _atom_site_symmetry_multiplicity
  _atom_site_fract_x
  _atom_site_fract_y
  _atom_site_fract_z
  _atom_site_occupancy
  In  In1       1.0  0.6243200000000002  0.8745300000000003  0.7500200000000001  1.0000
  In  In2       1.0  0.12545  0.37569  0.25  1.0000
  In  In3       1.0  0.12424  0.87477  0.24992  1.0000
  In  In4       1.0  0.12519000000000008  0.87565  0.75009  1.0000
  In  In5       1.0  0.3589300000000001  0.85967  0.71979  1.0000
  In  In6       1.0  0.1403  0.6410400000000002  0.28021  1.0000
  In  In7       1.0  0.89011  0.8899800000000002  0.7797600000000001  1.0000
  In  In8       1.0  0.11002  0.1099  0.22026  1.0000
  H   H1        1.0  0.90789  0.36318  0.33658  1.0000
  H   H2        1.0  0.9644700000000002  0.68201  0.4001000000000001  1.0000
  H   H3        1.0  0.8899100000000002  0.57936  0.5349000000000002  1.0000
  H   H4        1.0  0.89157  0.6788100000000004  0.6318000000000001  1.0000
  H   H5        1.0  0.57578  0.68944  0.57462  1.0000
  H   H6        1.0  0.7796200000000002  0.36387  0.389  1.0000
  H   H7        1.0  0.5733199999999998  0.5878900000000001  0.4767  1.0000
  H   H8        1.0  0.8359900000000001  0.6836500000000002  0.4523  1.0000
  H   H9        1.0  0.6368200000000002  0.09208999999999995  0.66343  1.0000
  H   H10       1.0  0.31798  0.03552  0.59991  1.0000
  H   H11       1.0  0.42065  0.11008999999999997  0.46511  1.0000
  H   H12       1.0  0.32119000000000003  0.10842999999999997  0.3682  1.0000
  H   H13       1.0  0.31055  0.42422  0.42537  1.0000
  H   H14       1.0  0.63615  0.2204000000000001  0.611  1.0000
  H   H15       1.0  0.41211  0.4267  0.5233  1.0000
  H   H16       1.0  0.31633  0.16403  0.54769  1.0000
  H   H17       1.0  0.024939999999999993  0.57028  0.66278  1.0000
  H   H18       1.0  0.27967  0.5645699999999999  0.59921  1.0000
  H   H19       1.0  0.04298000000000003  0.35485000000000005  0.46470000000000006  1.0000
  H   H20       1.0  0.046349999999999975  0.26059  0.36796  1.0000
  H   H21       1.0  0.11514000000000003  0.0014100000000000152  0.42396  1.0000
  H   H22       1.0  0.9736300000000001  0.38907  0.61028  1.0000
  H   H23       1.0  0.11012999999999999  0.0957  0.52171  1.0000
  H   H24       1.0  0.22951000000000005  0.38328  0.5472  1.0000
  H   H25       1.0  0.42968000000000006  0.9750700000000001  0.33721000000000007  1.0000
  H   H26       1.0  0.43542  0.72031  0.4008  1.0000
  H   H27       1.0  0.64516  0.9570200000000002  0.53528  1.0000
  H   H28       1.0  0.7394  0.9536599999999998  0.63204  1.0000
  H   H29       1.0  0.9985700000000001  0.8848700000000002  0.57606  1.0000
  H   H30       1.0  0.61091  0.02641000000000002  0.3897  1.0000
  H   H31       1.0  0.9043099999999998  0.88988  0.4783  1.0000
  H   H32       1.0  0.61673  0.77046  0.45280000000000004  1.0000
  H   H33       1.0  0.25881  0.008619999999999956  0.74573  1.0000
  H   H34       1.0  0.34173  0.3884  0.16328  1.0000
  H   H35       1.0  0.28472  0.06949000000000001  0.09984000000000003  1.0000
  H   H36       1.0  0.35789  0.17166999999999996  0.96437  1.0000
  H   H37       1.0  0.35592  0.07116000000000006  0.86768  1.0000
  H   H38       1.0  0.67167  0.06063000000000002  0.92483  1.0000
  H   H39       1.0  0.46927000000000013  0.38747  0.11024000000000002  1.0000
  H   H40       1.0  0.67437  0.16338000000000003  0.02253  1.0000
  H   H41       1.0  0.4127700000000001  0.06776  0.04726  1.0000
  H   H42       1.0  0.7611700000000001  0.011809999999999985  0.75375  1.0000
  H   H43       1.0  0.61163  0.65829  0.83672  1.0000
  H   H44       1.0  0.93055  0.71528  0.90018  1.0000
  H   H45       1.0  0.82831  0.6421  0.03562  1.0000
  H   H46       1.0  0.9288400000000001  0.64406  0.13232  1.0000
  H   H47       1.0  0.93938  0.32832  0.07518  1.0000
  H   H48       1.0  0.61251  0.53072  0.88976  1.0000
  H   H49       1.0  0.83661  0.32561  0.97747  1.0000
  H   H50       1.0  0.9322600000000002  0.58718  0.95276  1.0000
  H   H51       1.0  0.22337000000000007  0.17933  0.83713  1.0000
  H   H52       1.0  0.96876  0.1847  0.90078  1.0000
  H   H53       1.0  0.20562000000000005  0.39467  0.03467  1.0000
  H   H54       1.0  0.20363  0.48883  0.13177  1.0000
  H   H55       1.0  0.13460999999999998  0.74841  0.07614  1.0000
  H   H56       1.0  0.2745500000000001  0.3605600000000001  0.88949  1.0000
  H   H57       1.0  0.13841000000000017  0.6541600000000002  0.9781100000000003  1.0000
  H   H58       1.0  0.01838000000000003  0.36626  0.95257  1.0000
  H   H59       1.0  0.8207300000000001  0.77665  0.16288000000000002  1.0000
  H   H60       1.0  0.81529  0.03127  0.0992  1.0000
  H   H61       1.0  0.60535  0.7944  0.96539  1.0000
  H   H62       1.0  0.51126  0.79632  0.86827  1.0000
  H   H63       1.0  0.2516300000000001  0.8652900000000001  0.92383  1.0000
  H   H64       1.0  0.63948  0.72543  0.11055  1.0000
  H   H65       1.0  0.34585000000000005  0.86161  0.021880000000000004  1.0000
  H   H66       1.0  0.6337100000000001  0.9816400000000001  0.04744  1.0000
  H   H67       1.0  0.9913700000000001  0.74118  0.25428  1.0000
  H   H68       1.0  0.98819  0.23884  0.24629  1.0000
  H   H69       1.0  0.26269  0.51373  0.25471  1.0000
  H   H70       1.0  0.258  0.005959999999999998  0.24484  1.0000
  H   H71       1.0  0.4862700000000002  0.7372800000000002  0.7452900000000002  1.0000
  H   H72       1.0  0.99396  0.74194  0.75517  1.0000
  C   C1        1.0  0.01718000000000001  0.52149  0.33221  1.0000
  C   C2        1.0  0.89196  0.4327100000000001  0.36215  1.0000
  C   C3        1.0  0.92419  0.61282  0.39832  1.0000
  C   C4        1.0  0.73354  0.68914  0.60925  1.0000
  C   C5        1.0  0.73122  0.5789700000000001  0.50076  1.0000
  C   C6        1.0  0.82157  0.60357  0.54379  1.0000
  C   C7        1.0  0.9441  0.52251  0.36527  1.0000
  C   C8        1.0  0.82201  0.65834  0.5979  1.0000
  C   C9        1.0  0.73547  0.74963  0.66693  1.0000
  C   C10       1.0  0.6437000000000003  0.66446  0.56538  1.0000
  C   C11       1.0  0.82079  0.43267  0.39109000000000005  1.0000
  C   C12       1.0  0.6420800000000002  0.60899  0.51119  1.0000
  C   C13       1.0  0.8011000000000004  0.5234  0.4232100000000001  1.0000
  C   C14       1.0  0.85268  0.61386  0.42727000000000004  1.0000
  C   C15       1.0  0.4785100000000001  0.9828100000000001  0.6678000000000001  1.0000
  C   C16       1.0  0.5673000000000001  0.10805000000000005  0.6378600000000001  1.0000
  C   C17       1.0  0.38717000000000007  0.07581000000000009  0.6016900000000001  1.0000
  C   C18       1.0  0.31086  0.26647  0.39075  1.0000
  C   C19       1.0  0.42104  0.26879  0.49924  1.0000
  C   C20       1.0  0.3964300000000001  0.17843000000000003  0.45622000000000007  1.0000
  C   C21       1.0  0.4774900000000001  0.05591000000000001  0.6347400000000001  1.0000
  C   C22       1.0  0.3416600000000001  0.17799000000000004  0.40210000000000007  1.0000
  C   C23       1.0  0.2503600000000001  0.2645400000000001  0.33307  1.0000
  C   C24       1.0  0.33553  0.35631  0.43462  1.0000
  C   C25       1.0  0.56734  0.17922  0.60892  1.0000
  C   C26       1.0  0.3910100000000001  0.3579300000000001  0.4888100000000001  1.0000
  C   C27       1.0  0.4766  0.19891  0.5768  1.0000
  C   C28       1.0  0.38612  0.14733  0.57274  1.0000
  C   C29       1.0  0.18715000000000007  0.6849  0.66706  1.0000
  C   C30       1.0  0.06882000000000006  0.52904  0.63715  1.0000
  C   C31       1.0  0.21242000000000008  0.5257999999999998  0.60095  1.0000
  C   C32       1.0  0.07967  0.12468999999999997  0.38982  1.0000
  C   C33       1.0  0.07696000000000007  0.22995000000000002  0.49842000000000003  1.0000
  C   C34       1.0  0.05845999999999999  0.2776200000000001  0.45565  1.0000
  C   C35       1.0  0.15517000000000003  0.57852  0.63397  1.0000
  C   C36       1.0  0.05962000000000005  0.22438000000000005  0.4015100000000001  1.0000
  C   C37       1.0  0.08329  0.06872000000000003  0.33233000000000007  1.0000
  C   C38       1.0  0.09884999999999997  0.07842000000000003  0.43342  1.0000
  C   C39       1.0  0.040079999999999984  0.42863  0.60825  1.0000
  C   C40       1.0  0.09685  0.13043  0.48754  1.0000
  C   C41       1.0  0.0987800000000001  0.37709000000000004  0.5762400000000001  1.0000
  C   C42       1.0  0.18483000000000002  0.42504  0.57216  1.0000
  C   C43       1.0  0.31507  0.8128300000000002  0.33292000000000005  1.0000
  C   C44       1.0  0.47094  0.93119  0.36285  1.0000
  C   C45       1.0  0.47419  0.78757  0.39905000000000007  1.0000
  C   C46       1.0  0.8753100000000003  0.9203400000000002  0.61019  1.0000
  C   C47       1.0  0.7700500000000002  0.92304  0.50158  1.0000
  C   C48       1.0  0.7223800000000002  0.94154  0.5443500000000001  1.0000
  C   C49       1.0  0.42146  0.8448300000000002  0.36602  1.0000
  C   C50       1.0  0.77562  0.94038  0.59849  1.0000
  C   C51       1.0  0.93127  0.9167  0.66768  1.0000
  C   C52       1.0  0.9215700000000002  0.90115  0.5665900000000001  1.0000
  C   C53       1.0  0.5713600000000001  0.95993  0.39174  1.0000
  C   C54       1.0  0.8695700000000002  0.90315  0.5124700000000001  1.0000
  C   C55       1.0  0.6229  0.90122  0.42376  1.0000
  C   C56       1.0  0.5749500000000001  0.8151599999999999  0.42784  1.0000
  C   C57       1.0  0.23282000000000003  0.23048000000000005  0.16801  1.0000
  C   C58       1.0  0.35733  0.31884  0.13759  1.0000
  C   C59       1.0  0.32489  0.13863  0.10146000000000002  1.0000
  C   C60       1.0  0.5139600000000001  0.06081000000000004  0.8900600000000001  1.0000
  C   C61       1.0  0.51663  0.17226  0.99856  1.0000
  C   C62       1.0  0.4262500000000001  0.14732999999999996  0.95556  1.0000
  C   C63       1.0  0.30539  0.22898  0.13464  1.0000
  C   C64       1.0  0.42560000000000003  0.09194000000000004  0.90148  1.0000
  C   C65       1.0  0.51241  0.00014000000000002536  0.83237  1.0000
  C   C66       1.0  0.60376  0.08578  0.93396  1.0000
  C   C67       1.0  0.428  0.31886  0.10837000000000001  1.0000
  C   C68       1.0  0.6056  0.14192000000000007  0.98807  1.0000
  C   C69       1.0  0.44747  0.22806000000000004  0.07626000000000001  1.0000
  C   C70       1.0  0.3960600000000001  0.13755  0.07228  1.0000
  C   C71       1.0  0.76948  0.76719  0.8320000000000001  1.0000
  C   C72       1.0  0.68116  0.6426700000000001  0.8624200000000001  1.0000
  C   C73       1.0  0.86139  0.67511  0.89855  1.0000
  C   C74       1.0  0.93919  0.48602000000000006  0.10995  1.0000
  C   C75       1.0  0.82771  0.48335  0.00144  1.0000
  C   C76       1.0  0.85265  0.57374  0.04444  1.0000
  C   C77       1.0  0.77103  0.6946200000000002  0.8653800000000001  1.0000
  C   C78       1.0  0.90805  0.57438  0.09853  1.0000
  C   C79       1.0  0.9998500000000001  0.48757  0.16763000000000003  1.0000
  C   C80       1.0  0.91422  0.39622  0.06604  1.0000
  C   C81       1.0  0.6811400000000002  0.5719800000000003  0.8916300000000003  1.0000
  C   C82       1.0  0.85807  0.39437  0.011930000000000003  1.0000
  C   C83       1.0  0.7719400000000001  0.55251  0.92374  1.0000
  C   C84       1.0  0.8624700000000002  0.6039100000000001  0.92772  1.0000
  C   C85       1.0  0.06196000000000002  0.06467999999999997  0.83286  1.0000
  C   C86       1.0  0.17952  0.2206500000000001  0.8627700000000001  1.0000
  C   C87       1.0  0.0359000000000001  0.22363000000000002  0.8989900000000001  1.0000
  C   C88       1.0  0.17002  0.62484  0.11005  1.0000
  C   C89       1.0  0.17144  0.51982  0.00128  1.0000
  C   C90       1.0  0.19039  0.47196  0.043960000000000006  1.0000
  C   C91       1.0  0.0933300000000001  0.17104000000000005  0.8660500000000001  1.0000
  C   C92       1.0  0.1899000000000001  0.5250900000000001  0.09823000000000003  1.0000
  C   C93       1.0  0.16652  0.68026  0.16764  1.0000
  C   C94       1.0  0.15053000000000005  0.67131  0.06653  1.0000
  C   C95       1.0  0.2080199999999999  0.32112  0.89155  1.0000
  C   C96       1.0  0.15193  0.61944  0.012290000000000002  1.0000
  C   C97       1.0  0.14910000000000007  0.37263  0.9234600000000001  1.0000
  C   C98       1.0  0.06313999999999997  0.32453000000000004  0.92762  1.0000
  C   C99       1.0  0.9353  0.9380300000000001  0.16717  1.0000
  C   C100      1.0  0.77937  0.82048  0.13724  1.0000
  C   C101      1.0  0.7763700000000001  0.96413  0.10101000000000003  1.0000
  C   C102      1.0  0.37520000000000003  0.8298300000000002  0.88995  1.0000
  C   C103      1.0  0.48020000000000007  0.8285500000000002  0.99874  1.0000
  C   C104      1.0  0.5280700000000002  0.8096000000000002  0.9560800000000002  1.0000
  C   C105      1.0  0.82896  0.90668  0.13395  1.0000
  C   C106      1.0  0.47497000000000017  0.8100400000000001  0.9017900000000002  1.0000
  C   C107      1.0  0.31968  0.8331  0.83234  1.0000
  C   C108      1.0  0.3287200000000002  0.8493700000000001  0.9334600000000001  1.0000
  C   C109      1.0  0.67889  0.79198  0.10847  1.0000
  C   C110      1.0  0.38059  0.84806  0.98771  1.0000
  C   C111      1.0  0.62737  0.8509100000000002  0.07657  1.0000
  C   C112      1.0  0.67546  0.9368800000000002  0.0724  1.0000
  O   O1        1.0  0.48571  0.77812  0.71978  1.0000
  O   O2        1.0  0.65714  0.7909100000000001  0.67192  1.0000
  O   O3        1.0  0.81502  0.7566900000000001  0.7072100000000001  1.0000
  O   O4        1.0  0.06696999999999996  0.60461  0.33913  1.0000
  O   O5        1.0  0.02323000000000003  0.4373200000000001  0.29889000000000004  1.0000
  O   O6        1.0  0.72335  0.51885  0.44687  1.0000
  O   O7        1.0  0.22191  0.51428  0.28024  1.0000
  O   O8        1.0  0.20905999999999997  0.3428600000000001  0.32808  1.0000
  O   O9        1.0  0.24330000000000002  0.18497000000000002  0.29280000000000006  1.0000
  O   O10       1.0  0.39539  0.93302  0.66087  1.0000
  O   O11       1.0  0.5626800000000002  0.97674  0.70112  1.0000
  O   O12       1.0  0.48116  0.2766600000000001  0.5531300000000001  1.0000
  O   O13       1.0  0.05757999999999999  0.76706  0.28005  1.0000
  O   O14       1.0  0.12340000000000004  0.98742  0.32816  1.0000
  O   O15       1.0  0.04698000000000001  0.1052  0.29129  1.0000
  O   O16       1.0  0.26179  0.72873  0.65914  1.0000
  O   O17       1.0  0.13794999999999996  0.7235300000000002  0.70138  1.0000
  O   O18       1.0  0.07117000000000005  0.27541  0.55249  1.0000
  O   O19       1.0  0.23291  0.9423800000000001  0.72  1.0000
  O   O20       1.0  0.012559999999999969  0.8765800000000002  0.67185  1.0000
  O   O21       1.0  0.8948000000000003  0.95302  0.70872  1.0000
  O   O22       1.0  0.27125  0.7382  0.34085  1.0000
  O   O23       1.0  0.27643  0.86202  0.29858  1.0000
  O   O24       1.0  0.72459  0.9288199999999999  0.44751  1.0000
  O   O25       1.0  0.7626  0.97126  0.77951  1.0000
  O   O26       1.0  0.59006  0.9569  0.82802  1.0000
  O   O27       1.0  0.43423000000000006  0.9948800000000001  0.7914800000000001  1.0000
  O   O28       1.0  0.18172  0.14798000000000003  0.16104  1.0000
  O   O29       1.0  0.22839  0.31493  0.20159  1.0000
  O   O30       1.0  0.5249  0.23284  0.05244  1.0000
  O   O31       1.0  0.02873  0.23742000000000005  0.22053  1.0000
  O   O32       1.0  0.04312000000000001  0.40994  0.17199000000000006  1.0000
  O   O33       1.0  0.005090000000000025  0.56575  0.20852000000000004  1.0000
  O   O34       1.0  0.8519700000000001  0.8183100000000003  0.8389700000000001  1.0000
  O   O35       1.0  0.6850300000000001  0.7716000000000002  0.7984200000000001  1.0000
  O   O36       1.0  0.76714  0.47507  0.94756  1.0000
  O   O37       1.0  0.19094  0.9821  0.21968  1.0000
  O   O38       1.0  0.12530000000000005  0.76105  0.17199000000000006  1.0000
  O   O39       1.0  0.20368999999999998  0.64354  0.2085  1.0000
  O   O40       1.0  0.98878  0.019309999999999994  0.84125  1.0000
  O   O41       1.0  0.11036000000000006  0.027679999999999944  0.79779  1.0000
  O   O42       1.0  0.17628000000000002  0.47449  0.94706  1.0000
  O   O43       1.0  0.017830000000000013  0.80901  0.78031  1.0000
  O   O44       1.0  0.2386  0.87375  0.82794  1.0000
  O   O45       1.0  0.35653  0.79622  0.7915  1.0000
  O   O46       1.0  0.9807  0.011199999999999998  0.15879  1.0000
  O   O47       1.0  0.97226  0.8896800000000001  0.20228000000000002  1.0000
  O   O48       1.0  0.52552  0.82371  0.05297  1.0000
