data_image0
_chemical_formula_structural       Cu12H64C144N16O32
_chemical_formula_sum              "Cu12 H64 C144 N16 O32"
_cell_length_a       18.7925
_cell_length_b       18.78761
_cell_length_c       22.412670000000002
_cell_angle_alpha    114.69851
_cell_angle_beta     114.71781
_cell_angle_gamma    89.99955

_space_group_name_H-M_alt    "P 1"
_space_group_IT_number       1

loop_
  _space_group_symop_operation_xyz
  'x, y, z'

loop_
  _atom_site_type_symbol
  _atom_site_label
  _atom_site_symmetry_multiplicity
  _atom_site_fract_x
  _atom_site_fract_y
  _atom_site_fract_z
  _atom_site_occupancy
  Cu  Cu1       1.0  0.50481  0.50545  0.44912  1.0000
  Cu  Cu2       1.0  0.94374  0.9439499999999997  0.44896  1.0000
  Cu  Cu3       1.0  0.50524  0.94371  0.44925999999999994  1.0000
  Cu  Cu4       1.0  0.9439700000000001  0.50548  0.44919000000000003  1.0000
  Cu  Cu5       1.0  0.49518999999999996  0.49456  0.55088  1.0000
  Cu  Cu6       1.0  0.05626000000000001  0.056060000000000026  0.55104  1.0000
  Cu  Cu7       1.0  0.4947600000000001  0.05630000000000005  0.5507400000000001  1.0000
  Cu  Cu8       1.0  0.05603000000000002  0.49452  0.55081  1.0000
  Cu  Cu9       1.0  0.99989  0.71204  0.99998  1.0000
  Cu  Cu10      1.0  0.00011  0.2879599999999999  2e-05  1.0000
  Cu  Cu11      1.0  0.71221  8.999999999999998e-05  0.00021999999999999998  1.0000
  Cu  Cu12      1.0  0.28779  0.99991  0.99978  1.0000
  H   H1        1.0  0.75662  0.50058  0.51205  1.0000
  H   H2        1.0  0.97261  0.57243  0.71623  1.0000
  H   H3        1.0  0.74277  0.5694699999999999  0.71519  1.0000
  H   H4        1.0  0.92989  0.45605999999999997  0.74838  1.0000
  H   H5        1.0  0.81999  0.7175499999999999  0.74847  1.0000
  H   H6        1.0  0.027030000000000123  0.41871000000000014  0.8558300000000001  1.0000
  H   H7        1.0  0.82888  0.8612899999999999  0.85503  1.0000
  H   H8        1.0  0.7553  0.011410000000000036  0.51206  1.0000
  H   H9        1.0  0.7426  0.14328000000000005  0.7159400000000001  1.0000
  H   H10       1.0  0.9716800000000001  0.14587000000000006  0.71537  1.0000
  H   H11       1.0  0.81749  0.29228000000000004  0.74826  1.0000
  H   H12       1.0  0.9279899999999999  0.031080000000000007  0.74858  1.0000
  H   H13       1.0  0.82858  0.43716999999999995  0.85585  1.0000
  H   H14       1.0  0.02626000000000005  0.99393  0.85505  1.0000
  H   H15       1.0  0.49984  0.7556000000000002  0.5122  1.0000
  H   H16       1.0  0.57227  0.74253  0.71604  1.0000
  H   H17       1.0  0.56998  0.97186  0.71587  1.0000
  H   H18       1.0  0.4566  0.81777  0.74889  1.0000
  H   H19       1.0  0.7177  0.9277399999999999  0.74844  1.0000
  H   H20       1.0  0.4189500000000001  0.82898  0.85643  1.0000
  H   H21       1.0  0.86107  0.026120000000000008  0.85489  1.0000
  H   H22       1.0  0.011170000000000001  0.75603  0.51193  1.0000
  H   H23       1.0  0.14309  0.9724  0.71572  1.0000
  H   H24       1.0  0.14615000000000003  0.74272  0.7152400000000001  1.0000
  H   H25       1.0  0.29225  0.9296399999999999  0.74775  1.0000
  H   H26       1.0  0.031209999999999988  0.82003  0.74859  1.0000
  H   H27       1.0  0.43684999999999996  0.026729999999999993  0.85528  1.0000
  H   H28       1.0  0.99384  0.82895  0.85519  1.0000
  H   H29       1.0  0.24337999999999999  0.4994299999999999  0.48794  1.0000
  H   H30       1.0  0.027389999999999998  0.42756999999999995  0.28377  1.0000
  H   H31       1.0  0.25723  0.43052999999999997  0.2848  1.0000
  H   H32       1.0  0.07009999999999997  0.54395  0.25162  1.0000
  H   H33       1.0  0.18  0.28244999999999987  0.25153  1.0000
  H   H34       1.0  0.97297  0.58129  0.14417  1.0000
  H   H35       1.0  0.17112  0.13871  0.14497000000000002  1.0000
  H   H36       1.0  0.2447  0.98859  0.48794  1.0000
  H   H37       1.0  0.2574  0.8567299999999998  0.28406  1.0000
  H   H38       1.0  0.028319999999999988  0.85413  0.28463  1.0000
  H   H39       1.0  0.1825  0.70773  0.25173  1.0000
  H   H40       1.0  0.07201  0.96892  0.25142  1.0000
  H   H41       1.0  0.17142  0.56284  0.14415  1.0000
  H   H42       1.0  0.9737299999999999  0.006070000000000006  0.14494  1.0000
  H   H43       1.0  0.50016  0.2444  0.4878  1.0000
  H   H44       1.0  0.42773000000000005  0.25747  0.28395  1.0000
  H   H45       1.0  0.43000999999999995  0.028139999999999978  0.28413  1.0000
  H   H46       1.0  0.54339  0.18223000000000003  0.25111  1.0000
  H   H47       1.0  0.2823  0.07226000000000003  0.25156  1.0000
  H   H48       1.0  0.58105  0.17102  0.14356  1.0000
  H   H49       1.0  0.13893  0.9738799999999999  0.14511  1.0000
  H   H50       1.0  0.98882  0.24397999999999997  0.48807  1.0000
  H   H51       1.0  0.85691  0.027600000000000013  0.28428  1.0000
  H   H52       1.0  0.8538499999999999  0.25728  0.28476  1.0000
  H   H53       1.0  0.70775  0.07036  0.25225  1.0000
  H   H54       1.0  0.96878  0.1799699999999999  0.25141  1.0000
  H   H55       1.0  0.56314  0.9732699999999999  0.14472  1.0000
  H   H56       1.0  0.006159999999999996  0.17105  0.14481  1.0000
  H   H57       1.0  0.10033  0.49428999999999995  0.00015  1.0000
  H   H58       1.0  0.89914  0.9300599999999999  0.9998899999999998  1.0000
  H   H59       1.0  0.89966  0.50571  0.99985  1.0000
  H   H60       1.0  0.10086  0.06994999999999997  0.00010999999999999999  1.0000
  H   H61       1.0  0.49464  0.90026  0.00089  1.0000
  H   H62       1.0  0.9299499999999999  0.10055  0.99961  1.0000
  H   H63       1.0  0.50536  0.09973999999999995  0.99911  1.0000
  H   H64       1.0  0.07005  0.89945  0.00039000000000000005  1.0000
  C   C1        1.0  0.65155  0.51798  0.569  1.0000
  C   C2        1.0  0.91783  0.51807  0.56924  1.0000
  C   C3        1.0  0.74059  0.53191  0.60941  1.0000
  C   C4        1.0  0.78587  0.52007  0.57126  1.0000
  C   C5        1.0  0.86925  0.53236  0.60978  1.0000
  C   C6        1.0  0.90753  0.56063  0.68667  1.0000
  C   C7        1.0  0.8627  0.57673  0.72575  1.0000
  C   C8        1.0  0.7788300000000001  0.55954  0.68622  1.0000
  C   C9        1.0  0.9035400000000001  0.6159099999999998  0.80814  1.0000
  C   C10       1.0  0.89431  0.6940699999999999  0.84465  1.0000
  C   C11       1.0  0.94969  0.57443  0.84449  1.0000
  C   C12       1.0  0.95861  0.49341999999999997  0.8077200000000001  1.0000
  C   C13       1.0  0.84978  0.73885  0.80774  1.0000
  C   C14       1.0  0.90272  0.8123000000000001  0.9315400000000001  1.0000
  C   C15       1.0  0.028539999999999933  0.5436  0.9316  1.0000
  C   C16       1.0  0.007660000000000077  0.47458  0.86176  1.0000
  C   C17       1.0  0.8545  0.8117299999999998  0.86161  1.0000
  C   C18       1.0  0.91703  0.05122999999999999  0.56873  1.0000
  C   C19       1.0  0.65112  0.05106999999999999  0.56914  1.0000
  C   C20       1.0  0.8684500000000002  0.07762999999999995  0.60935  1.0000
  C   C21       1.0  0.7851  0.051209999999999985  0.57122  1.0000
  C   C22       1.0  0.74011  0.07733  0.60971  1.0000
  C   C23       1.0  0.77844  0.12580999999999998  0.68659  1.0000
  C   C24       1.0  0.86223  0.14881999999999995  0.72567  1.0000
  C   C25       1.0  0.90672  0.12668  0.68615  1.0000
  C   C26       1.0  0.9037699999999999  0.19203  0.80807  1.0000
  C   C27       1.0  0.9497900000000001  0.15050999999999998  0.8447  1.0000
  C   C28       1.0  0.8940499999999999  0.26984  0.84436  1.0000
  C   C29       1.0  0.84833  0.3141699999999999  0.80759  1.0000
  C   C30       1.0  0.95758  0.06896999999999998  0.80784  1.0000
  C   C31       1.0  0.028770000000000018  0.11926999999999993  0.93161  1.0000
  C   C32       1.0  0.9028500000000002  0.38786999999999994  0.9315100000000001  1.0000
  C   C33       1.0  0.8537  0.3871200000000001  0.86168  1.0000
  C   C34       1.0  0.007049999999999997  0.05001000000000003  0.86169  1.0000
  C   C35       1.0  0.51764  0.91709  0.56891  1.0000
  C   C36       1.0  0.51697  0.6510999999999998  0.56896  1.0000
  C   C37       1.0  0.53179  0.86867  0.6097  1.0000
  C   C38       1.0  0.51953  0.7852799999999998  0.57143  1.0000
  C   C39       1.0  0.53174  0.74014  0.60979  1.0000
  C   C40       1.0  0.56048  0.77842  0.68674  1.0000
  C   C41       1.0  0.57688  0.8622399999999999  0.72594  1.0000
  C   C42       1.0  0.55974  0.90689  0.68655  1.0000
  C   C43       1.0  0.61628  0.9036799999999999  0.80835  1.0000
  C   C44       1.0  0.69431  0.9495699999999999  0.8447100000000001  1.0000
  C   C45       1.0  0.57487  0.8941199999999999  0.84488  1.0000
  C   C46       1.0  0.49387000000000003  0.8485799999999999  0.80824  1.0000
  C   C47       1.0  0.73894  0.9573599999999998  0.8077  1.0000
  C   C48       1.0  0.81229  0.02853000000000001  0.93148  1.0000
  C   C49       1.0  0.54389  0.90306  0.93213  1.0000
  C   C50       1.0  0.47491000000000005  0.8539999999999999  0.8623500000000001  1.0000
  C   C51       1.0  0.81163  0.006820000000000084  0.86149  1.0000
  C   C52       1.0  0.05158999999999997  0.65125  0.56889  1.0000
  C   C53       1.0  0.050749999999999997  0.9173999999999999  0.56884  1.0000
  C   C54       1.0  0.07790999999999998  0.74029  0.60935  1.0000
  C   C55       1.0  0.05110000000000002  0.7854499999999998  0.57108  1.0000
  C   C56       1.0  0.07702999999999999  0.86885  0.60943  1.0000
  C   C57       1.0  0.12562  0.90729  0.68632  1.0000
  C   C58       1.0  0.14879000000000003  0.86259  0.72552  1.0000
  C   C59       1.0  0.12692999999999996  0.77867  0.68613  1.0000
  C   C60       1.0  0.19206000000000012  0.9035199999999999  0.8079000000000001  1.0000
  C   C61       1.0  0.15054999999999996  0.89439  0.84465  1.0000
  C   C62       1.0  0.26984000000000014  0.9494299999999999  0.8439900000000001  1.0000
  C   C63       1.0  0.31407  0.9583  0.80708  1.0000
  C   C64       1.0  0.06900999999999997  0.84988  0.80787  1.0000
  C   C65       1.0  0.11921000000000018  0.90283  0.9316700000000001  1.0000
  C   C66       1.0  0.38766  0.028119999999999947  0.9309799999999999  1.0000
  C   C67       1.0  0.38689  0.007260000000000085  0.8611  1.0000
  C   C68       1.0  0.04997999999999997  0.8546  0.86179  1.0000
  C   C69       1.0  0.34845  0.48201999999999995  0.43099  1.0000
  C   C70       1.0  0.08216000000000001  0.4819299999999999  0.43076  1.0000
  C   C71       1.0  0.25941  0.46808999999999995  0.39058  1.0000
  C   C72       1.0  0.21412999999999996  0.47993999999999987  0.42873  1.0000
  C   C73       1.0  0.13074  0.46765  0.39022  1.0000
  C   C74       1.0  0.09247000000000002  0.43937  0.31332000000000004  1.0000
  C   C75       1.0  0.13729  0.4232699999999999  0.27425  1.0000
  C   C76       1.0  0.22117000000000003  0.44046  0.31378  1.0000
  C   C77       1.0  0.09646  0.3840899999999999  0.19186  1.0000
  C   C78       1.0  0.10569  0.30592999999999987  0.15535  1.0000
  C   C79       1.0  0.05031  0.4255699999999999  0.1555  1.0000
  C   C80       1.0  0.04138000000000001  0.50658  0.19228  1.0000
  C   C81       1.0  0.15022  0.26116  0.19226  1.0000
  C   C82       1.0  0.09727  0.1877  0.06846  1.0000
  C   C83       1.0  0.97146  0.45640999999999987  0.0684  1.0000
  C   C84       1.0  0.99234  0.5254199999999999  0.13824  1.0000
  C   C85       1.0  0.14550000000000002  0.18828000000000003  0.13839000000000004  1.0000
  C   C86       1.0  0.08297000000000003  0.94877  0.43127  1.0000
  C   C87       1.0  0.34888000000000013  0.94893  0.4308600000000001  1.0000
  C   C88       1.0  0.13155  0.9223699999999999  0.39065  1.0000
  C   C89       1.0  0.21489  0.9488  0.42878  1.0000
  C   C90       1.0  0.25989  0.92267  0.39029  1.0000
  C   C91       1.0  0.22156  0.87419  0.3134  1.0000
  C   C92       1.0  0.13776  0.85119  0.27432  1.0000
  C   C93       1.0  0.09327999999999997  0.8733299999999999  0.31384  1.0000
  C   C94       1.0  0.09623  0.8079799999999998  0.19193  1.0000
  C   C95       1.0  0.05019999999999999  0.84949  0.1553  1.0000
  C   C96       1.0  0.10594  0.73016  0.15564  1.0000
  C   C97       1.0  0.15167  0.68584  0.19241  1.0000
  C   C98       1.0  0.04241  0.9310399999999999  0.19216  1.0000
  C   C99       1.0  0.97123  0.88073  0.06839  1.0000
  C   C100      1.0  0.09715  0.61213  0.06849  1.0000
  C   C101      1.0  0.1463  0.61288  0.13832  1.0000
  C   C102      1.0  0.99295  0.9499899999999999  0.1383  1.0000
  C   C103      1.0  0.48236  0.08292  0.43108  1.0000
  C   C104      1.0  0.48303  0.34891  0.43104  1.0000
  C   C105      1.0  0.46821000000000007  0.13133  0.3903  1.0000
  C   C106      1.0  0.48046  0.21472  0.42857000000000006  1.0000
  C   C107      1.0  0.46826  0.25987  0.39021  1.0000
  C   C108      1.0  0.43950999999999996  0.22159  0.31326  1.0000
  C   C109      1.0  0.42312  0.13776  0.27405  1.0000
  C   C110      1.0  0.44026000000000004  0.09311999999999997  0.31345  1.0000
  C   C111      1.0  0.38372  0.09631999999999999  0.19165  1.0000
  C   C112      1.0  0.30569  0.050430000000000016  0.15529000000000004  1.0000
  C   C113      1.0  0.42513  0.10588000000000002  0.15512  1.0000
  C   C114      1.0  0.50613  0.15143  0.19176  1.0000
  C   C115      1.0  0.26106  0.04263999999999998  0.1923  1.0000
  C   C116      1.0  0.18771  0.97147  0.06852  1.0000
  C   C117      1.0  0.45611000000000007  0.09694  0.06787  1.0000
  C   C118      1.0  0.52509  0.14599999999999994  0.13765  1.0000
  C   C119      1.0  0.18836  0.9931899999999999  0.13851  1.0000
  C   C120      1.0  0.94841  0.34876  0.43111  1.0000
  C   C121      1.0  0.94925  0.0826  0.43115  1.0000
  C   C122      1.0  0.92209  0.25971  0.39065  1.0000
  C   C123      1.0  0.9489  0.21455999999999997  0.42891  1.0000
  C   C124      1.0  0.9229699999999998  0.13115  0.39057  1.0000
  C   C125      1.0  0.87438  0.09270999999999997  0.31368  1.0000
  C   C126      1.0  0.85121  0.13742  0.27448  1.0000
  C   C127      1.0  0.8730599999999998  0.22134  0.31386  1.0000
  C   C128      1.0  0.80794  0.09649  0.1921  1.0000
  C   C129      1.0  0.84944  0.10561  0.15535  1.0000
  C   C130      1.0  0.73016  0.05057  0.15601  1.0000
  C   C131      1.0  0.68593  0.04170999999999998  0.19292  1.0000
  C   C132      1.0  0.93098  0.15011999999999995  0.19213  1.0000
  C   C133      1.0  0.88079  0.09716999999999999  0.06833  1.0000
  C   C134      1.0  0.61234  0.9718899999999999  0.06901  1.0000
  C   C135      1.0  0.61311  0.99275  0.1389  1.0000
  C   C136      1.0  0.9500199999999999  0.1454  0.13821  1.0000
  C   C137      1.0  0.07691  0.5472699999999998  9e-05  1.0000
  C   C138      1.0  0.92272  0.87712  0.99994  1.0000
  C   C139      1.0  0.92309  0.4527299999999999  0.9999099999999999  1.0000
  C   C140      1.0  0.07728  0.12287999999999999  5.9999999999999995e-05  1.0000
  C   C141      1.0  0.54755  0.9235199999999999  0.0007  1.0000
  C   C142      1.0  0.8771  0.07705000000000009  0.9997900000000001  1.0000
  C   C143      1.0  0.45244999999999996  0.07648000000000002  0.9993  1.0000
  C   C144      1.0  0.1229  0.9229499999999998  0.00021  1.0000
  N   N1        1.0  0.9925500000000002  0.6040799999999998  0.9203500000000001  1.0000
  N   N2        1.0  0.9269899999999999  0.7402799999999998  0.92042  1.0000
  N   N3        1.0  0.92741  0.31608  0.92025  1.0000
  N   N4        1.0  0.99314  0.18008999999999994  0.9204600000000001  1.0000
  N   N5        1.0  0.6044200000000001  0.92748  0.9207600000000001  1.0000
  N   N6        1.0  0.74045  0.99292  0.9204600000000001  1.0000
  N   N7        1.0  0.31600999999999996  0.9922099999999999  0.91985  1.0000
  N   N8        1.0  0.18005  0.92705  0.92043  1.0000
  N   N9        1.0  0.007450000000000002  0.39592  0.07964  1.0000
  N   N10       1.0  0.07301  0.2597199999999999  0.07958  1.0000
  N   N11       1.0  0.07259  0.68392  0.07975  1.0000
  N   N12       1.0  0.006859999999999998  0.8199199999999998  0.07954  1.0000
  N   N13       1.0  0.39558  0.07252  0.07924  1.0000
  N   N14       1.0  0.25955  0.007080000000000003  0.07954  1.0000
  N   N15       1.0  0.68399  0.0078  0.08015  1.0000
  N   N16       1.0  0.81994  0.07294999999999999  0.07957  1.0000
  O   O1        1.0  0.62161  0.5174099999999999  0.50588  1.0000
  O   O2        1.0  0.61254  0.50867  0.60128  1.0000
  O   O3        1.0  0.9888  0.50801  0.60106  1.0000
  O   O4        1.0  0.8845699999999999  0.51745  0.5061  1.0000
  O   O5        1.0  0.8833700000000001  0.9893299999999999  0.5053  1.0000
  O   O6        1.0  0.9885  0.09221000000000001  0.60102  1.0000
  O   O7        1.0  0.61186  0.09250999999999998  0.60115  1.0000
  O   O8        1.0  0.62141  0.98906  0.5058  1.0000
  O   O9        1.0  0.51682  0.8833  0.50569  1.0000
  O   O10       1.0  0.50823  0.98837  0.60069  1.0000
  O   O11       1.0  0.50787  0.6117  0.60102  1.0000
  O   O12       1.0  0.51499  0.62145  0.50529  1.0000
  O   O13       1.0  0.9895  0.6216999999999998  0.50561  1.0000
  O   O14       1.0  0.09260000000000004  0.61187  0.6010400000000001  1.0000
  O   O15       1.0  0.09221999999999994  0.9886099999999999  0.60103  1.0000
  O   O16       1.0  0.98883  0.8839499999999999  0.50541  1.0000
  O   O17       1.0  0.37839000000000006  0.4825900000000001  0.49412000000000006  1.0000
  O   O18       1.0  0.38745  0.49132999999999993  0.39872  1.0000
  O   O19       1.0  0.011199999999999988  0.49199  0.39894  1.0000
  O   O20       1.0  0.11542999999999992  0.48255  0.49389999999999995  1.0000
  O   O21       1.0  0.11662999999999997  0.010679999999999964  0.4946999999999999  1.0000
  O   O22       1.0  0.01149000000000001  0.9077899999999999  0.39898  1.0000
  O   O23       1.0  0.38813  0.9075  0.39885  1.0000
  O   O24       1.0  0.37858  0.010940000000000002  0.4942  1.0000
  O   O25       1.0  0.48317000000000004  0.1167  0.49431  1.0000
  O   O26       1.0  0.49177000000000004  0.011630000000000012  0.39931  1.0000
  O   O27       1.0  0.49213  0.3883099999999999  0.39898  1.0000
  O   O28       1.0  0.48501000000000005  0.37855  0.49471000000000004  1.0000
  O   O29       1.0  0.010499999999999989  0.37829999999999997  0.49438000000000004  1.0000
  O   O30       1.0  0.9073900000000001  0.38812999999999986  0.39896  1.0000
  O   O31       1.0  0.90778  0.011390000000000006  0.39897  1.0000
  O   O32       1.0  0.011170000000000024  0.11606000000000002  0.49459000000000003  1.0000
