data_image0
_chemical_formula_structural       Cu16Mo4H64C104S16N56
_chemical_formula_sum              "Cu16 Mo4 H64 C104 S16 N56"
_cell_length_a       13.67609
_cell_length_b       13.63264
_cell_length_c       28.137979999999995
_cell_angle_alpha    104.01999
_cell_angle_beta     103.93475000000001
_cell_angle_gamma    90.00981

_space_group_name_H-M_alt    "P 1"
_space_group_IT_number       1

loop_
  _space_group_symop_operation_xyz
  'x, y, z'

loop_
  _atom_site_type_symbol
  _atom_site_label
  _atom_site_symmetry_multiplicity
  _atom_site_fract_x
  _atom_site_fract_y
  _atom_site_fract_z
  _atom_site_occupancy
  Cu  Cu1       1.0  0.05642000000000002  0.05226000000000003  0.23590000000000005  1.0000
  Cu  Cu2       1.0  0.17688  0.68272  0.23555  1.0000
  Cu  Cu3       1.0  0.68522  0.05707999999999997  0.73595  1.0000
  Cu  Cu4       1.0  0.05265000000000001  0.18009000000000006  0.73587  1.0000
  Cu  Cu5       1.0  0.4448400000000002  0.8192200000000003  0.7645600000000002  1.0000
  Cu  Cu6       1.0  0.32319000000000014  0.44476000000000004  0.7646600000000002  1.0000
  Cu  Cu7       1.0  0.81726  0.31946  0.26457  1.0000
  Cu  Cu8       1.0  0.44343  0.44321000000000016  0.2646  1.0000
  Cu  Cu9       1.0  0.94358  0.94775  0.7641000000000002  1.0000
  Cu  Cu10      1.0  0.82312  0.3172800000000002  0.7644500000000002  1.0000
  Cu  Cu11      1.0  0.31478  0.9429300000000003  0.26405  1.0000
  Cu  Cu12      1.0  0.9473500000000001  0.8199100000000004  0.26413000000000003  1.0000
  Cu  Cu13      1.0  0.5551500000000003  0.18078000000000002  0.23544000000000007  1.0000
  Cu  Cu14      1.0  0.67681  0.5552500000000001  0.23534000000000002  1.0000
  Cu  Cu15      1.0  0.18273999999999993  0.68054  0.73543  1.0000
  Cu  Cu16      1.0  0.5565700000000002  0.5567900000000002  0.7354000000000003  1.0000
  Mo  Mo1       1.0  0.12392000000000006  0.8748300000000001  0.25017000000000006  1.0000
  Mo  Mo2       1.0  0.8760800000000001  0.12517000000000011  0.7498400000000002  1.0000
  Mo  Mo3       1.0  0.37635  0.62489  0.74975  1.0000
  Mo  Mo4       1.0  0.62365  0.37511  0.25025  1.0000
  H   H1        1.0  0.25534  0.11781000000000001  0.21530000000000002  1.0000
  H   H2        1.0  0.32429  0.12232000000000003  0.14165000000000003  1.0000
  H   H3        1.0  0.03174000000000001  0.9963200000000002  0.04509000000000001  1.0000
  H   H4        1.0  0.9767400000000003  0.9967300000000002  0.12264000000000001  1.0000
  H   H5        1.0  0.9574700000000003  0.59585  0.21522000000000005  1.0000
  H   H6        1.0  0.81554  0.51829  0.14145  1.0000
  H   H7        1.0  0.01186000000000001  0.55025  0.04509000000000001  1.0000
  H   H8        1.0  0.14393000000000003  0.62647  0.12275000000000003  1.0000
  H   H9        1.0  0.59935  0.25667  0.71547  1.0000
  H   H10       1.0  0.52075  0.3253900000000001  0.64188  1.0000
  H   H11       1.0  0.54947  0.031430000000000055  0.5452500000000001  1.0000
  H   H12       1.0  0.6266300000000001  0.9766400000000001  0.6227700000000003  1.0000
  H   H13       1.0  0.11923000000000006  0.9595499999999999  0.71526  1.0000
  H   H14       1.0  0.12326000000000004  0.8165300000000001  0.6417100000000001  1.0000
  H   H15       1.0  0.99586  0.012330000000000018  0.54491  1.0000
  H   H16       1.0  0.9969600000000002  0.14553000000000013  0.6223100000000003  1.0000
  H   H17       1.0  0.24721000000000015  0.9087500000000002  0.7858100000000002  1.0000
  H   H18       1.0  0.17909000000000008  0.9887400000000003  0.8594700000000002  1.0000
  H   H19       1.0  0.4640500000000002  0.9391000000000004  0.9561400000000002  1.0000
  H   H20       1.0  0.5181000000000002  0.8599500000000002  0.8784600000000002  1.0000
  H   H21       1.0  0.541  0.3773100000000001  0.7855500000000002  1.0000
  H   H22       1.0  0.68173  0.36958000000000013  0.85922  1.0000
  H   H23       1.0  0.4923400000000001  0.5145900000000001  0.9559300000000002  1.0000
  H   H24       1.0  0.3614500000000001  0.5171800000000001  0.8783100000000003  1.0000
  H   H25       1.0  0.9067000000000001  0.53988  0.28546  1.0000
  H   H26       1.0  0.9882900000000002  0.68102  0.35904  1.0000
  H   H27       1.0  0.94018  0.4914300000000001  0.45589000000000013  1.0000
  H   H28       1.0  0.8595700000000002  0.36016000000000015  0.37835000000000013  1.0000
  H   H29       1.0  0.37563  0.24608000000000008  0.2858800000000001  1.0000
  H   H30       1.0  0.3692200000000001  0.17834000000000005  0.35972000000000004  1.0000
  H   H31       1.0  0.51632  0.46429000000000015  0.4560300000000001  1.0000
  H   H32       1.0  0.51791  0.5178300000000002  0.3782  1.0000
  H   H33       1.0  0.7446600000000003  0.8821900000000001  0.7847100000000002  1.0000
  H   H34       1.0  0.67571  0.87769  0.85835  1.0000
  H   H35       1.0  0.9682600000000005  0.00368000000000011  0.9549100000000003  1.0000
  H   H36       1.0  0.023260000000000003  0.003269999999999999  0.87737  1.0000
  H   H37       1.0  0.042530000000000005  0.40416000000000013  0.78479  1.0000
  H   H38       1.0  0.18445000000000017  0.4817100000000002  0.8585500000000003  1.0000
  H   H39       1.0  0.98814  0.4497600000000001  0.9549100000000003  1.0000
  H   H40       1.0  0.8560600000000004  0.37353000000000003  0.8772500000000001  1.0000
  H   H41       1.0  0.40065  0.7433400000000001  0.28454  1.0000
  H   H42       1.0  0.47925000000000023  0.6746100000000002  0.35812000000000005  1.0000
  H   H43       1.0  0.45053  0.96858  0.4547500000000001  1.0000
  H   H44       1.0  0.3733700000000001  0.02335999999999998  0.37723  1.0000
  H   H45       1.0  0.88077  0.04046000000000001  0.28475  1.0000
  H   H46       1.0  0.8767400000000003  0.18348000000000003  0.3582900000000001  1.0000
  H   H47       1.0  0.004140000000000005  0.98768  0.4551  1.0000
  H   H48       1.0  0.0030400000000000214  0.85447  0.37769  1.0000
  H   H49       1.0  0.75279  0.09125000000000003  0.21420000000000006  1.0000
  H   H50       1.0  0.82091  0.011260000000000013  0.14053000000000002  1.0000
  H   H51       1.0  0.53595  0.06090000000000001  0.04386000000000002  1.0000
  H   H52       1.0  0.48190000000000005  0.14005  0.12155000000000003  1.0000
  H   H53       1.0  0.45900000000000013  0.6227000000000001  0.21445000000000006  1.0000
  H   H54       1.0  0.31827  0.6304200000000001  0.14078  1.0000
  H   H55       1.0  0.50765  0.4854200000000001  0.04408000000000001  1.0000
  H   H56       1.0  0.63855  0.48283  0.12170000000000003  1.0000
  H   H57       1.0  0.09330000000000001  0.46013000000000004  0.71454  1.0000
  H   H58       1.0  0.011700000000000049  0.31898000000000004  0.6409700000000002  1.0000
  H   H59       1.0  0.05982  0.50857  0.54412  1.0000
  H   H60       1.0  0.14042999999999994  0.63985  0.62166  1.0000
  H   H61       1.0  0.62437  0.7539300000000004  0.7141200000000002  1.0000
  H   H62       1.0  0.63077  0.8216700000000002  0.64029  1.0000
  H   H63       1.0  0.4836800000000001  0.53571  0.54397  1.0000
  H   H64       1.0  0.4820900000000001  0.4821700000000001  0.62181  1.0000
  C   C1        1.0  0.20820000000000005  0.09293000000000001  0.17696  1.0000
  C   C2        1.0  0.24663000000000004  0.09457000000000002  0.13563000000000003  1.0000
  C   C3        1.0  0.18313  0.060540000000000024  0.08681000000000003  1.0000
  C   C4        1.0  0.08397000000000003  0.024850000000000007  0.08191000000000001  1.0000
  C   C5        1.0  0.05263  0.02538000000000001  0.12541  1.0000
  C   C6        1.0  0.2186  0.05936000000000001  0.04147  1.0000
  C   C7        1.0  0.91424  0.22512  0.25271  1.0000
  C   C8        1.0  0.96657  0.58312  0.17691000000000004  1.0000
  C   C9        1.0  0.8871299999999999  0.54056  0.13553  1.0000
  C   C10       1.0  0.9021600000000002  0.52656  0.08674000000000003  1.0000
  C   C11       1.0  0.9963000000000002  0.55788  0.0819  1.0000
  C   C12       1.0  0.07082  0.6003300000000003  0.12543  1.0000
  C   C13       1.0  0.8219000000000002  0.4824100000000001  0.04136000000000001  1.0000
  C   C14       1.0  0.33471  0.52553  0.25218  1.0000
  C   C15       1.0  0.5855700000000003  0.20918000000000017  0.6771300000000002  1.0000
  C   C16       1.0  0.54245  0.24749999999999994  0.63582  1.0000
  C   C17       1.0  0.52729  0.18351000000000012  0.5870100000000003  1.0000
  C   C18       1.0  0.55799  0.08403000000000004  0.58207  1.0000
  C   C19       1.0  0.6009900000000001  0.052819999999999964  0.62555  1.0000
  C   C20       1.0  0.4829400000000001  0.2188100000000001  0.5417000000000001  1.0000
  C   C21       1.0  0.52766  0.9159100000000001  0.7525300000000003  1.0000
  C   C22       1.0  0.09391000000000008  0.9683200000000003  0.6769  1.0000
  C   C23       1.0  0.09528000000000014  0.8882500000000001  0.6356200000000002  1.0000
  C   C24       1.0  0.060740000000000065  0.9027700000000001  0.5867600000000001  1.0000
  C   C25       1.0  0.024820000000000085  0.9971500000000003  0.5817800000000001  1.0000
  C   C26       1.0  0.025689999999999966  0.07231  0.62522  1.0000
  C   C27       1.0  0.05938000000000002  0.82193  0.5414  1.0000
  C   C28       1.0  0.22755000000000006  0.33678000000000013  0.7524900000000001  1.0000
  C   C29       1.0  0.29278000000000004  0.9177000000000001  0.8241800000000001  1.0000
  C   C30       1.0  0.25476  0.96171  0.86552  1.0000
  C   C31       1.0  0.31639000000000017  0.9713800000000001  0.9143800000000002  1.0000
  C   C32       1.0  0.41317000000000004  0.9343900000000005  0.9193000000000002  1.0000
  C   C33       1.0  0.44409  0.8905000000000003  0.8757700000000002  1.0000
  C   C34       1.0  0.2813200000000001  0.016820000000000147  0.9596800000000002  1.0000
  C   C35       1.0  0.53328  0.40597  0.82394  1.0000
  C   C36       1.0  0.61201  0.4025700000000001  0.86524  1.0000
  C   C37       1.0  0.5986600000000002  0.44127000000000016  0.9140900000000001  1.0000
  C   C38       1.0  0.5066700000000002  0.48292000000000024  0.9190400000000002  1.0000
  C   C39       1.0  0.43279  0.4839500000000001  0.87558  1.0000
  C   C40       1.0  0.67855  0.4414300000000002  0.9594400000000002  1.0000
  C   C41       1.0  0.91636  0.5321300000000001  0.32384000000000013  1.0000
  C   C42       1.0  0.9612500000000002  0.6111800000000002  0.36512  1.0000
  C   C43       1.0  0.9716  0.59789  0.41399000000000014  1.0000
  C   C44       1.0  0.93474  0.5057600000000002  0.4189900000000001  1.0000
  C   C45       1.0  0.89006  0.4316300000000001  0.37554  1.0000
  C   C46       1.0  0.017160000000000016  0.6779700000000002  0.45936  1.0000
  C   C47       1.0  0.4052  0.29188  0.32424  1.0000
  C   C48       1.0  0.40245000000000003  0.25414000000000003  0.3656500000000001  1.0000
  C   C49       1.0  0.442  0.31614  0.41444  1.0000
  C   C50       1.0  0.484  0.41312  0.41923  1.0000
  C   C51       1.0  0.48443000000000014  0.44377  0.37564  1.0000
  C   C52       1.0  0.44224000000000013  0.28122000000000014  0.4598300000000001  1.0000
  C   C53       1.0  0.7918000000000004  0.9070700000000004  0.8230400000000002  1.0000
  C   C54       1.0  0.7533700000000004  0.90544  0.8643800000000003  1.0000
  C   C55       1.0  0.81687  0.93946  0.9132000000000001  1.0000
  C   C56       1.0  0.9160300000000001  0.9751500000000002  0.9180900000000002  1.0000
  C   C57       1.0  0.94737  0.9746200000000003  0.8745900000000001  1.0000
  C   C58       1.0  0.7814000000000001  0.9406500000000004  0.9585300000000002  1.0000
  C   C59       1.0  0.08575999999999993  0.7748900000000001  0.74729  1.0000
  C   C60       1.0  0.03343000000000014  0.41688000000000014  0.8230900000000002  1.0000
  C   C61       1.0  0.11286000000000017  0.45945000000000025  0.8644800000000002  1.0000
  C   C62       1.0  0.0978400000000001  0.4734500000000001  0.9132600000000002  1.0000
  C   C63       1.0  0.003700000000000017  0.4421200000000001  0.91811  1.0000
  C   C64       1.0  0.9291800000000002  0.3996800000000002  0.8745700000000002  1.0000
  C   C65       1.0  0.17809999999999998  0.5176  0.95864  1.0000
  C   C66       1.0  0.6652800000000001  0.4744800000000001  0.7478300000000001  1.0000
  C   C67       1.0  0.41443000000000013  0.7908300000000003  0.3228700000000001  1.0000
  C   C68       1.0  0.4575500000000001  0.7525100000000002  0.3641800000000001  1.0000
  C   C69       1.0  0.47271  0.8165  0.41299000000000013  1.0000
  C   C70       1.0  0.44201  0.91597  0.41793000000000013  1.0000
  C   C71       1.0  0.3990100000000001  0.9471900000000002  0.37445  1.0000
  C   C72       1.0  0.51705  0.78119  0.45831  1.0000
  C   C73       1.0  0.4723400000000001  0.08409000000000004  0.24748000000000006  1.0000
  C   C74       1.0  0.9060900000000001  0.03169000000000004  0.3231000000000001  1.0000
  C   C75       1.0  0.9047200000000001  0.11176000000000007  0.3643800000000001  1.0000
  C   C76       1.0  0.93926  0.09724000000000001  0.41324  1.0000
  C   C77       1.0  0.97518  0.0028500000000000122  0.41822000000000004  1.0000
  C   C78       1.0  0.97431  0.9277  0.3747800000000001  1.0000
  C   C79       1.0  0.94062  0.17807000000000003  0.4586100000000001  1.0000
  C   C80       1.0  0.77245  0.66322  0.24751000000000006  1.0000
  C   C81       1.0  0.70721  0.08230000000000003  0.17582  1.0000
  C   C82       1.0  0.74523  0.03829  0.13449  1.0000
  C   C83       1.0  0.68361  0.028620000000000013  0.08563000000000003  1.0000
  C   C84       1.0  0.58683  0.06562000000000001  0.08071000000000002  1.0000
  C   C85       1.0  0.55591  0.10951  0.12423  1.0000
  C   C86       1.0  0.71868  0.9831900000000002  0.040320000000000016  1.0000
  C   C87       1.0  0.46672  0.59403  0.17607  1.0000
  C   C88       1.0  0.38799  0.59744  0.13476000000000002  1.0000
  C   C89       1.0  0.40134  0.55873  0.08591  1.0000
  C   C90       1.0  0.49333  0.51709  0.08096000000000003  1.0000
  C   C91       1.0  0.5672100000000001  0.51605  0.12442000000000003  1.0000
  C   C92       1.0  0.32145  0.5585800000000001  0.04056000000000001  1.0000
  C   C93       1.0  0.08364000000000003  0.46787  0.67616  1.0000
  C   C94       1.0  0.03874  0.38882  0.63489  1.0000
  C   C95       1.0  0.028400000000000043  0.40212000000000014  0.5860100000000001  1.0000
  C   C96       1.0  0.06524999999999999  0.49425000000000013  0.58102  1.0000
  C   C97       1.0  0.10994000000000007  0.5683700000000003  0.6244600000000002  1.0000
  C   C98       1.0  0.98284  0.3220300000000001  0.5406400000000001  1.0000
  C   C99       1.0  0.5948  0.7081300000000003  0.6757700000000002  1.0000
  C   C100      1.0  0.59755  0.74587  0.63435  1.0000
  C   C101      1.0  0.5579900000000002  0.6838600000000001  0.5855600000000002  1.0000
  C   C102      1.0  0.5160000000000001  0.5868800000000003  0.5807700000000001  1.0000
  C   C103      1.0  0.5155700000000001  0.5562300000000002  0.6243600000000002  1.0000
  C   C104      1.0  0.5577600000000001  0.7187900000000003  0.5401800000000001  1.0000
  S   S1        1.0  0.97071  0.89308  0.20203  1.0000
  S   S2        1.0  0.22912  0.80849  0.20187  1.0000
  S   S3        1.0  0.80981  0.9714100000000002  0.70166  1.0000
  S   S4        1.0  0.89427  0.23102000000000006  0.70172  1.0000
  S   S5        1.0  0.52938  0.69153  0.79731  1.0000
  S   S6        1.0  0.26975  0.60591  0.79693  1.0000
  S   S7        1.0  0.68952  0.2683  0.29754  1.0000
  S   S8        1.0  0.60355  0.5291400000000002  0.29717000000000005  1.0000
  S   S9        1.0  0.029290000000000073  0.10693000000000014  0.7979700000000002  1.0000
  S   S10       1.0  0.7708800000000001  0.19151000000000007  0.7981400000000001  1.0000
  S   S11       1.0  0.19018  0.028600000000000025  0.29835  1.0000
  S   S12       1.0  0.10573000000000003  0.76898  0.29829000000000006  1.0000
  S   S13       1.0  0.47061000000000014  0.3084800000000001  0.20270000000000005  1.0000
  S   S14       1.0  0.73025  0.39410000000000006  0.20308  1.0000
  S   S15       1.0  0.31048000000000014  0.7317100000000001  0.7024700000000003  1.0000
  S   S16       1.0  0.3964500000000002  0.4708600000000001  0.7028300000000002  1.0000
  N   N1        1.0  0.11284000000000004  0.059290000000000044  0.17238000000000006  1.0000
  N   N2        1.0  0.9725500000000001  0.16243000000000002  0.24731000000000006  1.0000
  N   N3        1.0  0.14919000000000013  0.051120000000000096  0.9969300000000002  1.0000
  N   N4        1.0  0.31854  0.07422000000000001  0.04596  1.0000
  N   N5        1.0  0.057300000000000004  0.61258  0.17237  1.0000
  N   N6        1.0  0.27177000000000007  0.58354  0.24664000000000005  1.0000
  N   N7        1.0  0.8475500000000002  0.4456500000000001  0.9969700000000001  1.0000
  N   N8        1.0  0.72638  0.47177000000000013  0.04577000000000001  1.0000
  N   N9        1.0  0.6143900000000001  0.11347000000000007  0.6725200000000002  1.0000
  N   N10       1.0  0.5859000000000001  0.9731600000000002  0.7469900000000002  1.0000
  N   N11       1.0  0.4464600000000002  0.1489000000000001  0.4972600000000001  1.0000
  N   N12       1.0  0.47199  0.31899  0.54615  1.0000
  N   N13       1.0  0.06008000000000005  0.05924000000000008  0.67224  1.0000
  N   N14       1.0  0.16344000000000014  0.2743400000000001  0.7469200000000003  1.0000
  N   N15       1.0  0.05181000000000005  0.84746  0.49697000000000013  1.0000
  N   N16       1.0  0.0736  0.72598  0.5457  1.0000
  N   N17       1.0  0.3858200000000001  0.8824600000000001  0.8287700000000002  1.0000
  N   N18       1.0  0.35092  0.053300000000000014  0.00412  1.0000
  N   N19       1.0  0.18158000000000013  0.028780000000000115  0.9551200000000002  1.0000
  N   N20       1.0  0.4448000000000001  0.44581000000000015  0.8285700000000003  1.0000
  N   N21       1.0  0.65274  0.4501700000000001  0.00388  1.0000
  N   N22       1.0  0.77395  0.4255700000000001  0.95505  1.0000
  N   N23       1.0  0.88107  0.44349  0.32851  1.0000
  N   N24       1.0  0.052860000000000004  0.65208  0.50374  1.0000
  N   N25       1.0  0.02957000000000006  0.77357  0.4550300000000001  1.0000
  N   N26       1.0  0.44529  0.38502  0.3287200000000001  1.0000
  N   N27       1.0  0.4506000000000001  0.3512500000000001  0.50429  1.0000
  N   N28       1.0  0.42653000000000024  0.18110000000000007  0.45539000000000013  1.0000
  N   N29       1.0  0.8871600000000001  0.9407200000000001  0.8276200000000002  1.0000
  N   N30       1.0  0.02745000000000005  0.83758  0.7527000000000001  1.0000
  N   N31       1.0  0.85081  0.9488900000000002  0.00308  1.0000
  N   N32       1.0  0.68146  0.9257900000000002  0.95405  1.0000
  N   N33       1.0  0.9427  0.38743  0.82763  1.0000
  N   N34       1.0  0.7282300000000002  0.4164700000000001  0.75336  1.0000
  N   N35       1.0  0.15244000000000002  0.55435  0.00304  1.0000
  N   N36       1.0  0.27361000000000013  0.52824  0.95423  1.0000
  N   N37       1.0  0.3856  0.8865300000000002  0.3274900000000001  1.0000
  N   N38       1.0  0.4141  0.02685000000000003  0.2530200000000001  1.0000
  N   N39       1.0  0.5535400000000001  0.8511000000000001  0.5027500000000001  1.0000
  N   N40       1.0  0.5280100000000001  0.68102  0.4538500000000001  1.0000
  N   N41       1.0  0.9399200000000002  0.9407600000000003  0.3277700000000001  1.0000
  N   N42       1.0  0.8365600000000002  0.7256700000000001  0.25309  1.0000
  N   N43       1.0  0.94819  0.15254  0.50304  1.0000
  N   N44       1.0  0.9263900000000004  0.2740200000000001  0.4543000000000001  1.0000
  N   N45       1.0  0.61418  0.11755  0.17123  1.0000
  N   N46       1.0  0.64908  0.9467  0.99589  1.0000
  N   N47       1.0  0.81842  0.9712200000000001  0.04489000000000001  1.0000
  N   N48       1.0  0.55519  0.5542  0.17143000000000003  1.0000
  N   N49       1.0  0.34726  0.5498400000000002  0.9961300000000002  1.0000
  N   N50       1.0  0.22605000000000006  0.57443  0.04495  1.0000
  N   N51       1.0  0.1189300000000001  0.5565200000000002  0.6714900000000003  1.0000
  N   N52       1.0  0.94714  0.34793  0.4962600000000001  1.0000
  N   N53       1.0  0.97042  0.22643  0.54497  1.0000
  N   N54       1.0  0.5547100000000003  0.6149800000000002  0.6712900000000003  1.0000
  N   N55       1.0  0.5494000000000001  0.6487600000000001  0.4957100000000001  1.0000
  N   N56       1.0  0.5734600000000001  0.81891  0.5446100000000001  1.0000
