data_image0
_chemical_formula_structural       Zn8H104C136N16O32
_chemical_formula_sum              "Zn8 H104 C136 N16 O32"
_cell_length_a       14.11827
_cell_length_b       21.35685
_cell_length_c       25.691360000000003
_cell_angle_alpha    76.2982
_cell_angle_beta     73.9487
_cell_angle_gamma    70.70252

_space_group_name_H-M_alt    "P 1"
_space_group_IT_number       1

loop_
  _space_group_symop_operation_xyz
  'x, y, z'

loop_
  _atom_site_type_symbol
  _atom_site_label
  _atom_site_symmetry_multiplicity
  _atom_site_fract_x
  _atom_site_fract_y
  _atom_site_fract_z
  _atom_site_occupancy
  Zn  Zn1       1.0  0.51497  0.96868  0.05177  1.0000
  Zn  Zn2       1.0  0.5492599999999999  0.86885  0.31827  1.0000
  Zn  Zn3       1.0  0.53536  0.53168  0.44828  1.0000
  Zn  Zn4       1.0  0.7354400000000004  0.63034  0.1819  1.0000
  Zn  Zn5       1.0  0.48502999999999996  0.03133000000000001  0.94823  1.0000
  Zn  Zn6       1.0  0.45074  0.13115  0.68173  1.0000
  Zn  Zn7       1.0  0.46463999999999994  0.46832000000000007  0.55172  1.0000
  Zn  Zn8       1.0  0.26456000000000024  0.36966  0.8181  1.0000
  H   H1        1.0  0.6138700000000004  0.9954  0.13093  1.0000
  H   H2        1.0  0.68127  0.9115300000000001  0.12141  1.0000
  H   H3        1.0  0.59044  0.83385  0.12189  1.0000
  H   H4        1.0  0.45489  0.8570000000000001  0.14325  1.0000
  H   H5        1.0  0.3601599999999999  0.9712900000000002  0.15885  1.0000
  H   H6        1.0  0.42957  0.02578  0.16073  1.0000
  H   H7        1.0  0.6853900000000004  0.8859100000000001  0.21561  1.0000
  H   H8        1.0  0.6016400000000002  0.96642  0.22729  1.0000
  H   H9        1.0  0.47737999999999997  0.8114  0.23444  1.0000
  H   H10       1.0  0.6120500000000002  0.7993300000000001  0.21256000000000003  1.0000
  H   H11       1.0  0.41737  0.98334  0.2561  1.0000
  H   H12       1.0  0.3662099999999999  0.9200000000000002  0.25117  1.0000
  H   H13       1.0  0.7203100000000004  0.75935  0.022570000000000003  1.0000
  H   H14       1.0  0.6935300000000002  0.88167  0.86463  1.0000
  H   H15       1.0  0.79533  0.012310000000000001  0.04713  1.0000
  H   H16       1.0  0.7287300000000001  0.13039  0.89401  1.0000
  H   H17       1.0  0.8242600000000003  0.7901300000000001  0.81647  1.0000
  H   H18       1.0  0.95023  0.051590000000000004  0.03313  1.0000
  H   H19       1.0  0.8669100000000001  0.62994  0.01271  1.0000
  H   H20       1.0  0.8683200000000001  0.20796000000000006  0.84249  1.0000
  H   H21       1.0  0.029959999999999987  0.52529  0.96799  1.0000
  H   H22       1.0  0.9712  0.67456  0.7898500000000002  1.0000
  H   H23       1.0  0.11157  0.11111999999999997  0.9908400000000002  1.0000
  H   H24       1.0  0.03586999999999992  0.26302000000000003  0.81613  1.0000
  H   H25       1.0  0.10148999999999994  0.5619600000000001  0.79137  1.0000
  H   H26       1.0  0.22265000000000004  0.18362  0.93758  1.0000
  H   H27       1.0  0.7404500000000005  0.50452  0.36909000000000003  1.0000
  H   H28       1.0  0.71454  0.5884  0.37851  1.0000
  H   H29       1.0  0.54628  0.6660000000000001  0.37848  1.0000
  H   H30       1.0  0.45508  0.64261  0.35753000000000007  1.0000
  H   H31       1.0  0.49021  0.52835  0.34213  1.0000
  H   H32       1.0  0.61602  0.4739900000000001  0.33986  1.0000
  H   H33       1.0  0.7869099999999999  0.61402  0.28413  1.0000
  H   H34       1.0  0.7951799999999999  0.5333700000000001  0.27271  1.0000
  H   H35       1.0  0.52267  0.68832  0.26617  1.0000
  H   H36       1.0  0.6237200000000002  0.70046  0.28767  1.0000
  H   H37       1.0  0.65615  0.51638  0.24448  1.0000
  H   H38       1.0  0.53668  0.57972  0.24969  1.0000
  H   H39       1.0  0.5024700000000001  0.7407399999999998  0.47759  1.0000
  H   H40       1.0  0.43964  0.61821  0.63538  1.0000
  H   H41       1.0  0.8541000000000002  0.48761000000000004  0.45292  1.0000
  H   H42       1.0  0.7526500000000005  0.36916  0.60603  1.0000
  H   H43       1.0  0.43081999999999987  0.70948  0.68365  1.0000
  H   H44       1.0  0.03444000000000002  0.4489  0.46672  1.0000
  H   H45       1.0  0.50961  0.8702000000000001  0.48758  1.0000
  H   H46       1.0  0.9181000000000002  0.2921099999999999  0.6574  1.0000
  H   H47       1.0  0.5227800000000001  0.9750200000000001  0.53244  1.0000
  H   H48       1.0  0.43543000000000026  0.82514  0.7104100000000001  1.0000
  H   H49       1.0  0.21305000000000007  0.38928  0.50875  1.0000
  H   H50       1.0  0.11399000000000006  0.23759  0.68369  1.0000
  H   H51       1.0  0.45430000000000004  0.93774  0.7090199999999999  1.0000
  H   H52       1.0  0.34315000000000023  0.31736000000000003  0.56217  1.0000
  H   H53       1.0  0.38613000000000003  0.00459999999999999  0.86907  1.0000
  H   H54       1.0  0.31873  0.08847  0.87859  1.0000
  H   H55       1.0  0.40956  0.16615000000000002  0.8781100000000001  1.0000
  H   H56       1.0  0.5451100000000001  0.14300000000000002  0.8567499999999999  1.0000
  H   H57       1.0  0.6398400000000003  0.02871000000000002  0.8411500000000001  1.0000
  H   H58       1.0  0.57043  0.9742200000000001  0.83927  1.0000
  H   H59       1.0  0.31461  0.11408999999999998  0.78439  1.0000
  H   H60       1.0  0.3983600000000002  0.03357999999999999  0.77271  1.0000
  H   H61       1.0  0.52262  0.18861  0.76556  1.0000
  H   H62       1.0  0.3879500000000001  0.20067  0.78744  1.0000
  H   H63       1.0  0.5826300000000001  0.016669999999999983  0.7439  1.0000
  H   H64       1.0  0.6337899999999999  0.08000000000000003  0.74882  1.0000
  H   H65       1.0  0.2796900000000001  0.24066000000000004  0.97743  1.0000
  H   H66       1.0  0.30647000000000013  0.11833000000000003  0.13537  1.0000
  H   H67       1.0  0.20466999999999996  0.9876900000000001  0.95287  1.0000
  H   H68       1.0  0.27127  0.86961  0.10599  1.0000
  H   H69       1.0  0.17573999999999995  0.20987  0.18353000000000003  1.0000
  H   H70       1.0  0.04976999999999997  0.94841  0.96687  1.0000
  H   H71       1.0  0.13309  0.37006  0.98729  1.0000
  H   H72       1.0  0.13168000000000005  0.79204  0.15751  1.0000
  H   H73       1.0  0.9700400000000001  0.4747100000000001  0.032  1.0000
  H   H74       1.0  0.028800000000000027  0.32544  0.21015  1.0000
  H   H75       1.0  0.8884299999999999  0.88889  0.00916  1.0000
  H   H76       1.0  0.9641300000000002  0.73698  0.18387  1.0000
  H   H77       1.0  0.8985100000000001  0.43804  0.20863  1.0000
  H   H78       1.0  0.77735  0.81639  0.06242  1.0000
  H   H79       1.0  0.25955  0.49548  0.63091  1.0000
  H   H80       1.0  0.28546  0.4116  0.62149  1.0000
  H   H81       1.0  0.45372  0.334  0.62152  1.0000
  H   H82       1.0  0.5449200000000001  0.35739  0.64247  1.0000
  H   H83       1.0  0.50979  0.4716500000000001  0.65787  1.0000
  H   H84       1.0  0.38398000000000004  0.52601  0.66014  1.0000
  H   H85       1.0  0.21308999999999997  0.38598999999999994  0.71587  1.0000
  H   H86       1.0  0.20481999999999997  0.46663  0.72729  1.0000
  H   H87       1.0  0.47733  0.31169000000000013  0.73383  1.0000
  H   H88       1.0  0.37628000000000017  0.29954000000000003  0.71233  1.0000
  H   H89       1.0  0.34385000000000016  0.48362  0.75552  1.0000
  H   H90       1.0  0.46332  0.42028000000000004  0.7503100000000001  1.0000
  H   H91       1.0  0.49753  0.25926  0.52241  1.0000
  H   H92       1.0  0.56036  0.38179  0.36462000000000006  1.0000
  H   H93       1.0  0.14590000000000006  0.5123899999999999  0.54708  1.0000
  H   H94       1.0  0.24735000000000001  0.63085  0.39396000000000003  1.0000
  H   H95       1.0  0.5691800000000004  0.29052  0.31635  1.0000
  H   H96       1.0  0.9655600000000004  0.55111  0.53328  1.0000
  H   H97       1.0  0.4903900000000001  0.12979999999999997  0.51241  1.0000
  H   H98       1.0  0.08189999999999999  0.7078900000000001  0.34260000000000007  1.0000
  H   H99       1.0  0.47722000000000003  0.024979999999999995  0.46756  1.0000
  H   H100      1.0  0.56457  0.17486000000000002  0.28959  1.0000
  H   H101      1.0  0.7869500000000005  0.61072  0.49124999999999996  1.0000
  H   H102      1.0  0.8860100000000003  0.7624200000000002  0.31631  1.0000
  H   H103      1.0  0.5457  0.06227  0.29098  1.0000
  H   H104      1.0  0.6568499999999999  0.68264  0.43783  1.0000
  C   C1        1.0  0.6139300000000004  0.94293  0.14607  1.0000
  C   C2        1.0  0.52533  0.8616000000000001  0.15017  1.0000
  C   C3        1.0  0.4277500000000001  0.97335  0.17081  1.0000
  C   C4        1.0  0.6245200000000002  0.88375  0.9716500000000001  1.0000
  C   C5        1.0  0.6629100000000001  0.043570000000000005  0.9806  1.0000
  C   C6        1.0  0.6135100000000001  0.9230500000000001  0.20794  1.0000
  C   C7        1.0  0.53682  0.8356400000000002  0.21043  1.0000
  C   C8        1.0  0.42734999999999995  0.9445500000000001  0.23215000000000002  1.0000
  C   C9        1.0  0.7002100000000001  0.82586  0.9457  1.0000
  C   C10       1.0  0.7545299999999999  0.06882999999999997  0.97131  1.0000
  C   C11       1.0  0.7437000000000002  0.7657200000000001  0.97804  1.0000
  C   C12       1.0  0.7291500000000003  0.8341100000000001  0.88768  1.0000
  C   C13       1.0  0.81658  0.046990000000000004  0.010620000000000001  1.0000
  C   C14       1.0  0.7778100000000001  0.11375000000000002  0.92352  1.0000
  C   C15       1.0  0.81802  0.7149600000000002  0.9511  1.0000
  C   C16       1.0  0.8020400000000003  0.7835100000000003  0.86102  1.0000
  C   C17       1.0  0.90276  0.06882000000000002  0.00279  1.0000
  C   C18       1.0  0.8640000000000003  0.13562999999999997  0.91602  1.0000
  C   C19       1.0  0.8475500000000004  0.7234700000000001  0.89253  1.0000
  C   C20       1.0  0.9282500000000001  0.11317999999999998  0.9548600000000002  1.0000
  C   C21       1.0  0.9416900000000004  0.62045  0.92915  1.0000
  C   C22       1.0  0.92581  0.66334  0.87855  1.0000
  C   C23       1.0  0.009529999999999985  0.14535999999999996  0.93385  1.0000
  C   C24       1.0  0.9906000000000003  0.18736999999999998  0.8833500000000001  1.0000
  C   C25       1.0  0.015080000000000031  0.5577399999999999  0.92993  1.0000
  C   C26       1.0  0.98354  0.6423800000000001  0.8285400000000002  1.0000
  C   C27       1.0  0.09490999999999997  0.14331000000000005  0.95283  1.0000
  C   C28       1.0  0.05161999999999996  0.22877999999999998  0.85344  1.0000
  C   C29       1.0  0.07168000000000009  0.53742  0.87962  1.0000
  C   C30       1.0  0.05605000000000002  0.57985  0.82934  1.0000
  C   C31       1.0  0.15726999999999997  0.18395000000000003  0.9228400000000001  1.0000
  C   C32       1.0  0.1347899999999999  0.22729000000000005  0.87409  1.0000
  C   C33       1.0  0.14587000000000008  0.46899  0.87884  1.0000
  C   C34       1.0  0.19218999999999992  0.27690000000000003  0.84628  1.0000
  C   C35       1.0  0.7031200000000003  0.55697  0.3539900000000001  1.0000
  C   C36       1.0  0.53707  0.63822  0.35029  1.0000
  C   C37       1.0  0.57181  0.5264  0.32981  1.0000
  C   C38       1.0  0.48135  0.6158  0.52844  1.0000
  C   C39       1.0  0.6866700000000003  0.45538  0.51943  1.0000
  C   C40       1.0  0.7444700000000004  0.57681  0.29206  1.0000
  C   C41       1.0  0.58259  0.6641500000000001  0.28995  1.0000
  C   C42       1.0  0.60355  0.55519  0.26847  1.0000
  C   C43       1.0  0.47216999999999987  0.6739700000000001  0.55437  1.0000
  C   C44       1.0  0.7941800000000002  0.4308100000000001  0.5287  1.0000
  C   C45       1.0  0.48757  0.7342900000000001  0.52211  1.0000
  C   C46       1.0  0.45097  0.66576  0.61238  1.0000
  C   C47       1.0  0.87361  0.45299000000000006  0.4894  1.0000
  C   C48       1.0  0.8145399999999999  0.38598999999999994  0.57649  1.0000
  C   C49       1.0  0.48401  0.7850599999999999  0.5491  1.0000
  C   C50       1.0  0.44651000000000024  0.71629  0.6391  1.0000
  C   C51       1.0  0.9738299999999999  0.43148  0.49706000000000006  1.0000
  C   C52       1.0  0.91511  0.36443  0.58385  1.0000
  C   C53       1.0  0.46359000000000034  0.7764  0.60767  1.0000
  C   C54       1.0  0.9957300000000003  0.38709000000000005  0.54496  1.0000
  C   C55       1.0  0.4912799999999999  0.8795300000000001  0.57115  1.0000
  C   C56       1.0  0.46782  0.83648  0.62171  1.0000
  C   C57       1.0  0.08810999999999998  0.35513  0.56594  1.0000
  C   C58       1.0  0.060620000000000014  0.3130299999999999  0.61644  1.0000
  C   C59       1.0  0.5024699999999999  0.9423100000000002  0.57043  1.0000
  C   C60       1.0  0.4544000000000001  0.85738  0.67173  1.0000
  C   C61       1.0  0.1904699999999999  0.3572400000000001  0.54689  1.0000
  C   C62       1.0  0.13295999999999997  0.27189000000000013  0.64641  1.0000
  C   C63       1.0  0.4884799999999999  0.9625000000000001  0.62075  1.0000
  C   C64       1.0  0.46494999999999986  0.91997  0.67099  1.0000
  C   C65       1.0  0.2633300000000002  0.3169199999999999  0.57697  1.0000
  C   C66       1.0  0.23528999999999997  0.27371  0.62584  1.0000
  C   C67       1.0  0.4935  0.030980000000000004  0.62139  1.0000
  C   C68       1.0  0.3141900000000002  0.22429000000000002  0.65385  1.0000
  C   C69       1.0  0.38606999999999997  0.05706999999999999  0.85393  1.0000
  C   C70       1.0  0.47467000000000004  0.13840000000000002  0.8498299999999999  1.0000
  C   C71       1.0  0.5722500000000003  0.026649999999999972  0.8291900000000001  1.0000
  C   C72       1.0  0.3754800000000001  0.11625  0.02835  1.0000
  C   C73       1.0  0.33709000000000017  0.9564400000000001  0.0194  1.0000
  C   C74       1.0  0.38649000000000006  0.07695000000000002  0.79206  1.0000
  C   C75       1.0  0.4631799999999999  0.16436000000000006  0.7895700000000001  1.0000
  C   C76       1.0  0.5726499999999999  0.05544999999999997  0.7678500000000001  1.0000
  C   C77       1.0  0.2997900000000001  0.17414  0.0543  1.0000
  C   C78       1.0  0.24547000000000005  0.93117  0.02869  1.0000
  C   C79       1.0  0.2563  0.23428  0.02196  1.0000
  C   C80       1.0  0.27085  0.16589  0.11232000000000002  1.0000
  C   C81       1.0  0.18342000000000003  0.95301  0.98938  1.0000
  C   C82       1.0  0.22219  0.8862500000000001  0.07648  1.0000
  C   C83       1.0  0.18198000000000011  0.28505  0.0489  1.0000
  C   C84       1.0  0.19795999999999997  0.21649  0.13898  1.0000
  C   C85       1.0  0.09723999999999992  0.9311800000000001  0.9972  1.0000
  C   C86       1.0  0.13600000000000007  0.86437  0.08398  1.0000
  C   C87       1.0  0.15245000000000003  0.27653  0.10747  1.0000
  C   C88       1.0  0.07175  0.88682  0.045140000000000007  1.0000
  C   C89       1.0  0.05830999999999999  0.37955  0.07085  1.0000
  C   C90       1.0  0.07419  0.33666  0.12145000000000002  1.0000
  C   C91       1.0  0.9904700000000003  0.8546400000000001  0.06615  1.0000
  C   C92       1.0  0.009399999999999955  0.8126300000000001  0.11665  1.0000
  C   C93       1.0  0.98492  0.44226000000000004  0.07007  1.0000
  C   C94       1.0  0.016459999999999995  0.35763  0.17146  1.0000
  C   C95       1.0  0.9050900000000001  0.8566900000000001  0.04717  1.0000
  C   C96       1.0  0.94838  0.77122  0.14656  1.0000
  C   C97       1.0  0.9283199999999999  0.46258  0.12038  1.0000
  C   C98       1.0  0.9439500000000003  0.42015  0.17066  1.0000
  C   C99       1.0  0.8427299999999999  0.8160600000000001  0.07716  1.0000
  C   C100      1.0  0.8652100000000003  0.7727099999999999  0.12591  1.0000
  C   C101      1.0  0.8541299999999998  0.53102  0.12116  1.0000
  C   C102      1.0  0.8078100000000004  0.7231  0.15372  1.0000
  C   C103      1.0  0.29688000000000003  0.44303000000000003  0.64601  1.0000
  C   C104      1.0  0.46293  0.36178  0.6497  1.0000
  C   C105      1.0  0.4281899999999999  0.47360000000000013  0.67019  1.0000
  C   C106      1.0  0.51865  0.38420000000000004  0.47156  1.0000
  C   C107      1.0  0.31333  0.54462  0.48057000000000005  1.0000
  C   C108      1.0  0.25553  0.42319000000000007  0.70794  1.0000
  C   C109      1.0  0.41741  0.33585  0.7100500000000001  1.0000
  C   C110      1.0  0.3964499999999999  0.44481  0.73153  1.0000
  C   C111      1.0  0.52783  0.32603  0.44563  1.0000
  C   C112      1.0  0.20581999999999998  0.56919  0.47129999999999994  1.0000
  C   C113      1.0  0.51243  0.26571000000000006  0.47789  1.0000
  C   C114      1.0  0.54903  0.33425  0.38762  1.0000
  C   C115      1.0  0.12638999999999995  0.54701  0.5106  1.0000
  C   C116      1.0  0.18545999999999996  0.6140100000000001  0.42351  1.0000
  C   C117      1.0  0.5159900000000001  0.21494  0.4509  1.0000
  C   C118      1.0  0.55349  0.28371  0.36090000000000005  1.0000
  C   C119      1.0  0.02616999999999995  0.56852  0.50293  1.0000
  C   C120      1.0  0.08489000000000003  0.63557  0.41615  1.0000
  C   C121      1.0  0.53641  0.2236  0.39233000000000007  1.0000
  C   C122      1.0  0.004269999999999913  0.61291  0.45504000000000006  1.0000
  C   C123      1.0  0.5087199999999998  0.12047  0.42885000000000006  1.0000
  C   C124      1.0  0.53218  0.16352  0.37829  1.0000
  C   C125      1.0  0.91189  0.64488  0.43406  1.0000
  C   C126      1.0  0.9393799999999999  0.68697  0.38356  1.0000
  C   C127      1.0  0.49753000000000003  0.05769  0.42957  1.0000
  C   C128      1.0  0.5456000000000002  0.14261999999999997  0.32827  1.0000
  C   C129      1.0  0.80953  0.64276  0.45311  1.0000
  C   C130      1.0  0.86704  0.72811  0.35359000000000007  1.0000
  C   C131      1.0  0.51152  0.037500000000000006  0.37925  1.0000
  C   C132      1.0  0.5350500000000001  0.08003000000000002  0.32901  1.0000
  C   C133      1.0  0.7366700000000002  0.68308  0.42303  1.0000
  C   C134      1.0  0.7647099999999999  0.7262900000000001  0.37416  1.0000
  C   C135      1.0  0.5065  0.96902  0.37861  1.0000
  C   C136      1.0  0.6858100000000005  0.7757100000000001  0.34615  1.0000
  N   N1        1.0  0.52081  0.93424  0.13549  1.0000
  N   N2        1.0  0.52731  0.89261  0.23744  1.0000
  N   N3        1.0  0.87588  0.65238  0.9722500000000001  1.0000
  N   N4        1.0  0.9039899999999996  0.17955000000000004  0.8729  1.0000
  N   N5        1.0  0.5906999999999999  0.5656300000000001  0.36483  1.0000
  N   N6        1.0  0.6570100000000004  0.60714  0.26288  1.0000
  N   N7        1.0  0.5003999999999998  0.84773  0.52801  1.0000
  N   N8        1.0  0.9557700000000005  0.32058999999999993  0.62695  1.0000
  N   N9        1.0  0.4791900000000002  0.06575999999999999  0.86451  1.0000
  N   N10       1.0  0.47269  0.1074  0.76256  1.0000
  N   N11       1.0  0.12412  0.34762  0.027750000000000004  1.0000
  N   N12       1.0  0.09601  0.82045  0.1271  1.0000
  N   N13       1.0  0.4093  0.43437000000000003  0.63517  1.0000
  N   N14       1.0  0.3429899999999999  0.39286000000000004  0.7371199999999999  1.0000
  N   N15       1.0  0.49959999999999993  0.15227000000000004  0.47199  1.0000
  N   N16       1.0  0.04423000000000002  0.67941  0.37305  1.0000
  O   O1        1.0  0.60955  0.88053  0.02355  1.0000
  O   O2        1.0  0.64113  0.006359999999999999  0.026310000000000004  1.0000
  O   O3        1.0  0.41993000000000014  0.06608  0.060270000000000004  1.0000
  O   O4        1.0  0.38586999999999994  0.93937  0.05802  1.0000
  O   O5        1.0  0.5013599999999998  0.9595000000000002  0.33058000000000004  1.0000
  O   O6        1.0  0.5901600000000001  0.77525  0.3621400000000001  1.0000
  O   O7        1.0  0.1465100000000001  0.4233100000000001  0.91942  1.0000
  O   O8        1.0  0.16119999999999995  0.32309000000000004  0.80762  1.0000
  O   O9        1.0  0.51453  0.61929  0.47648  1.0000
  O   O10       1.0  0.6731799999999999  0.49241  0.47372  1.0000
  O   O11       1.0  0.5431800000000001  0.43498000000000003  0.43969  1.0000
  O   O12       1.0  0.3834  0.56221  0.44196  1.0000
  O   O13       1.0  0.7906600000000004  0.53983  0.16921  1.0000
  O   O14       1.0  0.7279700000000001  0.72356  0.13761  1.0000
  O   O15       1.0  0.49040000000000006  0.07621  0.58049  1.0000
  O   O16       1.0  0.29026999999999975  0.17812000000000003  0.69245  1.0000
  O   O17       1.0  0.39045  0.11947  0.97645  1.0000
  O   O18       1.0  0.3588700000000001  0.9936399999999997  0.9736900000000002  1.0000
  O   O19       1.0  0.58007  0.9339300000000001  0.9397300000000001  1.0000
  O   O20       1.0  0.6141300000000001  0.06064000000000001  0.94198  1.0000
  O   O21       1.0  0.49864000000000025  0.04050000000000001  0.66942  1.0000
  O   O22       1.0  0.40984000000000004  0.22475  0.63786  1.0000
  O   O23       1.0  0.8534899999999999  0.57669  0.08058  1.0000
  O   O24       1.0  0.8388  0.67692  0.19238  1.0000
  O   O25       1.0  0.48546999999999996  0.38071000000000005  0.52352  1.0000
  O   O26       1.0  0.32682  0.50759  0.52628  1.0000
  O   O27       1.0  0.45682  0.56502  0.56031  1.0000
  O   O28       1.0  0.6166  0.43779000000000007  0.55804  1.0000
  O   O29       1.0  0.20933999999999994  0.4601700000000001  0.8307900000000001  1.0000
  O   O30       1.0  0.27202999999999994  0.27645000000000003  0.86239  1.0000
  O   O31       1.0  0.5096000000000002  0.9238  0.41951  1.0000
  O   O32       1.0  0.7097300000000001  0.8218800000000002  0.30755  1.0000
