data_image0
_chemical_formula_structural       Cu12H104C184N8O48
_chemical_formula_sum              "Cu12 H104 C184 N8 O48"
_cell_length_a       19.55156
_cell_length_b       19.546529999999997
_cell_length_c       33.6287
_cell_angle_alpha    106.74389000000001
_cell_angle_beta     106.75038
_cell_angle_gamma    90.01382

_symmetry_space_group_name_H-M    'P 1'
_symmetry_Int_Tables_number       1

loop_
  _symmetry_equiv_pos_as_xyz
  'x,y,z'

loop_
  _atom_site_type_symbol
  _atom_site_label
  _atom_site_symmetry_multiplicity
  _atom_site_fract_x
  _atom_site_fract_y
  _atom_site_fract_z
  _atom_site_occupancy
  Cu  Cu1       1.0  0.9974800000000001  0.06323999999999987  0.9956999999999998  1.0000
  Cu  Cu2       1.0  0.9974899999999999  0.43262999999999996  0.9957599999999998  1.0000
  Cu  Cu3       1.0  0.43246000000000007  0.9973899999999998  0.4953999999999999  1.0000
  Cu  Cu4       1.0  0.06305000000000002  0.99723  0.49525  1.0000
  Cu  Cu5       1.0  0.002509999999999999  0.56736  0.004239999999999998  1.0000
  Cu  Cu6       1.0  0.0025199999999999997  0.93675  0.004299999999999999  1.0000
  Cu  Cu7       1.0  0.5675399999999998  0.002609999999999875  0.5045999999999998  1.0000
  Cu  Cu8       1.0  0.93695  0.0027599999999998897  0.5047499999999998  1.0000
  Cu  Cu9       1.0  0.6057499999999999  0.35568999999999995  0.21005999999999994  1.0000
  Cu  Cu10      1.0  0.35592  0.60603  0.71058  1.0000
  Cu  Cu11      1.0  0.39425  0.6443  0.7899399999999998  1.0000
  Cu  Cu12      1.0  0.64408  0.39397  0.28942  1.0000
  H   H1        1.0  0.41663  0.21293  0.18275  1.0000
  H   H2        1.0  0.29311  0.21917999999999999  0.15882  1.0000
  H   H3        1.0  0.18654  0.1713  0.09345  1.0000
  H   H4        1.0  0.19828  0.96354  0.11253999999999997  1.0000
  H   H5        1.0  0.30539  0.010290000000000007  0.17772  1.0000
  H   H6        1.0  0.10218999999999999  0.18093  0.99242  1.0000
  H   H7        1.0  0.7664800000000002  0.47087  0.18368999999999994  1.0000
  H   H8        1.0  0.86578  0.44042000000000003  0.15941  1.0000
  H   H9        1.0  0.9067  0.4227  0.09361999999999997  1.0000
  H   H10       1.0  0.91438  0.64908  0.11209  1.0000
  H   H11       1.0  0.8726100000000001  0.66785  0.17770999999999995  1.0000
  H   H12       1.0  0.89032  0.31158  0.99261  1.0000
  H   H13       1.0  0.47042  0.41685  0.68335  1.0000
  H   H14       1.0  0.4402599999999999  0.29351999999999984  0.6592999999999998  1.0000
  H   H15       1.0  0.42251  0.1871  0.59377  1.0000
  H   H16       1.0  0.6489299999999998  0.19785999999999987  0.6122199999999998  1.0000
  H   H17       1.0  0.66767  0.30484  0.67755  1.0000
  H   H18       1.0  0.31162999999999996  0.10232999999999993  0.4926399999999999  1.0000
  H   H19       1.0  0.21284999999999982  0.7660999999999998  0.6831499999999998  1.0000
  H   H20       1.0  0.21903000000000006  0.8657600000000001  0.65891  1.0000
  H   H21       1.0  0.1710099999999999  0.90693  0.5932599999999998  1.0000
  H   H22       1.0  0.9633499999999999  0.9142400000000002  0.6123599999999998  1.0000
  H   H23       1.0  0.010260000000000023  0.87229  0.6778  1.0000
  H   H24       1.0  0.1809  0.89016  0.4923899999999999  1.0000
  H   H25       1.0  0.5832  0.52955  0.8166899999999998  1.0000
  H   H26       1.0  0.70648  0.55975  0.8407  1.0000
  H   H27       1.0  0.8128899999999999  0.5774299999999999  0.9062299999999998  1.0000
  H   H28       1.0  0.8021000000000001  0.3509799999999999  0.8877499999999998  1.0000
  H   H29       1.0  0.6950899999999999  0.33226999999999995  0.8223999999999998  1.0000
  H   H30       1.0  0.8976800000000001  0.68836  0.0073599999999999985  1.0000
  H   H31       1.0  0.23387999999999995  0.78718  0.81689  1.0000
  H   H32       1.0  0.13425999999999988  0.7809399999999999  0.8410899999999998  1.0000
  H   H33       1.0  0.09305999999999988  0.82905  0.9067299999999998  1.0000
  H   H34       1.0  0.08572999999999988  0.03667999999999995  0.8875799999999998  1.0000
  H   H35       1.0  0.12777000000000002  0.98976  0.82214  1.0000
  H   H36       1.0  0.10980999999999999  0.8191  0.007609999999999998  1.0000
  H   H37       1.0  0.52915  0.23354  0.31628  1.0000
  H   H38       1.0  0.55956  0.1342  0.34059  1.0000
  H   H39       1.0  0.57739  0.09330999999999995  0.40638999999999986  1.0000
  H   H40       1.0  0.351  0.08563999999999995  0.3879499999999999  1.0000
  H   H41       1.0  0.33223  0.12734999999999996  0.3223499999999999  1.0000
  H   H42       1.0  0.68842  0.10969999999999999  0.50739  1.0000
  H   H43       1.0  0.78706  0.58336  0.31722  1.0000
  H   H44       1.0  0.78083  0.70688  0.34116  1.0000
  H   H45       1.0  0.82865  0.81345  0.4065499999999999  1.0000
  H   H46       1.0  0.0364  0.80175  0.3875  1.0000
  H   H47       1.0  0.98972  0.6946899999999999  0.3223199999999999  1.0000
  H   H48       1.0  0.81907  0.89779  0.50758  1.0000
  H   H49       1.0  0.58337  0.7870599999999998  0.8172499999999998  1.0000
  H   H50       1.0  0.70689  0.7808199999999998  0.8411799999999998  1.0000
  H   H51       1.0  0.81346  0.8287000000000001  0.90655  1.0000
  H   H52       1.0  0.80172  0.03644999999999995  0.8874599999999999  1.0000
  H   H53       1.0  0.6946099999999997  0.9897100000000001  0.8222799999999998  1.0000
  H   H54       1.0  0.89781  0.81907  0.007579999999999998  1.0000
  H   H55       1.0  0.23351999999999987  0.5291299999999998  0.8163099999999998  1.0000
  H   H56       1.0  0.1342199999999999  0.5595799999999999  0.8405899999999997  1.0000
  H   H57       1.0  0.09329999999999997  0.5773000000000001  0.9063799999999999  1.0000
  H   H58       1.0  0.08561999999999992  0.35091999999999995  0.8878999999999998  1.0000
  H   H59       1.0  0.12739  0.33215  0.82229  1.0000
  H   H60       1.0  0.10968  0.68842  0.007389999999999998  1.0000
  H   H61       1.0  0.52958  0.5831499999999998  0.31665  1.0000
  H   H62       1.0  0.55974  0.7064799999999999  0.3406999999999999  1.0000
  H   H63       1.0  0.57749  0.8129  0.40623  1.0000
  H   H64       1.0  0.35107  0.8021399999999999  0.3877799999999999  1.0000
  H   H65       1.0  0.33233  0.69515  0.32245  1.0000
  H   H66       1.0  0.68837  0.89767  0.50736  1.0000
  H   H67       1.0  0.78716  0.23389  0.31685  1.0000
  H   H68       1.0  0.7809699999999999  0.13423999999999994  0.3410899999999999  1.0000
  H   H69       1.0  0.8289900000000001  0.09306999999999994  0.4067399999999999  1.0000
  H   H70       1.0  0.03664999999999997  0.08574999999999995  0.3876399999999999  1.0000
  H   H71       1.0  0.98975  0.1277099999999999  0.3221999999999999  1.0000
  H   H72       1.0  0.8191  0.10983000000000004  0.50761  1.0000
  H   H73       1.0  0.41679999999999995  0.47045000000000003  0.18330999999999995  1.0000
  H   H74       1.0  0.29352  0.4402400000000001  0.1593  1.0000
  H   H75       1.0  0.18711  0.42257  0.09376999999999998  1.0000
  H   H76       1.0  0.19789999999999996  0.64902  0.11224999999999997  1.0000
  H   H77       1.0  0.30491999999999997  0.6677199999999999  0.17759999999999995  1.0000
  H   H78       1.0  0.10231999999999988  0.3116299999999999  0.9926399999999997  1.0000
  H   H79       1.0  0.76613  0.21282000000000004  0.18310999999999994  1.0000
  H   H80       1.0  0.86574  0.21906000000000003  0.15891  1.0000
  H   H81       1.0  0.90694  0.17095  0.09326999999999998  1.0000
  H   H82       1.0  0.91427  0.9633199999999998  0.11242  1.0000
  H   H83       1.0  0.8722300000000001  0.010239999999999971  0.17785999999999993  1.0000
  H   H84       1.0  0.89019  0.1808899999999999  0.9923799999999998  1.0000
  H   H85       1.0  0.47085  0.7664599999999999  0.6837199999999998  1.0000
  H   H86       1.0  0.44044  0.86579  0.65941  1.0000
  H   H87       1.0  0.42261999999999983  0.90668  0.5936099999999997  1.0000
  H   H88       1.0  0.649  0.91436  0.6120499999999998  1.0000
  H   H89       1.0  0.6677699999999999  0.8726500000000001  0.6776499999999998  1.0000
  H   H90       1.0  0.31157999999999997  0.8903  0.4926099999999999  1.0000
  H   H91       1.0  0.21293999999999993  0.41663000000000006  0.68278  1.0000
  H   H92       1.0  0.21917000000000003  0.29312  0.65884  1.0000
  H   H93       1.0  0.17134999999999992  0.18654999999999988  0.5934499999999998  1.0000
  H   H94       1.0  0.9636000000000001  0.19824  0.6125  1.0000
  H   H95       1.0  0.010279999999999978  0.30531  0.67768  1.0000
  H   H96       1.0  0.18092999999999992  0.10219999999999994  0.4924199999999999  1.0000
  H   H97       1.0  0.33827999999999997  0.08811999999999999  0.24986999999999995  1.0000
  H   H98       1.0  0.9119  0.66173  0.25014  1.0000
  H   H99       1.0  0.6618199999999999  0.3381799999999999  0.7499899999999998  1.0000
  H   H100      1.0  0.08837999999999988  0.9116099999999998  0.7499899999999998  1.0000
  H   H101      1.0  0.6617200000000001  0.91187  0.75013  1.0000
  H   H102      1.0  0.08809999999999991  0.33826999999999996  0.7498599999999997  1.0000
  H   H103      1.0  0.33818  0.6618199999999999  0.25001  1.0000
  H   H104      1.0  0.91162  0.08838  0.25001  1.0000
  C   C1        1.0  0.36906  0.14783999999999997  0.21194999999999994  1.0000
  C   C2        1.0  0.18626999999999996  0.06465  0.09897999999999997  1.0000
  C   C3        1.0  0.30679  0.11811  0.17282999999999998  1.0000
  C   C4        1.0  0.12056000000000001  0.03819  0.06087  1.0000
  C   C5        1.0  0.42063  0.19786  0.21196999999999994  1.0000
  C   C6        1.0  0.27323  0.16288  0.14831  1.0000
  C   C7        1.0  0.21367000000000003  0.1366  0.11194  1.0000
  C   C8        1.0  0.21968000000000001  0.019339999999999986  0.12294999999999999  1.0000
  C   C9        1.0  0.27920999999999996  0.04586999999999997  0.15953999999999993  1.0000
  C   C10       1.0  0.0549599999999999  0.21046999999999988  0.9923599999999998  1.0000
  C   C11       1.0  0.8432  0.56468  0.21249  1.0000
  C   C12       1.0  0.91259  0.53475  0.09895  1.0000
  C   C13       1.0  0.86625  0.5553099999999999  0.17316999999999994  1.0000
  C   C14       1.0  0.9401800000000001  0.52321  0.06075999999999999  1.0000
  C   C15       1.0  0.79177  0.51494  0.21282999999999994  1.0000
  C   C16       1.0  0.87518  0.48607  0.14869  1.0000
  C   C17       1.0  0.8981900000000002  0.4758499999999999  0.11211999999999997  1.0000
  C   C18       1.0  0.90333  0.60398  0.12282999999999997  1.0000
  C   C19       1.0  0.88052  0.61411  0.1596  1.0000
  C   C20       1.0  0.9374699999999998  0.2819699999999999  0.9924999999999998  1.0000
  C   C21       1.0  0.56448  0.3691199999999999  0.7122599999999998  1.0000
  C   C22       1.0  0.53452  0.18629999999999997  0.5989699999999998  1.0000
  C   C23       1.0  0.55513  0.30678999999999995  0.67306  1.0000
  C   C24       1.0  0.52306  0.12064000000000001  0.56078  1.0000
  C   C25       1.0  0.5146  0.4208199999999999  0.7124899999999997  1.0000
  C   C26       1.0  0.4859299999999999  0.2734199999999999  0.6486399999999998  1.0000
  C   C27       1.0  0.4756999999999999  0.21391  0.6121599999999999  1.0000
  C   C28       1.0  0.60373  0.2194699999999999  0.6228499999999998  1.0000
  C   C29       1.0  0.61391  0.27893999999999997  0.6595299999999997  1.0000
  C   C30       1.0  0.28198  0.05504999999999993  0.4925199999999999  1.0000
  C   C31       1.0  0.14786000000000005  0.84287  0.71216  1.0000
  C   C32       1.0  0.06442999999999999  0.91253  0.59875  1.0000
  C   C33       1.0  0.11799999999999997  0.8659799999999999  0.67289  1.0000
  C   C34       1.0  0.03807000000000001  0.9398200000000001  0.5604  1.0000
  C   C35       1.0  0.19789999999999996  0.7914099999999998  0.7123699999999998  1.0000
  C   C36       1.0  0.16272999999999987  0.87508  0.6483299999999997  1.0000
  C   C37       1.0  0.1364099999999999  0.8982099999999998  0.6118199999999998  1.0000
  C   C38       1.0  0.019149999999999903  0.9032  0.6228099999999998  1.0000
  C   C39       1.0  0.04574000000000001  0.88026  0.65952  1.0000
  C   C40       1.0  0.21047  0.93736  0.49235  1.0000
  C   C41       1.0  0.63091  0.43549999999999983  0.7877299999999998  1.0000
  C   C42       1.0  0.81364  0.46535  0.90096  1.0000
  C   C43       1.0  0.6932099999999998  0.4448499999999999  0.8269099999999998  1.0000
  C   C44       1.0  0.8792800000000001  0.4767499999999999  0.9391299999999998  1.0000
  C   C45       1.0  0.57924  0.48537  0.78755  1.0000
  C   C46       1.0  0.7265699999999999  0.5140599999999997  0.8513399999999998  1.0000
  C   C47       1.0  0.78606  0.5242399999999999  0.8878099999999998  1.0000
  C   C48       1.0  0.78047  0.3961599999999999  0.8770899999999998  1.0000
  C   C49       1.0  0.7210199999999998  0.3860299999999998  0.8404199999999997  1.0000
  C   C50       1.0  0.94496  0.718  0.007479999999999998  1.0000
  C   C51       1.0  0.1570899999999999  0.8521300000000002  0.7878299999999998  1.0000
  C   C52       1.0  0.08740999999999984  0.9355899999999999  0.9010999999999998  1.0000
  C   C53       1.0  0.13400999999999988  0.8819999999999998  0.8270799999999998  1.0000
  C   C54       1.0  0.05983999999999995  0.9619499999999997  0.9392799999999998  1.0000
  C   C55       1.0  0.2085599999999999  0.8021299999999998  0.7876699999999998  1.0000
  C   C56       1.0  0.12494999999999984  0.8372499999999999  0.8516599999999998  1.0000
  C   C57       1.0  0.10179000000000007  0.8636000000000001  0.88814  1.0000
  C   C58       1.0  0.09680999999999994  0.9808899999999998  0.8770899999999998  1.0000
  C   C59       1.0  0.11976999999999983  0.9542800000000001  0.8404099999999998  1.0000
  C   C60       1.0  0.06262  0.78954  0.007649999999999998  1.0000
  C   C61       1.0  0.43534000000000006  0.15684  0.28752  1.0000
  C   C62       1.0  0.46542  0.08746000000000002  0.4012  1.0000
  C   C63       1.0  0.44472  0.13376999999999997  0.32686  1.0000
  C   C64       1.0  0.47711000000000003  0.06019999999999997  0.4395699999999999  1.0000
  C   C65       1.0  0.48507999999999996  0.20825000000000002  0.28714  1.0000
  C   C66       1.0  0.51395  0.12479999999999995  0.35132999999999986  1.0000
  C   C67       1.0  0.52421  0.10180000000000003  0.38793  1.0000
  C   C68       1.0  0.39617  0.09667000000000003  0.37726  1.0000
  C   C69       1.0  0.3859699999999999  0.11945999999999996  0.3404599999999999  1.0000
  C   C70       1.0  0.71804  0.0625499999999999  0.5074999999999997  1.0000
  C   C71       1.0  0.8521700000000001  0.63094  0.28805  1.0000
  C   C72       1.0  0.93527  0.81377  0.4010699999999999  1.0000
  C   C73       1.0  0.88189  0.69323  0.3271799999999999  1.0000
  C   C74       1.0  0.96175  0.87953  0.4391599999999999  1.0000
  C   C75       1.0  0.8021399999999999  0.57936  0.28799999999999987  1.0000
  C   C76       1.0  0.83712  0.7267699999999999  0.3516799999999999  1.0000
  C   C77       1.0  0.8633500000000001  0.78634  0.38807  1.0000
  C   C78       1.0  0.9806100000000001  0.78037  0.3771  1.0000
  C   C79       1.0  0.95413  0.7208399999999999  0.3404999999999999  1.0000
  C   C80       1.0  0.78952  0.9450300000000001  0.5076299999999999  1.0000
  C   C81       1.0  0.63094  0.8521499999999999  0.7880499999999998  1.0000
  C   C82       1.0  0.8137299999999998  0.9353499999999999  0.9010199999999998  1.0000
  C   C83       1.0  0.6932099999999998  0.88188  0.8271699999999997  1.0000
  C   C84       1.0  0.87944  0.9618  0.9391299999999998  1.0000
  C   C85       1.0  0.57937  0.8021399999999999  0.7880299999999999  1.0000
  C   C86       1.0  0.7267699999999999  0.8371199999999999  0.8516799999999998  1.0000
  C   C87       1.0  0.7863399999999998  0.8633899999999999  0.8880599999999997  1.0000
  C   C88       1.0  0.78032  0.9806499999999998  0.8770499999999998  1.0000
  C   C89       1.0  0.72079  0.95413  0.8404599999999998  1.0000
  C   C90       1.0  0.9450400000000001  0.78952  0.007639999999999998  1.0000
  C   C91       1.0  0.15679999999999988  0.4353199999999998  0.7874999999999998  1.0000
  C   C92       1.0  0.08740999999999984  0.46523999999999993  0.9010499999999998  1.0000
  C   C93       1.0  0.13374999999999984  0.4446899999999999  0.8268299999999997  1.0000
  C   C94       1.0  0.05981999999999983  0.4767899999999999  0.9392399999999997  1.0000
  C   C95       1.0  0.20823000000000003  0.48506  0.78717  1.0000
  C   C96       1.0  0.12481999999999985  0.5139299999999999  0.8512999999999997  1.0000
  C   C97       1.0  0.10180999999999991  0.5241499999999998  0.8878799999999998  1.0000
  C   C98       1.0  0.09667999999999995  0.3960199999999998  0.8771599999999998  1.0000
  C   C99       1.0  0.11947999999999986  0.3858799999999999  0.8403999999999998  1.0000
  C   C100      1.0  0.06253  0.71803  0.007489999999999998  1.0000
  C   C101      1.0  0.43552  0.63088  0.28774  1.0000
  C   C102      1.0  0.46548  0.8137  0.40103  1.0000
  C   C103      1.0  0.44486999999999993  0.6932  0.3269399999999999  1.0000
  C   C104      1.0  0.47693999999999986  0.87936  0.4392199999999999  1.0000
  C   C105      1.0  0.48540000000000005  0.57918  0.28751  1.0000
  C   C106      1.0  0.5140699999999999  0.7265799999999999  0.3513499999999999  1.0000
  C   C107      1.0  0.5243  0.78608  0.3878299999999999  1.0000
  C   C108      1.0  0.39627  0.78053  0.3771499999999999  1.0000
  C   C109      1.0  0.38608999999999993  0.7210599999999999  0.3404699999999999  1.0000
  C   C110      1.0  0.71802  0.9449399999999999  0.5074799999999998  1.0000
  C   C111      1.0  0.85214  0.15712999999999994  0.2878399999999999  1.0000
  C   C112      1.0  0.93557  0.08745999999999998  0.40125  1.0000
  C   C113      1.0  0.882  0.13402000000000003  0.32711  1.0000
  C   C114      1.0  0.96193  0.06016999999999998  0.4395999999999999  1.0000
  C   C115      1.0  0.8021000000000001  0.20858999999999997  0.2876299999999999  1.0000
  C   C116      1.0  0.83727  0.12491999999999995  0.35166999999999987  1.0000
  C   C117      1.0  0.8635899999999999  0.10178999999999994  0.3881799999999999  1.0000
  C   C118      1.0  0.9808500000000001  0.09679999999999993  0.3771899999999999  1.0000
  C   C119      1.0  0.95426  0.11972999999999995  0.3404799999999999  1.0000
  C   C120      1.0  0.7895299999999998  0.06263999999999995  0.5076399999999999  1.0000
  C   C121      1.0  0.36909  0.5644999999999999  0.21226999999999993  1.0000
  C   C122      1.0  0.18636  0.53465  0.09903999999999998  1.0000
  C   C123      1.0  0.30679  0.55515  0.17309  1.0000
  C   C124      1.0  0.12072  0.52325  0.06087  1.0000
  C   C125      1.0  0.42076  0.51463  0.21244999999999994  1.0000
  C   C126      1.0  0.27343  0.48594  0.14866  1.0000
  C   C127      1.0  0.21394  0.47576000000000007  0.11218999999999997  1.0000
  C   C128      1.0  0.21953000000000003  0.60384  0.12290999999999998  1.0000
  C   C129      1.0  0.27898  0.61397  0.15958  1.0000
  C   C130      1.0  0.05503999999999993  0.28198999999999996  0.9925199999999997  1.0000
  C   C131      1.0  0.84291  0.14786  0.21216999999999994  1.0000
  C   C132      1.0  0.91259  0.06441  0.0989  1.0000
  C   C133      1.0  0.8659900000000001  0.11800000000000001  0.17292  1.0000
  C   C134      1.0  0.9401600000000001  0.038049999999999994  0.06071999999999999  1.0000
  C   C135      1.0  0.79144  0.19786999999999993  0.21232999999999994  1.0000
  C   C136      1.0  0.8750500000000001  0.16274  0.14833999999999994  1.0000
  C   C137      1.0  0.8982099999999998  0.1364  0.11185999999999997  1.0000
  C   C138      1.0  0.9031900000000002  0.019109999999999985  0.12290999999999998  1.0000
  C   C139      1.0  0.8802300000000001  0.04572  0.15959  1.0000
  C   C140      1.0  0.93738  0.21044999999999986  0.9923499999999997  1.0000
  C   C141      1.0  0.56466  0.8431600000000001  0.71248  1.0000
  C   C142      1.0  0.53458  0.91254  0.5987999999999998  1.0000
  C   C143      1.0  0.55528  0.86623  0.67314  1.0000
  C   C144      1.0  0.52289  0.9398  0.56043  1.0000
  C   C145      1.0  0.51492  0.7917399999999998  0.7128499999999998  1.0000
  C   C146      1.0  0.48605999999999994  0.8751999999999998  0.6486699999999997  1.0000
  C   C147      1.0  0.47578999999999977  0.89819  0.6120699999999998  1.0000
  C   C148      1.0  0.6038299999999999  0.9033299999999999  0.6227399999999997  1.0000
  C   C149      1.0  0.61403  0.88054  0.65954  1.0000
  C   C150      1.0  0.28196  0.93745  0.4924999999999999  1.0000
  C   C151      1.0  0.14783000000000002  0.36905  0.71195  1.0000
  C   C152      1.0  0.0647299999999999  0.18622999999999995  0.5989299999999997  1.0000
  C   C153      1.0  0.11810999999999988  0.3067699999999998  0.6728199999999998  1.0000
  C   C154      1.0  0.038259999999999884  0.12046999999999988  0.5608399999999998  1.0000
  C   C155      1.0  0.1978699999999999  0.4206399999999998  0.7119999999999997  1.0000
  C   C156      1.0  0.16287999999999994  0.27323  0.64832  1.0000
  C   C157      1.0  0.13664999999999988  0.21365999999999985  0.6119199999999998  1.0000
  C   C158      1.0  0.019390000000000004  0.21963  0.6229  1.0000
  C   C159      1.0  0.04587000000000003  0.27916  0.6595  1.0000
  C   C160      1.0  0.21048000000000003  0.05497  0.49237  1.0000
  C   C161      1.0  0.37751  0.12751999999999994  0.24976999999999994  1.0000
  C   C162      1.0  0.47817000000000004  0.22820999999999997  0.24946999999999997  1.0000
  C   C163      1.0  0.53237  0.2821699999999999  0.24953999999999996  1.0000
  C   C164      1.0  0.8725000000000002  0.62251  0.25023999999999996  1.0000
  C   C165      1.0  0.77176  0.52184  0.25047  1.0000
  C   C166      1.0  0.71771  0.46758  0.2502699999999999  1.0000
  C   C167      1.0  0.6224599999999999  0.3775299999999999  0.7499899999999998  1.0000
  C   C168      1.0  0.52161  0.4783999999999999  0.7500499999999998  1.0000
  C   C169      1.0  0.4675599999999999  0.5325499999999999  0.7501899999999999  1.0000
  C   C170      1.0  0.1277199999999999  0.87226  0.7499899999999998  1.0000
  C   C171      1.0  0.22849999999999993  0.77155  0.7500499999999998  1.0000
  C   C172      1.0  0.28256  0.71761  0.75015  1.0000
  C   C173      1.0  0.6224899999999999  0.8724699999999999  0.7502299999999997  1.0000
  C   C174      1.0  0.52184  0.77179  0.75053  1.0000
  C   C175      1.0  0.4676299999999998  0.71783  0.7504599999999998  1.0000
  C   C176      1.0  0.1274999999999999  0.3774899999999999  0.7497599999999998  1.0000
  C   C177      1.0  0.22823999999999986  0.4781599999999999  0.7495299999999998  1.0000
  C   C178      1.0  0.28229  0.53241  0.74973  1.0000
  C   C179      1.0  0.37753999999999993  0.6224599999999999  0.25001  1.0000
  C   C180      1.0  0.47839000000000004  0.52159  0.24995  1.0000
  C   C181      1.0  0.53244  0.46744  0.24980999999999995  1.0000
  C   C182      1.0  0.87228  0.12774  0.25001  1.0000
  C   C183      1.0  0.7715  0.22845000000000001  0.24995  1.0000
  C   C184      1.0  0.71744  0.28239  0.24985  1.0000
  N   N1        1.0  0.9961299999999997  0.17478999999999995  0.9922799999999998  1.0000
  N   N2        1.0  0.9963  0.31766  0.9925999999999998  1.0000
  N   N3        1.0  0.31762  0.99628  0.49256999999999995  1.0000
  N   N4        1.0  0.17480999999999994  0.99611  0.49225999999999986  1.0000
  N   N5        1.0  0.0036999999999999997  0.68234  0.007389999999999998  1.0000
  N   N6        1.0  0.00387  0.8251999999999999  0.00772  1.0000
  N   N7        1.0  0.6823800000000001  0.0037099999999999677  0.5074299999999999  1.0000
  N   N8        1.0  0.82519  0.003890000000000022  0.50774  1.0000
  O   O1        1.0  0.09725  0.9723699999999998  0.0503  1.0000
  O   O2        1.0  0.09216  0.08428  0.04226  1.0000
  O   O3        1.0  0.53481  0.28594  0.21252999999999994  1.0000
  O   O4        1.0  0.95364  0.5785  0.050279999999999984  1.0000
  O   O5        1.0  0.9492900000000001  0.45839  0.042059999999999986  1.0000
  O   O6        1.0  0.67925  0.42766  0.21290999999999993  1.0000
  O   O7        1.0  0.5786  0.09721  0.55045  1.0000
  O   O8        1.0  0.4585000000000001  0.09242999999999997  0.54191  1.0000
  O   O9        1.0  0.4280199999999999  0.5353599999999997  0.7130599999999998  1.0000
  O   O10       1.0  0.97235  0.9529799999999999  0.5498699999999997  1.0000
  O   O11       1.0  0.08408999999999989  0.9489299999999999  0.5415399999999998  1.0000
  O   O12       1.0  0.28641999999999995  0.6794099999999998  0.7129999999999997  1.0000
  O   O13       1.0  0.9027  0.42132999999999987  0.9496099999999997  1.0000
  O   O14       1.0  0.9074699999999998  0.5413699999999999  0.9577999999999998  1.0000
  O   O15       1.0  0.4648999999999999  0.57193  0.7874099999999998  1.0000
  O   O16       1.0  0.04642999999999987  0.027599999999999895  0.9497799999999997  1.0000
  O   O17       1.0  0.05073999999999988  0.9157400000000001  0.9580099999999998  1.0000
  O   O18       1.0  0.32075  0.71379  0.78734  1.0000
  O   O19       1.0  0.4218  0.047059999999999956  0.45012999999999986  1.0000
  O   O20       1.0  0.54183  0.051030000000000054  0.45837  1.0000
  O   O21       1.0  0.5723999999999999  0.32054999999999995  0.2868699999999999  1.0000
  O   O22       1.0  0.02747  0.9028800000000001  0.4493  1.0000
  O   O23       1.0  0.91607  0.90787  0.45812999999999987  1.0000
  O   O24       1.0  0.71394  0.46498  0.2872099999999999  1.0000
  O   O25       1.0  0.9027500000000002  0.027629999999999842  0.9496999999999998  1.0000
  O   O26       1.0  0.90785  0.91572  0.9577399999999998  1.0000
  O   O27       1.0  0.4651999999999999  0.7140599999999999  0.7874699999999998  1.0000
  O   O28       1.0  0.046359999999999825  0.4214999999999999  0.9497199999999998  1.0000
  O   O29       1.0  0.05071999999999996  0.54161  0.9579299999999998  1.0000
  O   O30       1.0  0.3207599999999999  0.5723299999999999  0.7870899999999997  1.0000
  O   O31       1.0  0.42140000000000005  0.9027900000000001  0.4495399999999999  1.0000
  O   O32       1.0  0.5414999999999999  0.90756  0.4580899999999999  1.0000
  O   O33       1.0  0.57198  0.46463000000000004  0.28694  1.0000
  O   O34       1.0  0.02764999999999996  0.04700999999999997  0.45012999999999986  1.0000
  O   O35       1.0  0.9159099999999999  0.051069999999999935  0.45845999999999987  1.0000
  O   O36       1.0  0.71358  0.32059  0.28699999999999987  1.0000
  O   O37       1.0  0.0973  0.57867  0.05038999999999998  1.0000
  O   O38       1.0  0.09252999999999999  0.45862  0.04219999999999999  1.0000
  O   O39       1.0  0.5351  0.42806  0.21259  1.0000
  O   O40       1.0  0.95357  0.9724  0.05021999999999999  1.0000
  O   O41       1.0  0.94926  0.08426  0.041989999999999986  1.0000
  O   O42       1.0  0.67925  0.28621  0.21265999999999993  1.0000
  O   O43       1.0  0.5782  0.95293  0.54986  1.0000
  O   O44       1.0  0.45817  0.94897  0.54163  1.0000
  O   O45       1.0  0.42759999999999987  0.67945  0.7131299999999999  1.0000
  O   O46       1.0  0.9725299999999999  0.09712  0.5507  1.0000
  O   O47       1.0  0.08392999999999991  0.0921199999999999  0.5418699999999997  1.0000
  O   O48       1.0  0.2860599999999998  0.53502  0.7127899999999998  1.0000
