data_image0
_chemical_formula_structural       Co4H88C136N16O16
_chemical_formula_sum              "Co4 H88 C136 N16 O16"
_cell_length_a       8.44736
_cell_length_b       11.46414
_cell_length_c       35.30317
_cell_angle_alpha    90.00146
_cell_angle_beta     90.00586
_cell_angle_gamma    105.65244

_symmetry_space_group_name_H-M    'P 1'
_symmetry_Int_Tables_number       1

loop_
  _symmetry_equiv_pos_as_xyz
  'x,y,z'

loop_
  _atom_site_type_symbol
  _atom_site_label
  _atom_site_symmetry_multiplicity
  _atom_site_fract_x
  _atom_site_fract_y
  _atom_site_fract_z
  _atom_site_occupancy
  Co  Co1       1.0  0.47101  0.50281  0.85323  1.0000
  Co  Co2       1.0  0.52919  0.99729  0.35277  1.0000
  Co  Co3       1.0  0.52912  0.49762  0.14683  1.0000
  Co  Co4       1.0  0.47069  0.00233  0.64735  1.0000
  H   H1        1.0  0.28238  0.43659  0.9617900000000001  1.0000
  H   H2        1.0  0.33196  0.5524399999999999  0.010240000000000003  1.0000
  H   H3        1.0  0.48980999999999997  0.6053599999999999  0.06943  1.0000
  H   H4        1.0  0.18638  0.31159  0.12567  1.0000
  H   H5        1.0  0.018019999999999998  0.24494999999999997  0.06859  1.0000
  H   H6        1.0  0.84398  0.26183  0.02429  1.0000
  H   H7        1.0  0.85008  0.24477  0.9024  1.0000
  H   H8        1.0  0.5934999999999999  0.24453999999999995  0.01913  1.0000
  H   H9        1.0  0.29793  0.13804999999999998  0.01611  1.0000
  H   H10       1.0  0.34894  0.99736  0.9101400000000001  1.0000
  H   H11       1.0  0.64746  0.09561  0.9090700000000002  1.0000
  H   H12       1.0  0.52123  0.91164  0.83805  1.0000
  H   H13       1.0  0.89043  0.27397  0.81874  1.0000
  H   H14       1.0  0.7853  0.44726999999999995  0.83645  1.0000
  H   H15       1.0  0.30035  0.23437999999999995  0.83702  1.0000
  H   H16       1.0  0.38671  0.05145999999999999  0.81796  1.0000
  H   H17       1.0  0.90185  0.14647  0.77015  1.0000
  H   H18       1.0  0.8697  0.76566  0.77984  1.0000
  H   H19       1.0  0.9612600000000001  0.09316  0.70628  1.0000
  H   H20       1.0  0.19089  0.10379999999999999  0.6611  1.0000
  H   H21       1.0  0.38985  0.8845699999999999  0.72941  1.0000
  H   H22       1.0  0.16680999999999996  0.86257  0.77676  1.0000
  H   H23       1.0  0.71721  0.06335999999999999  0.46157000000000004  1.0000
  H   H24       1.0  0.66757  0.9474999999999999  0.51023  1.0000
  H   H25       1.0  0.5101  0.8946699999999997  0.56949  1.0000
  H   H26       1.0  0.81382  0.18843999999999997  0.62562  1.0000
  H   H27       1.0  0.98186  0.2551  0.56853  1.0000
  H   H28       1.0  0.15546999999999997  0.23797999999999994  0.52416  1.0000
  H   H29       1.0  0.14992  0.25538  0.40228  1.0000
  H   H30       1.0  0.40625  0.25539  0.51909  1.0000
  H   H31       1.0  0.70179  0.36188  0.5161  1.0000
  H   H32       1.0  0.65093  0.5026  0.41012  1.0000
  H   H33       1.0  0.35242999999999997  0.40437999999999996  0.40902  1.0000
  H   H34       1.0  0.47897  0.58822  0.33812  1.0000
  H   H35       1.0  0.10960999999999999  0.22624999999999998  0.31876  1.0000
  H   H36       1.0  0.21484  0.052989999999999995  0.33654  1.0000
  H   H37       1.0  0.69962  0.26594  0.33708  1.0000
  H   H38       1.0  0.61325  0.44877  0.31794  1.0000
  H   H39       1.0  0.09833000000000001  0.35359  0.27017  1.0000
  H   H40       1.0  0.13067000000000006  0.73443  0.27993  1.0000
  H   H41       1.0  0.03896000000000001  0.40692  0.20632  1.0000
  H   H42       1.0  0.8095999999999999  0.3962199999999999  0.16108  1.0000
  H   H43       1.0  0.61036  0.61546  0.22927000000000003  1.0000
  H   H44       1.0  0.83306  0.63746  0.2767  1.0000
  H   H45       1.0  0.71766  0.56352  0.03827  1.0000
  H   H46       1.0  0.66793  0.44762999999999986  0.98976  1.0000
  H   H47       1.0  0.51022  0.39477  0.93055  1.0000
  H   H48       1.0  0.81396  0.6886199999999999  0.87435  1.0000
  H   H49       1.0  0.9820100000000002  0.75518  0.9314900000000002  1.0000
  H   H50       1.0  0.15603999999999993  0.7381199999999998  0.9757199999999999  1.0000
  H   H51       1.0  0.14994999999999994  0.7552399999999998  0.09763  1.0000
  H   H52       1.0  0.4063999999999999  0.7554299999999998  0.9809  1.0000
  H   H53       1.0  0.7020099999999999  0.8619299999999999  0.98389  1.0000
  H   H54       1.0  0.65108  0.0026499999999999996  0.08987  1.0000
  H   H55       1.0  0.35255  0.90437  0.09096  1.0000
  H   H56       1.0  0.47886000000000006  0.08826  0.16194  1.0000
  H   H57       1.0  0.10962  0.72591  0.18130000000000002  1.0000
  H   H58       1.0  0.21472999999999998  0.5525999999999999  0.16353  1.0000
  H   H59       1.0  0.69983  0.76554  0.16295  1.0000
  H   H60       1.0  0.61339  0.9484699999999999  0.18205  1.0000
  H   H61       1.0  0.0982399999999999  0.8534099999999999  0.22984  1.0000
  H   H62       1.0  0.13047  0.23420999999999995  0.22016  1.0000
  H   H63       1.0  0.039029999999999926  0.9067899999999998  0.29372  1.0000
  H   H64       1.0  0.80937  0.8962299999999997  0.33886  1.0000
  H   H65       1.0  0.61043  0.11539999999999999  0.27053  1.0000
  H   H66       1.0  0.83355  0.13724  0.22318  1.0000
  H   H67       1.0  0.28260999999999986  0.9363499999999998  0.53851  1.0000
  H   H68       1.0  0.33254000000000006  0.05243  0.48978000000000005  1.0000
  H   H69       1.0  0.49013000000000007  0.10509  0.43054  1.0000
  H   H70       1.0  0.18610999999999997  0.8112399999999999  0.37441  1.0000
  H   H71       1.0  0.018289999999999987  0.7447499999999999  0.43155  1.0000
  H   H72       1.0  0.84443  0.7620899999999998  0.47581  1.0000
  H   H73       1.0  0.84971  0.74442  0.59771  1.0000
  H   H74       1.0  0.5937  0.7445599999999999  0.48091  1.0000
  H   H75       1.0  0.29807  0.6381  0.48389  1.0000
  H   H76       1.0  0.34898  0.49742  0.58989  1.0000
  H   H77       1.0  0.64751  0.5955899999999998  0.59097  1.0000
  H   H78       1.0  0.52076  0.41181999999999996  0.66189  1.0000
  H   H79       1.0  0.8904300000000002  0.77397  0.68131  1.0000
  H   H80       1.0  0.78533  0.94735  0.6636  1.0000
  H   H81       1.0  0.30033  0.7346  0.6630300000000001  1.0000
  H   H82       1.0  0.38656999999999997  0.5515299999999999  0.68201  1.0000
  H   H83       1.0  0.9016600000000001  0.64648  0.7298  1.0000
  H   H84       1.0  0.86901  0.26556  0.72007  1.0000
  H   H85       1.0  0.9610199999999999  0.59309  0.79366  1.0000
  H   H86       1.0  0.19048999999999996  0.60378  0.83885  1.0000
  H   H87       1.0  0.3896  0.38455999999999996  0.7706  1.0000
  H   H88       1.0  0.16671999999999995  0.36262999999999995  0.72322  1.0000
  C   C1        1.0  0.16268  0.36153  0.89139  1.0000
  C   C2        1.0  0.0742  0.34233  0.9287800000000002  1.0000
  C   C3        1.0  0.15428  0.3843  0.9627500000000001  1.0000
  C   C4        1.0  0.07298999999999997  0.3543299999999999  0.9976599999999999  1.0000
  C   C5        1.0  0.16183  0.39174  0.03338  1.0000
  C   C6        1.0  0.29686  0.4948999999999999  0.03494  1.0000
  C   C7        1.0  0.38514  0.52576  0.06821  1.0000
  C   C8        1.0  0.21592999999999998  0.36247999999999997  0.09947  1.0000
  C   C9        1.0  0.12064999999999998  0.3262  0.06732  1.0000
  C   C10       1.0  0.90828  0.28566  0.99757  1.0000
  C   C11       1.0  0.82415  0.24719999999999998  0.96365  1.0000
  C   C12       1.0  0.90963  0.27445  0.92934  1.0000
  C   C13       1.0  0.64836  0.18108999999999997  0.96397  1.0000
  C   C14       1.0  0.5452999999999999  0.18988999999999995  0.9944  1.0000
  C   C15       1.0  0.37842  0.13012  0.99268  1.0000
  C   C16       1.0  0.40653  0.05267  0.93414  1.0000
  C   C17       1.0  0.57475  0.10875999999999998  0.9333  1.0000
  C   C18       1.0  0.60809  0.7072899999999999  0.82629  1.0000
  C   C19       1.0  0.68821  0.8282699999999998  0.81017  1.0000
  C   C20       1.0  0.62617  0.9263  0.8191100000000001  1.0000
  C   C21       1.0  0.70487  0.04256  0.80518  1.0000
  C   C22       1.0  0.64695  0.14723999999999998  0.81566  1.0000
  C   C23       1.0  0.75853  0.2618  0.82093  1.0000
  C   C24       1.0  0.7007799999999998  0.35872999999999994  0.83161  1.0000
  C   C25       1.0  0.42952  0.23894  0.83225  1.0000
  C   C26       1.0  0.47894999999999993  0.13748999999999997  0.8219900000000001  1.0000
  C   C27       1.0  0.84136  0.05688  0.78121  1.0000
  C   C28       1.0  0.90263  0.95882  0.77147  1.0000
  C   C29       1.0  0.82605  0.8439099999999999  0.78684  1.0000
  C   C30       1.0  0.04214999999999995  0.97497  0.74549  1.0000
  C   C31       1.0  0.05527  0.04712  0.71272  1.0000
  C   C32       1.0  0.18145  0.052059999999999995  0.6872  1.0000
  C   C33       1.0  0.29174  0.92807  0.72487  1.0000
  C   C34       1.0  0.16682999999999992  0.9161499999999999  0.75133  1.0000
  C   C35       1.0  0.83774  0.13964  0.391  1.0000
  C   C36       1.0  0.9256  0.15797  0.42851  1.0000
  C   C37       1.0  0.8453  0.11579  0.46249  1.0000
  C   C38       1.0  0.9265  0.14562  0.49746  1.0000
  C   C39       1.0  0.83779  0.10829  0.53326  1.0000
  C   C40       1.0  0.70282  0.00511  0.53491  1.0000
  C   C41       1.0  0.6147999999999999  0.9742399999999998  0.56823  1.0000
  C   C42       1.0  0.78418  0.13746  0.5994200000000001  1.0000
  C   C43       1.0  0.87921  0.17381999999999997  0.56722  1.0000
  C   C44       1.0  0.09126  0.21425  0.4974100000000001  1.0000
  C   C45       1.0  0.17559  0.25265  0.46351  1.0000
  C   C46       1.0  0.09022  0.22561  0.42918  1.0000
  C   C47       1.0  0.35138  0.31876  0.4639  1.0000
  C   C48       1.0  0.45442000000000005  0.30999  0.49434999999999996  1.0000
  C   C49       1.0  0.62133  0.36977  0.49265000000000003  1.0000
  C   C50       1.0  0.59331  0.44724  0.43411  1.0000
  C   C51       1.0  0.42509  0.39116  0.43325  1.0000
  C   C52       1.0  0.39216  0.79325  0.32604  1.0000
  C   C53       1.0  0.31205  0.6718399999999999  0.31017  1.0000
  C   C54       1.0  0.37389999999999995  0.5737399999999999  0.3192  1.0000
  C   C55       1.0  0.29519  0.45753  0.30521  1.0000
  C   C56       1.0  0.35312  0.35291  0.31568  1.0000
  C   C57       1.0  0.24153  0.23838999999999996  0.32097  1.0000
  C   C58       1.0  0.29933999999999994  0.14147  0.33161  1.0000
  C   C59       1.0  0.5705  0.26128  0.33225  1.0000
  C   C60       1.0  0.5211  0.36272999999999994  0.32202  1.0000
  C   C61       1.0  0.15859  0.44315  0.28125  1.0000
  C   C62       1.0  0.09729000000000003  0.54117  0.27152  1.0000
  C   C63       1.0  0.17403999999999994  0.6560399999999998  0.28688  1.0000
  C   C64       1.0  0.95794  0.52513  0.24547  1.0000
  C   C65       1.0  0.9449399999999999  0.4529999999999999  0.21272  1.0000
  C   C66       1.0  0.8188099999999999  0.44801999999999986  0.18715  1.0000
  C   C67       1.0  0.7083999999999999  0.5718999999999999  0.22475  1.0000
  C   C68       1.0  0.83321  0.58387  0.25127  1.0000
  C   C69       1.0  0.83729  0.63847  0.10865  1.0000
  C   C70       1.0  0.92578  0.65776  0.07125  1.0000
  C   C71       1.0  0.84573  0.6158  0.03727  1.0000
  C   C72       1.0  0.92702  0.64568  0.00236  1.0000
  C   C73       1.0  0.83819  0.60829  0.96665  1.0000
  C   C74       1.0  0.70316  0.50514  0.96507  1.0000
  C   C75       1.0  0.61498  0.47431  0.93178  1.0000
  C   C76       1.0  0.78434  0.63763  0.90054  1.0000
  C   C77       1.0  0.87947  0.67386  0.9327199999999999  1.0000
  C   C78       1.0  0.09176  0.7143399999999999  0.00245  1.0000
  C   C79       1.0  0.1758899999999999  0.7527899999999998  0.03637  1.0000
  C   C80       1.0  0.09039999999999995  0.7255699999999998  0.07069  1.0000
  C   C81       1.0  0.35167999999999994  0.8188999999999997  0.03604  1.0000
  C   C82       1.0  0.45471  0.81009  0.00561  1.0000
  C   C83       1.0  0.62157  0.8698599999999999  0.00733  1.0000
  C   C84       1.0  0.59348  0.9473099999999999  0.06587  1.0000
  C   C85       1.0  0.42527000000000004  0.8912099999999998  0.06673  1.0000
  C   C86       1.0  0.392  0.29267  0.17372000000000004  1.0000
  C   C87       1.0  0.31192  0.17162999999999998  0.1898  1.0000
  C   C88       1.0  0.37396  0.07361999999999999  0.18088  1.0000
  C   C89       1.0  0.29528  0.95734  0.1948  1.0000
  C   C90       1.0  0.35314  0.85267  0.18434  1.0000
  C   C91       1.0  0.24149999999999994  0.7380899999999999  0.17908  1.0000
  C   C92       1.0  0.29919999999999997  0.6411999999999999  0.16836  1.0000
  C   C93       1.0  0.57063  0.76106  0.16771  1.0000
  C   C94       1.0  0.52117  0.86247  0.17798000000000003  1.0000
  C   C95       1.0  0.15883999999999993  0.9429999999999998  0.2188  1.0000
  C   C96       1.0  0.09765  0.041089999999999995  0.22851  1.0000
  C   C97       1.0  0.17415  0.156  0.21315  1.0000
  C   C98       1.0  0.95807  0.02493  0.25448  1.0000
  C   C99       1.0  0.94505  0.9528699999999999  0.28726  1.0000
  C   C100      1.0  0.81879  0.94796  0.31276  1.0000
  C   C101      1.0  0.70851  0.07188999999999998  0.27509  1.0000
  C   C102      1.0  0.83345  0.08374  0.24863  1.0000
  C   C103      1.0  0.16229  0.86002  0.60903  1.0000
  C   C104      1.0  0.07431000000000006  0.84182  0.57151  1.0000
  C   C105      1.0  0.15453999999999996  0.88394  0.53752  1.0000
  C   C106      1.0  0.07335  0.85437  0.50254  1.0000
  C   C107      1.0  0.16224000000000005  0.89165  0.46676  1.0000
  C   C108      1.0  0.29724  0.99482  0.46510000000000007  1.0000
  C   C109      1.0  0.38519  0.02568  0.43177  1.0000
  C   C110      1.0  0.21570000000000003  0.8624199999999999  0.40058  1.0000
  C   C111      1.0  0.12082000000000001  0.8261  0.43281  1.0000
  C   C112      1.0  0.90859  0.7856999999999998  0.50257  1.0000
  C   C113      1.0  0.82426  0.7472799999999999  0.53647  1.0000
  C   C114      1.0  0.9095900000000001  0.77427  0.57082  1.0000
  C   C115      1.0  0.6484499999999999  0.6811899999999999  0.53608  1.0000
  C   C116      1.0  0.54541  0.68995  0.5056400000000001  1.0000
  C   C117      1.0  0.37852  0.63019  0.50735  1.0000
  C   C118      1.0  0.40659  0.55275  0.56589  1.0000
  C   C119      1.0  0.5748  0.6088  0.56674  1.0000
  C   C120      1.0  0.6079099999999998  0.20686  0.67379  1.0000
  C   C121      1.0  0.6877399999999999  0.32822999999999997  0.68975  1.0000
  C   C122      1.0  0.62577  0.4263299999999999  0.68082  1.0000
  C   C123      1.0  0.70464  0.5426  0.6947700000000001  1.0000
  C   C124      1.0  0.64685  0.6473  0.68433  1.0000
  C   C125      1.0  0.75857  0.76183  0.6791  1.0000
  C   C126      1.0  0.70092  0.85876  0.66843  1.0000
  C   C127      1.0  0.4294999999999999  0.7390099999999997  0.6677800000000002  1.0000
  C   C128      1.0  0.47885  0.63753  0.67798  1.0000
  C   C129      1.0  0.84116  0.55688  0.71874  1.0000
  C   C130      1.0  0.90237  0.45881  0.72846  1.0000
  C   C131      1.0  0.8256299999999998  0.34393999999999997  0.7131000000000001  1.0000
  C   C132      1.0  0.04192999999999996  0.4748799999999999  0.75447  1.0000
  C   C133      1.0  0.054980000000000015  0.54697  0.78723  1.0000
  C   C134      1.0  0.18115999999999996  0.5519099999999999  0.81279  1.0000
  C   C135      1.0  0.29152  0.42806999999999995  0.77518  1.0000
  C   C136      1.0  0.16666  0.41616  0.74866  1.0000
  N   N1        1.0  0.34895  0.45988  0.10039000000000001  1.0000
  N   N2        1.0  0.30665  0.06219  0.96299  1.0000
  N   N3        1.0  0.53843  0.3495  0.83693  1.0000
  N   N4        1.0  0.29842  0.9922599999999998  0.69247  1.0000
  N   N5        1.0  0.65118  0.04009999999999999  0.60039  1.0000
  N   N6        1.0  0.69317  0.4377  0.46297  1.0000
  N   N7        1.0  0.46163  0.15073999999999999  0.33696  1.0000
  N   N8        1.0  0.70193  0.50791  0.19232  1.0000
  N   N9        1.0  0.65118  0.54029  0.8996100000000001  1.0000
  N   N10       1.0  0.6933299999999999  0.9377999999999999  0.03701  1.0000
  N   N11       1.0  0.46161  0.65051  0.16304  1.0000
  N   N12       1.0  0.70169  0.00763  0.30748  1.0000
  N   N13       1.0  0.349  0.9596  0.39964  1.0000
  N   N14       1.0  0.30671  0.56231  0.53704  1.0000
  N   N15       1.0  0.5385899999999999  0.8494999999999999  0.66316  1.0000
  N   N16       1.0  0.29821  0.49219999999999997  0.80759  1.0000
  O   O1        1.0  0.30367  0.44603999999999994  0.89142  1.0000
  O   O2        1.0  0.10327  0.29712  0.86382  1.0000
  O   O3        1.0  0.4895399999999999  0.6942199999999998  0.84979  1.0000
  O   O4        1.0  0.65916  0.61504  0.81729  1.0000
  O   O5        1.0  0.69667  0.05552  0.39074000000000003  1.0000
  O   O6        1.0  0.89749  0.20465999999999998  0.36356  1.0000
  O   O7        1.0  0.51015  0.8066099999999999  0.34975  1.0000
  O   O8        1.0  0.3413399999999999  0.8854099999999999  0.31669  1.0000
  O   O9        1.0  0.69622  0.55408  0.10862  1.0000
  O   O10       1.0  0.89684  0.70275  0.13625  1.0000
  O   O11       1.0  0.51053  0.30588999999999994  0.15022  1.0000
  O   O12       1.0  0.34093  0.38488  0.18275  1.0000
  O   O13       1.0  0.30365  0.94383  0.60935  1.0000
  O   O14       1.0  0.10221999999999996  0.79503  0.63645  1.0000
  O   O15       1.0  0.49027000000000004  0.19336999999999993  0.64998  1.0000
  O   O16       1.0  0.6586299999999999  0.11471999999999997  0.6832300000000001  1.0000
