data_image0
_chemical_formula_structural       Co8H136C180N8O48
_chemical_formula_sum              "Co8 H136 C180 N8 O48"
_cell_length_a       15.9712
_cell_length_b       15.97147
_cell_length_c       27.147769999999998
_cell_angle_alpha    84.11444
_cell_angle_beta     84.09174
_cell_angle_gamma    85.16163

_symmetry_space_group_name_H-M    'P 1'
_symmetry_Int_Tables_number       1

loop_
  _symmetry_equiv_pos_as_xyz
  'x,y,z'

loop_
  _atom_site_type_symbol
  _atom_site_label
  _atom_site_symmetry_multiplicity
  _atom_site_fract_x
  _atom_site_fract_y
  _atom_site_fract_z
  _atom_site_occupancy
  Co  Co1       1.0  0.67956  0.2632999999999999  0.50595  1.0000
  Co  Co2       1.0  0.6954200000000001  0.10840999999999999  0.53012  1.0000
  Co  Co3       1.0  0.26326  0.6796899999999998  0.00598  1.0000
  Co  Co4       1.0  0.10834  0.69569  0.02984  1.0000
  Co  Co5       1.0  0.73678  0.32033999999999996  0.9942  1.0000
  Co  Co6       1.0  0.8918700000000002  0.3042599999999999  0.97045  1.0000
  Co  Co7       1.0  0.32046  0.7363299999999998  0.49399  1.0000
  Co  Co8       1.0  0.30437999999999993  0.89112  0.47019000000000005  1.0000
  H   H1        1.0  0.44520000000000004  0.33287  0.6048  1.0000
  H   H2        1.0  0.30826  0.3322599999999999  0.65741  1.0000
  H   H3        1.0  0.32999  0.05986000000000001  0.67147  1.0000
  H   H4        1.0  0.46823000000000004  0.06263999999999999  0.61913  1.0000
  H   H5        1.0  0.17153999999999991  0.30657000000000006  0.6977399999999999  1.0000
  H   H6        1.0  0.25537  0.29062  0.73764  1.0000
  H   H7        1.0  0.07586  0.35644  0.77373  1.0000
  H   H8        1.0  0.06682000000000002  0.2859299999999999  0.8294799999999999  1.0000
  H   H9        1.0  0.31332  0.39694999999999997  0.8357  1.0000
  H   H10       1.0  0.31745  0.5108199999999998  0.8924699999999999  1.0000
  H   H11       1.0  0.04779000000000002  0.5276999999999997  0.9155900000000001  1.0000
  H   H12       1.0  0.041250000000000016  0.41589999999999977  0.8588700000000001  1.0000
  H   H13       1.0  0.09213  0.13974  0.72677  1.0000
  H   H14       1.0  0.02125999999999998  0.17198  0.77812  1.0000
  H   H15       1.0  0.9475300000000001  0.3671399999999999  0.6604699999999999  1.0000
  H   H16       1.0  0.83644  0.33945999999999993  0.60618  1.0000
  H   H17       1.0  0.86327  0.07588000000000002  0.65499  1.0000
  H   H18       1.0  0.97118  0.10185999999999999  0.71032  1.0000
  H   H19       1.0  0.2072  0.10758000000000001  0.78055  1.0000
  H   H20       1.0  0.24008999999999991  0.18671999999999997  0.81508  1.0000
  H   H21       1.0  0.27547  0.04306000000000002  0.84394  1.0000
  H   H22       1.0  0.29562999999999995  0.9073300000000001  0.89697  1.0000
  H   H23       1.0  0.03589000000000001  0.93003  0.95546  1.0000
  H   H24       1.0  0.014680000000000023  0.06791999999999995  0.90373  1.0000
  H   H25       1.0  0.59687  0.9825700000000002  0.48379  1.0000
  H   H26       1.0  0.60162  0.8275499999999998  0.47979  1.0000
  H   H27       1.0  0.80566  0.80368  0.57502  1.0000
  H   H28       1.0  0.79085  0.9598899999999999  0.57512  1.0000
  H   H29       1.0  0.76808  0.6779499999999998  0.54466  1.0000
  H   H30       1.0  0.61104  0.6934799999999998  0.48638  1.0000
  H   H31       1.0  0.5551599999999999  0.56643  0.473  1.0000
  H   H32       1.0  0.5685400000000002  0.40892  0.47342  1.0000
  H   H33       1.0  0.80277  0.3912499999999999  0.52669  1.0000
  H   H34       1.0  0.80159  0.54739  0.52769  1.0000
  H   H35       1.0  0.33287  0.44533  0.10486  1.0000
  H   H36       1.0  0.33232  0.30842  0.15745  1.0000
  H   H37       1.0  0.06012000000000001  0.32982  0.17147  1.0000
  H   H38       1.0  0.06266  0.46816  0.11922  1.0000
  H   H39       1.0  0.30664  0.17166  0.19772  1.0000
  H   H40       1.0  0.29058  0.2555099999999999  0.23765  1.0000
  H   H41       1.0  0.35632  0.07574999999999998  0.27367  1.0000
  H   H42       1.0  0.28602  0.06694  0.32945  1.0000
  H   H43       1.0  0.39704  0.3132999999999999  0.33562  1.0000
  H   H44       1.0  0.51066  0.3173699999999999  0.39256  1.0000
  H   H45       1.0  0.52756  0.04766000000000001  0.4155  1.0000
  H   H46       1.0  0.41587  0.04114999999999998  0.35868  1.0000
  H   H47       1.0  0.13985  0.09226999999999999  0.22672  1.0000
  H   H48       1.0  0.17191  0.02143999999999999  0.27813  1.0000
  H   H49       1.0  0.36702  0.9474099999999998  0.16032  1.0000
  H   H50       1.0  0.33919  0.83631  0.10609  1.0000
  H   H51       1.0  0.07569999999999999  0.86354  0.15506  1.0000
  H   H52       1.0  0.10192000000000001  0.9713999999999998  0.21035  1.0000
  H   H53       1.0  0.10762999999999999  0.20734999999999992  0.28069  1.0000
  H   H54       1.0  0.18679000000000004  0.24004999999999993  0.31516  1.0000
  H   H55       1.0  0.04273  0.2755299999999999  0.34408  1.0000
  H   H56       1.0  0.907  0.29541  0.3972  1.0000
  H   H57       1.0  0.9301  0.0356  0.45553  1.0000
  H   H58       1.0  0.06784  0.014519999999999996  0.40362999999999993  1.0000
  H   H59       1.0  0.9825699999999997  0.59691  0.98373  1.0000
  H   H60       1.0  0.82754  0.60147  0.97981  1.0000
  H   H61       1.0  0.8035700000000002  0.8056599999999998  0.07508  1.0000
  H   H62       1.0  0.95981  0.79091  0.07508  1.0000
  H   H63       1.0  0.67789  0.7680799999999998  0.04469  1.0000
  H   H64       1.0  0.69345  0.61084  0.9864699999999998  1.0000
  H   H65       1.0  0.5663299999999999  0.55504  0.973  1.0000
  H   H66       1.0  0.40881  0.56852  0.97352  1.0000
  H   H67       1.0  0.39127000000000006  0.8028699999999998  0.02669  1.0000
  H   H68       1.0  0.5473699999999999  0.8016  0.02774  1.0000
  H   H69       1.0  0.66725  0.5544  0.89527  1.0000
  H   H70       1.0  0.66773  0.69131  0.84269  1.0000
  H   H71       1.0  0.9399200000000001  0.66982  0.82846  1.0000
  H   H72       1.0  0.9374099999999999  0.5316500000000001  0.88085  1.0000
  H   H73       1.0  0.6932  0.8283699999999998  0.80234  1.0000
  H   H74       1.0  0.7094  0.7444  0.76248  1.0000
  H   H75       1.0  0.64359  0.9243199999999999  0.72626  1.0000
  H   H76       1.0  0.71411  0.9329599999999996  0.67057  1.0000
  H   H77       1.0  0.60297  0.68668  0.66442  1.0000
  H   H78       1.0  0.48935000000000006  0.6825499999999998  0.60748  1.0000
  H   H79       1.0  0.47253999999999996  0.9522499999999998  0.58445  1.0000
  H   H80       1.0  0.58422  0.95882  0.64128  1.0000
  H   H81       1.0  0.8601600000000001  0.9078200000000001  0.7732299999999999  1.0000
  H   H82       1.0  0.8279499999999996  0.97855  0.7218199999999999  1.0000
  H   H83       1.0  0.63307  0.05289  0.83972  1.0000
  H   H84       1.0  0.6611200000000002  0.16376999999999992  0.89398  1.0000
  H   H85       1.0  0.9245700000000001  0.13635000000000003  0.8449  1.0000
  H   H86       1.0  0.89816  0.028659999999999984  0.78957  1.0000
  H   H87       1.0  0.8923100000000004  0.7926099999999998  0.71938  1.0000
  H   H88       1.0  0.81305  0.7598899999999997  0.68496  1.0000
  H   H89       1.0  0.95689  0.72435  0.6560899999999998  1.0000
  H   H90       1.0  0.09280000000000001  0.70428  0.60311  1.0000
  H   H91       1.0  0.07009000000000003  0.9640299999999996  0.54466  1.0000
  H   H92       1.0  0.9320300000000002  0.9852499999999995  0.59629  1.0000
  H   H93       1.0  0.01744999999999999  0.40317  0.01627  1.0000
  H   H94       1.0  0.17249000000000003  0.3985299999999999  0.02023  1.0000
  H   H95       1.0  0.19647999999999996  0.19435999999999992  0.92494  1.0000
  H   H96       1.0  0.04018000000000001  0.20915999999999993  0.92491  1.0000
  H   H97       1.0  0.3220799999999999  0.23188  0.95535  1.0000
  H   H98       1.0  0.30649  0.38906  0.01364  1.0000
  H   H99       1.0  0.43357  0.44489  0.02702  1.0000
  H   H100      1.0  0.59109  0.43142999999999987  0.02646  1.0000
  H   H101      1.0  0.6086400000000001  0.19715  0.97321  1.0000
  H   H102      1.0  0.45247  0.19836999999999988  0.97224  1.0000
  H   H103      1.0  0.5545699999999999  0.66727  0.3952  1.0000
  H   H104      1.0  0.6916400000000003  0.6678  0.34262000000000004  1.0000
  H   H105      1.0  0.6700800000000002  0.9402399999999997  0.32853  1.0000
  H   H106      1.0  0.53173  0.9375  0.38078  1.0000
  H   H107      1.0  0.82829  0.69328  0.30216  1.0000
  H   H108      1.0  0.74432  0.70965  0.26232  1.0000
  H   H109      1.0  0.9240400000000001  0.64361  0.22623999999999997  1.0000
  H   H110      1.0  0.93297  0.7140399999999998  0.17052  1.0000
  H   H111      1.0  0.6866000000000001  0.60308  0.16433  1.0000
  H   H112      1.0  0.68263  0.4892199999999998  0.1075  1.0000
  H   H113      1.0  0.9522  0.4725399999999999  0.08446  1.0000
  H   H114      1.0  0.9586900000000004  0.5844  0.14116  1.0000
  H   H115      1.0  0.90779  0.8603499999999997  0.27319  1.0000
  H   H116      1.0  0.9785100000000001  0.8280099999999998  0.22176  1.0000
  H   H117      1.0  0.05145  0.6322599999999998  0.3394  1.0000
  H   H118      1.0  0.16285999999999998  0.65906  0.39373  1.0000
  H   H119      1.0  0.13722  0.9228299999999999  0.34546  1.0000
  H   H120      1.0  0.029049999999999996  0.8978999999999998  0.29003  1.0000
  H   H121      1.0  0.7926800000000002  0.8925099999999998  0.21937  1.0000
  H   H122      1.0  0.75981  0.81332  0.18487  1.0000
  H   H123      1.0  0.7245  0.95696  0.15602  1.0000
  H   H124      1.0  0.70431  0.09272  0.10304  1.0000
  H   H125      1.0  0.96416  0.06997999999999999  0.04459  1.0000
  H   H126      1.0  0.98528  0.9321099999999998  0.09629  1.0000
  H   H127      1.0  0.40311  0.017249999999999998  0.51625  1.0000
  H   H128      1.0  0.39834  0.17221999999999998  0.52016  1.0000
  H   H129      1.0  0.19438000000000002  0.19604  0.42495  1.0000
  H   H130      1.0  0.2091  0.039819999999999973  0.42488  1.0000
  H   H131      1.0  0.23188000000000006  0.32185999999999987  0.45535  1.0000
  H   H132      1.0  0.38913000000000003  0.3062299999999999  0.51347  1.0000
  H   H133      1.0  0.445  0.4332099999999998  0.52696  1.0000
  H   H134      1.0  0.43150000000000005  0.59077  0.52663  1.0000
  H   H135      1.0  0.19725  0.6084  0.47342999999999996  1.0000
  H   H136      1.0  0.19848000000000007  0.45227000000000006  0.47232  1.0000
  C   C1        1.0  0.54678  0.19702  0.57673  1.0000
  C   C2        1.0  0.46530000000000005  0.19779000000000002  0.60853  1.0000
  C   C3        1.0  0.4195400000000001  0.27341  0.61954  1.0000
  C   C4        1.0  0.34297000000000005  0.27295999999999987  0.64943  1.0000
  C   C5        1.0  0.31153000000000003  0.1955  0.6685599999999999  1.0000
  C   C6        1.0  0.3558400000000001  0.11920999999999998  0.65685  1.0000
  C   C7        1.0  0.43218000000000006  0.12096000000000003  0.6275799999999999  1.0000
  C   C8        1.0  0.2041300000000001  0.26086  0.72376  1.0000
  C   C9        1.0  0.14103  0.23115999999999998  0.76739  1.0000
  C   C10       1.0  0.10944999999999999  0.30686  0.79698  1.0000
  C   C11       1.0  0.17770999999999998  0.40034000000000003  0.84355  1.0000
  C   C12       1.0  0.25568  0.42673  0.85323  1.0000
  C   C13       1.0  0.25781  0.4894800000000001  0.88465  1.0000
  C   C14       1.0  0.18257000000000012  0.5264999999999996  0.90733  1.0000
  C   C15       1.0  0.10550000000000002  0.49927  0.89738  1.0000
  C   C16       1.0  0.10189000000000001  0.4366999999999998  0.8655  1.0000
  C   C17       1.0  0.18572000000000002  0.5899199999999998  0.9433999999999999  1.0000
  C   C18       1.0  0.06726999999999998  0.1936  0.7475200000000001  1.0000
  C   C19       1.0  0.9667700000000001  0.2365199999999999  0.6879  1.0000
  C   C20       1.0  0.9282500000000001  0.3038599999999999  0.65879  1.0000
  C   C21       1.0  0.86737  0.28822999999999976  0.62877  1.0000
  C   C22       1.0  0.84399  0.20578  0.6266599999999999  1.0000
  C   C23       1.0  0.8819300000000001  0.13948000000000002  0.65645  1.0000
  C   C24       1.0  0.9427899999999999  0.15413999999999997  0.68738  1.0000
  C   C25       1.0  0.78209  0.19114000000000003  0.59172  1.0000
  C   C26       1.0  0.18549  0.16214  0.80126  1.0000
  C   C27       1.0  0.14325000000000002  0.06299999999999999  0.87036  1.0000
  C   C28       1.0  0.22303999999999996  0.018949999999999995  0.86841  1.0000
  C   C29       1.0  0.23444  0.9429  0.89812  1.0000
  C   C30       1.0  0.16727000000000003  0.91007  0.9292699999999999  1.0000
  C   C31       1.0  0.08793999999999996  0.9559200000000001  0.93132  1.0000
  C   C32       1.0  0.07584  0.03218  0.90255  1.0000
  C   C33       1.0  0.17835000000000006  0.8273499999999998  0.95931  1.0000
  C   C34       1.0  0.64136  0.93982  0.50358  1.0000
  C   C35       1.0  0.6449  0.8531899999999999  0.50172  1.0000
  C   C36       1.0  0.70493  0.8006  0.52716  1.0000
  C   C37       1.0  0.75806  0.8404699999999998  0.55427  1.0000
  C   C38       1.0  0.7505  0.9276699999999999  0.55448  1.0000
  C   C39       1.0  0.71532  0.7093099999999997  0.52577  1.0000
  C   C40       1.0  0.6654400000000001  0.6625699999999998  0.50389  1.0000
  C   C41       1.0  0.67595  0.57139  0.50217  1.0000
  C   C42       1.0  0.61105  0.5300299999999998  0.48558000000000007  1.0000
  C   C43       1.0  0.61748  0.44273  0.48607  1.0000
  C   C44       1.0  0.74902  0.43299999999999983  0.51582  1.0000
  C   C45       1.0  0.74735  0.5199400000000001  0.51636  1.0000
  C   C46       1.0  0.19713999999999993  0.54692  0.07667  1.0000
  C   C47       1.0  0.19782000000000002  0.4655699999999999  0.10869  1.0000
  C   C48       1.0  0.27340999999999993  0.4196999999999999  0.11963000000000001  1.0000
  C   C49       1.0  0.27302  0.3430399999999999  0.14945  1.0000
  C   C50       1.0  0.19561999999999996  0.31147  0.16856  1.0000
  C   C51       1.0  0.11939000000000001  0.35579  0.15684  1.0000
  C   C52       1.0  0.12103000000000001  0.43224999999999986  0.12767  1.0000
  C   C53       1.0  0.26092  0.2042  0.22379  1.0000
  C   C54       1.0  0.23118999999999998  0.1411  0.26741  1.0000
  C   C55       1.0  0.30687  0.10949000000000002  0.29694  1.0000
  C   C56       1.0  0.4005  0.17760999999999993  0.34341  1.0000
  C   C57       1.0  0.42679000000000006  0.2555999999999999  0.35311  1.0000
  C   C58       1.0  0.4893100000000001  0.25776  0.38464999999999994  1.0000
  C   C59       1.0  0.52626  0.18248999999999996  0.40737  1.0000
  C   C60       1.0  0.49920000000000014  0.10541999999999996  0.39732  1.0000
  C   C61       1.0  0.43678000000000006  0.10173999999999996  0.36535  1.0000
  C   C62       1.0  0.58967  0.18585  0.44341  1.0000
  C   C63       1.0  0.19360000000000002  0.06738  0.24753  1.0000
  C   C64       1.0  0.23647  0.96684  0.18788  1.0000
  C   C65       1.0  0.30371  0.9281999999999998  0.15871  1.0000
  C   C66       1.0  0.28800999999999993  0.86725  0.12874  1.0000
  C   C67       1.0  0.20549  0.84399  0.12666  1.0000
  C   C68       1.0  0.13933  0.8820399999999998  0.1565  1.0000
  C   C69       1.0  0.15411  0.94292  0.18739  1.0000
  C   C70       1.0  0.19061999999999998  0.78224  0.09166  1.0000
  C   C71       1.0  0.16219  0.18551  0.30134  1.0000
  C   C72       1.0  0.06283  0.14323999999999995  0.37036  1.0000
  C   C73       1.0  0.018630000000000004  0.22303  0.36852  1.0000
  C   C74       1.0  0.94267  0.23426000000000002  0.39836  1.0000
  C   C75       1.0  0.91008  0.16704000000000002  0.42959  1.0000
  C   C76       1.0  0.9559900000000001  0.08773  0.43145  1.0000
  C   C77       1.0  0.03211  0.07572999999999999  0.40251  1.0000
  C   C78       1.0  0.82761  0.17820999999999998  0.45993  1.0000
  C   C79       1.0  0.93974  0.6413099999999998  0.00357  1.0000
  C   C80       1.0  0.85312  0.64483  0.0017299999999999998  1.0000
  C   C81       1.0  0.80053  0.7049399999999998  0.02719  1.0000
  C   C82       1.0  0.8404200000000001  0.7580499999999998  0.05431  1.0000
  C   C83       1.0  0.92761  0.7504699999999997  0.05448  1.0000
  C   C84       1.0  0.70921  0.71518  0.02583  1.0000
  C   C85       1.0  0.66254  0.66538  0.00393  1.0000
  C   C86       1.0  0.57133  0.67583  0.00221  1.0000
  C   C87       1.0  0.52991  0.6109699999999998  0.98561  1.0000
  C   C88       1.0  0.44262999999999997  0.61751  0.98612  1.0000
  C   C89       1.0  0.4330000000000001  0.74908  0.01584  1.0000
  C   C90       1.0  0.51991  0.7473299999999998  0.01641  1.0000
  C   C91       1.0  0.8028700000000001  0.45341999999999977  0.92401  1.0000
  C   C92       1.0  0.8022500000000001  0.5344600000000002  0.89168  1.0000
  C   C93       1.0  0.72667  0.58014  0.88052  1.0000
  C   C94       1.0  0.72706  0.6567399999999998  0.85066  1.0000
  C   C95       1.0  0.8044299999999999  0.6883899999999997  0.83159  1.0000
  C   C96       1.0  0.88066  0.6439499999999998  0.84319  1.0000
  C   C97       1.0  0.8790299999999999  0.56759  0.87249  1.0000
  C   C98       1.0  0.73903  0.79576  0.77635  1.0000
  C   C99       1.0  0.76876  0.8588499999999999  0.7326800000000001  1.0000
  C   C100      1.0  0.69312  0.89047  0.70309  1.0000
  C   C101      1.0  0.59952  0.8223599999999998  0.6566  1.0000
  C   C102      1.0  0.5732300000000002  0.7443599999999998  0.6469  1.0000
  C   C103      1.0  0.51073  0.74217  0.61534  1.0000
  C   C104      1.0  0.47380999999999995  0.81744  0.59262  1.0000
  C   C105      1.0  0.50091  0.89451  0.60264  1.0000
  C   C106      1.0  0.5633  0.89822  0.63462  1.0000
  C   C107      1.0  0.41048  0.8141699999999997  0.55653  1.0000
  C   C108      1.0  0.8063299999999999  0.9326599999999999  0.75247  1.0000
  C   C109      1.0  0.7636  0.03325  0.81213  1.0000
  C   C110      1.0  0.69643  0.07197  0.84131  1.0000
  C   C111      1.0  0.71227  0.13282  0.87132  1.0000
  C   C112      1.0  0.79483  0.15602999999999997  0.87338  1.0000
  C   C113      1.0  0.8609  0.11791999999999997  0.8435  1.0000
  C   C114      1.0  0.8459900000000001  0.05711999999999997  0.8125800000000001  1.0000
  C   C115      1.0  0.80978  0.21781000000000003  0.90836  1.0000
  C   C116      1.0  0.8377400000000002  0.81445  0.69872  1.0000
  C   C117      1.0  0.9369600000000001  0.8566199999999999  0.6296499999999999  1.0000
  C   C118      1.0  0.9810399999999999  0.77679  0.63162  1.0000
  C   C119      1.0  0.05714999999999999  0.76543  0.60194  1.0000
  C   C120      1.0  0.08998  0.8326  0.5708  1.0000
  C   C121      1.0  0.04410999999999999  0.9119499999999999  0.56875  1.0000
  C   C122      1.0  0.9677999999999999  0.9240600000000001  0.5974799999999999  1.0000
  C   C123      1.0  0.17267000000000005  0.8214199999999998  0.54071  1.0000
  C   C124      1.0  0.06028000000000005  0.35870999999999975  0.99646  1.0000
  C   C125      1.0  0.14689  0.3551799999999998  0.99831  1.0000
  C   C126      1.0  0.19945000000000013  0.29504999999999976  0.97286  1.0000
  C   C127      1.0  0.15959  0.24194000000000002  0.9457199999999999  1.0000
  C   C128      1.0  0.07241  0.24950999999999993  0.94556  1.0000
  C   C129      1.0  0.29075  0.2847399999999999  0.97424  1.0000
  C   C130      1.0  0.3374  0.33455999999999997  0.99614  1.0000
  C   C131      1.0  0.4285900000000001  0.32408  0.99782  1.0000
  C   C132      1.0  0.47  0.38895999999999986  0.01441  1.0000
  C   C133      1.0  0.55728  0.3824399999999999  0.01386  1.0000
  C   C134      1.0  0.56691  0.25091  0.98411  1.0000
  C   C135      1.0  0.47997999999999996  0.25259  0.98358  1.0000
  C   C136      1.0  0.45303  0.80319  0.42321  1.0000
  C   C137      1.0  0.53453  0.8023900000000002  0.39137  1.0000
  C   C138      1.0  0.58028  0.7267099999999997  0.38044  1.0000
  C   C139      1.0  0.65693  0.7271199999999998  0.35062  1.0000
  C   C140      1.0  0.6884800000000002  0.80454  0.33152  1.0000
  C   C141      1.0  0.6442  0.88088  0.34316  1.0000
  C   C142      1.0  0.5677700000000001  0.8791799999999997  0.37235  1.0000
  C   C143      1.0  0.7957  0.73918  0.27623  1.0000
  C   C144      1.0  0.8588  0.7689199999999998  0.23261  1.0000
  C   C145      1.0  0.89038  0.69321  0.20304  1.0000
  C   C146      1.0  0.82221  0.59976  0.15651  1.0000
  C   C147      1.0  0.74426  0.57335  0.14683  1.0000
  C   C148      1.0  0.74221  0.51063  0.11539  1.0000
  C   C149      1.0  0.81749  0.4736399999999999  0.09275  1.0000
  C   C150      1.0  0.89451  0.50093  0.10270000000000001  1.0000
  C   C151      1.0  0.89808  0.5635199999999998  0.13456  1.0000
  C   C152      1.0  0.81442  0.41005  0.0568  1.0000
  C   C153      1.0  0.93258  0.8064699999999998  0.25244  1.0000
  C   C154      1.0  0.03297000000000004  0.7630299999999998  0.3121  1.0000
  C   C155      1.0  0.07114000000000001  0.69538  0.34116  1.0000
  C   C156      1.0  0.13224000000000002  0.7105099999999998  0.37116  1.0000
  C   C157      1.0  0.15608000000000002  0.7927599999999998  0.37336  1.0000
  C   C158      1.0  0.11830000000000002  0.85939  0.34376  1.0000
  C   C159      1.0  0.057239999999999985  0.84527  0.31281  1.0000
  C   C160      1.0  0.21791999999999997  0.80705  0.40844  1.0000
  C   C161      1.0  0.8144  0.8379099999999998  0.19869  1.0000
  C   C162      1.0  0.8567400000000002  0.93703  0.12963  1.0000
  C   C163      1.0  0.77695  0.98109  0.13159  1.0000
  C   C164      1.0  0.76549  0.05711000000000001  0.10189000000000001  1.0000
  C   C165      1.0  0.83266  0.08985999999999997  0.07072  1.0000
  C   C166      1.0  0.91204  0.04412  0.06869  1.0000
  C   C167      1.0  0.92415  0.9678799999999997  0.09747  1.0000
  C   C168      1.0  0.82155  0.17254999999999995  0.04068  1.0000
  C   C169      1.0  0.35861999999999994  0.05991999999999999  0.4964  1.0000
  C   C170      1.0  0.35507  0.14655  0.49823  1.0000
  C   C171      1.0  0.29505  0.19913999999999998  0.47279  1.0000
  C   C172      1.0  0.24195  0.15924  0.4457  1.0000
  C   C173      1.0  0.24949999999999997  0.07202000000000001  0.44551  1.0000
  C   C174      1.0  0.28473  0.29045  0.47416  1.0000
  C   C175      1.0  0.33462  0.33713  0.49606  1.0000
  C   C176      1.0  0.32415  0.42828999999999995  0.49782  1.0000
  C   C177      1.0  0.38905000000000006  0.46960999999999997  0.51445  1.0000
  C   C178      1.0  0.38255  0.5569  0.51404  1.0000
  C   C179      1.0  0.25094  0.5666099999999997  0.48434  1.0000
  C   C180      1.0  0.25269  0.47971  0.4837  1.0000
  N   N1        1.0  0.68456  0.39402  0.50186  1.0000
  N   N2        1.0  0.6933700000000002  0.9774399999999999  0.5293  1.0000
  N   N3        1.0  0.3939200000000001  0.68462  0.00195  1.0000
  N   N4        1.0  0.97741  0.69341  0.02922  1.0000
  N   N5        1.0  0.6059999999999999  0.3153499999999998  0.99801  1.0000
  N   N6        1.0  0.02264  0.30658  0.97082  1.0000
  N   N7        1.0  0.31546  0.60556  0.49826  1.0000
  N   N8        1.0  0.30655  0.02222999999999999  0.47074  1.0000
  O   O1        1.0  0.57108  0.26658  0.55468  1.0000
  O   O2        1.0  0.58728  0.12486  0.57256  1.0000
  O   O3        1.0  0.23815  0.18769999999999998  0.6993  1.0000
  O   O4        1.0  0.18402999999999997  0.3374499999999998  0.8123300000000001  1.0000
  O   O5        1.0  0.25991  0.6105199999999998  0.95017  1.0000
  O   O6        1.0  0.11740000000000003  0.6182800000000002  0.96619  1.0000
  O   O7        1.0  0.027740000000000008  0.2585299999999999  0.71519  1.0000
  O   O8        1.0  0.76608  0.11479999999999996  0.58738  1.0000
  O   O9        1.0  0.74998  0.2563799999999999  0.56718  1.0000
  O   O10       1.0  0.12485999999999998  0.13751  0.84214  1.0000
  O   O11       1.0  0.25261000000000006  0.79167  0.96243  1.0000
  O   O12       1.0  0.11109999999999999  0.79621  0.98057  1.0000
  O   O13       1.0  0.26682  0.57097  0.05463  1.0000
  O   O14       1.0  0.12505  0.58738  0.07235  1.0000
  O   O15       1.0  0.18776  0.23815  0.19934  1.0000
  O   O16       1.0  0.33752  0.18399  0.31226  1.0000
  O   O17       1.0  0.6091  0.26029  0.45050000000000007  1.0000
  O   O18       1.0  0.6194299999999999  0.11761999999999999  0.46568000000000004  1.0000
  O   O19       1.0  0.25855  0.02776  0.2152  1.0000
  O   O20       1.0  0.11421000000000002  0.7664899999999998  0.08715999999999999  1.0000
  O   O21       1.0  0.25587999999999994  0.74998  0.06722  1.0000
  O   O22       1.0  0.13746  0.12493999999999995  0.34221  1.0000
  O   O23       1.0  0.79143  0.25237999999999994  0.46243000000000006  1.0000
  O   O24       1.0  0.79723  0.11123  0.48211  1.0000
  O   O25       1.0  0.73298  0.42877999999999994  0.94532  1.0000
  O   O26       1.0  0.8750399999999999  0.4136999999999998  0.92948  1.0000
  O   O27       1.0  0.8121299999999999  0.7619399999999996  0.8009900000000001  1.0000
  O   O28       1.0  0.66247  0.81598  0.6877600000000001  1.0000
  O   O29       1.0  0.39071  0.73985  0.54949  1.0000
  O   O30       1.0  0.3812100000000002  0.8824799999999998  0.53411  1.0000
  O   O31       1.0  0.7414400000000002  0.97233  0.78483  1.0000
  O   O32       1.0  0.8862100000000004  0.23357  0.9129  1.0000
  O   O33       1.0  0.7445600000000001  0.2501199999999999  0.93278  1.0000
  O   O34       1.0  0.8624099999999999  0.8750399999999998  0.65783  1.0000
  O   O35       1.0  0.20839999999999997  0.74718  0.53753  1.0000
  O   O36       1.0  0.20368  0.88869  0.51944  1.0000
  O   O37       1.0  0.42880999999999997  0.73357  0.44523  1.0000
  O   O38       1.0  0.41258  0.87531  0.42751  1.0000
  O   O39       1.0  0.7619199999999999  0.81225  0.30085  1.0000
  O   O40       1.0  0.81582  0.66263  0.18773  1.0000
  O   O41       1.0  0.74008  0.3902899999999999  0.04969  1.0000
  O   O42       1.0  0.88275  0.3806099999999999  0.03456  1.0000
  O   O43       1.0  0.97198  0.7414  0.28473  1.0000
  O   O44       1.0  0.23345999999999995  0.8833999999999997  0.4132  1.0000
  O   O45       1.0  0.25027000000000016  0.7416699999999998  0.43271  1.0000
  O   O46       1.0  0.87509  0.8624999999999998  0.15782000000000002  1.0000
  O   O47       1.0  0.74731  0.20824999999999994  0.03754  1.0000
  O   O48       1.0  0.88884  0.20359  0.01946  1.0000
