data_image0
_chemical_formula_structural       Zn16H72C148O60
_chemical_formula_sum              "Zn16 H72 C148 O60"
_cell_length_a       10.4954
_cell_length_b       27.62023
_cell_length_c       27.53488
_cell_angle_alpha    90.00046
_cell_angle_beta     90.01572
_cell_angle_gamma    90.00784

_symmetry_space_group_name_H-M    'P 1'
_symmetry_Int_Tables_number       1

loop_
  _symmetry_equiv_pos_as_xyz
  'x,y,z'

loop_
  _atom_site_type_symbol
  _atom_site_label
  _atom_site_symmetry_multiplicity
  _atom_site_fract_x
  _atom_site_fract_y
  _atom_site_fract_z
  _atom_site_occupancy
  Zn  Zn1       1.0  0.64736  0.79892  0.69598  1.0000
  Zn  Zn2       1.0  0.1476  0.29893  0.8039599999999998  1.0000
  Zn  Zn3       1.0  0.35191  0.20083  0.3038  1.0000
  Zn  Zn4       1.0  0.99899  0.7371900000000001  0.09851  1.0000
  Zn  Zn5       1.0  0.50131  0.30161  0.30458  1.0000
  Zn  Zn6       1.0  0.49847  0.23708000000000004  0.40165  1.0000
  Zn  Zn7       1.0  0.9997800000000001  0.2628  0.90151  1.0000
  Zn  Zn8       1.0  0.00144  0.19708  0.80406  1.0000
  Zn  Zn9       1.0  0.85281  0.29893  0.80406  1.0000
  Zn  Zn10      1.0  0.50035  0.69701  0.6959  1.0000
  Zn  Zn11      1.0  0.00145  0.8029000000000002  0.19595  1.0000
  Zn  Zn12      1.0  0.14739  0.70099  0.19603  1.0000
  Zn  Zn13      1.0  0.85267  0.70104  0.19605  1.0000
  Zn  Zn14      1.0  0.35257  0.7989100000000001  0.6960099999999999  1.0000
  Zn  Zn15      1.0  0.64794  0.20078  0.30391999999999997  1.0000
  Zn  Zn16      1.0  0.49891  0.76279  0.59852  1.0000
  H   H1        1.0  0.20578000000000002  0.75852  0.43226  1.0000
  H   H2        1.0  0.29311  0.74133  0.93265  1.0000
  H   H3        1.0  0.50068  0.7646700000000001  0.21617999999999996  1.0000
  H   H4        1.0  0.00043999999999999996  0.93008  0.95044  1.0000
  H   H5        1.0  0.29418  0.96252  0.26467  1.0000
  H   H6        1.0  0.70304  0.23235000000000006  0.15344  1.0000
  H   H7        1.0  0.7926100000000001  0.60565  0.74678  1.0000
  H   H8        1.0  0.29308  0.8942600000000003  0.24685  1.0000
  H   H9        1.0  0.29472  0.23246  0.15292  1.0000
  H   H10       1.0  0.9994900000000001  0.8110600000000002  0.62975  1.0000
  H   H11       1.0  0.00049  0.06991  0.04955  1.0000
  H   H12       1.0  0.20616  0.5375  0.7646  1.0000
  H   H13       1.0  0.9994400000000001  0.06561  0.8694599999999998  1.0000
  H   H14       1.0  0.7972  0.54964  0.21608  1.0000
  H   H15       1.0  0.70524  0.04927  0.28377  1.0000
  H   H16       1.0  0.79507  0.7324500000000003  0.34692  1.0000
  H   H17       1.0  0.70244  0.76764  0.84651  1.0000
  H   H18       1.0  0.20336  0.73241  0.34668999999999994  1.0000
  H   H19       1.0  0.29322  0.10555000000000003  0.7531  1.0000
  H   H20       1.0  0.70539  0.9506400000000003  0.71621  1.0000
  H   H21       1.0  0.70683  0.9621700000000002  0.26458  1.0000
  H   H22       1.0  0.9994799999999999  0.93438  0.13054  1.0000
  H   H23       1.0  0.79348  0.7586400000000001  0.4324899999999999  1.0000
  H   H24       1.0  0.70791  0.10565000000000002  0.75328  1.0000
  H   H25       1.0  0.70662  0.72288  0.00037  1.0000
  H   H26       1.0  0.49964  0.68894  0.12974  1.0000
  H   H27       1.0  0.20668  0.77714  0.50044  1.0000
  H   H28       1.0  0.99953  0.9887500000000002  0.91505  1.0000
  H   H29       1.0  0.79363  0.53757  0.76458  1.0000
  H   H30       1.0  0.20655  0.22280000000000003  0.49954  1.0000
  H   H31       1.0  0.50042  0.4300600000000001  0.54945  1.0000
  H   H32       1.0  0.29296  0.27716  0.9995899999999999  1.0000
  H   H33       1.0  0.79252  0.22297  0.49979  1.0000
  H   H34       1.0  0.79557  0.45049  0.7838799999999998  1.0000
  H   H35       1.0  0.50038  0.23525  0.7838099999999999  1.0000
  H   H36       1.0  0.50048  0.3539700000000001  0.5025  1.0000
  H   H37       1.0  0.20644000000000004  0.24139  0.56726  1.0000
  H   H38       1.0  0.50004  0.31107  0.87026  1.0000
  H   H39       1.0  0.20553000000000002  0.5492000000000001  0.21623  1.0000
  H   H40       1.0  0.20695000000000002  0.4621500000000001  0.23546999999999996  1.0000
  H   H41       1.0  0.20397000000000004  0.45044  0.7838399999999998  1.0000
  H   H42       1.0  0.49955000000000005  0.48874  0.58487  1.0000
  H   H43       1.0  0.29409  0.76752  0.8470899999999998  1.0000
  H   H44       1.0  0.4995  0.56558  0.6304699999999999  1.0000
  H   H45       1.0  0.99956  0.011250000000000003  0.08495  1.0000
  H   H46       1.0  0.70699  0.03774  0.73544  1.0000
  H   H47       1.0  0.29434  0.03735000000000001  0.73533  1.0000
  H   H48       1.0  0.29699  0.9502800000000002  0.7160899999999999  1.0000
  H   H49       1.0  0.29691  0.04963000000000001  0.28386  1.0000
  H   H50       1.0  0.70544  0.7415200000000002  0.9320999999999998  1.0000
  H   H51       1.0  0.7973400000000002  0.26766  0.6535599999999999  1.0000
  H   H52       1.0  0.79414  0.24150000000000005  0.5679699999999999  1.0000
  H   H53       1.0  0.7944  0.46258  0.23537  1.0000
  H   H54       1.0  0.70775  0.8943900000000002  0.24674999999999994  1.0000
  H   H55       1.0  0.70582  0.25851  0.06787  1.0000
  H   H56       1.0  0.49951  0.51116  0.41498  1.0000
  H   H57       1.0  0.49948  0.43432  0.36937  1.0000
  H   H58       1.0  0.20778  0.39435  0.25352  1.0000
  H   H59       1.0  0.99896  0.18892  0.37031  1.0000
  H   H60       1.0  0.50055  0.64597  0.49736999999999987  1.0000
  H   H61       1.0  0.0004800000000000001  0.8539900000000002  0.99747  1.0000
  H   H62       1.0  0.20563  0.26748  0.6528499999999999  1.0000
  H   H63       1.0  0.20729000000000003  0.60552  0.7467999999999998  1.0000
  H   H64       1.0  0.70697  0.27707  0.99966  1.0000
  H   H65       1.0  0.79307  0.39426  0.25311  1.0000
  H   H66       1.0  0.50049  0.56989  0.45038  1.0000
  H   H67       1.0  0.7926500000000001  0.7770900000000002  0.50032  1.0000
  H   H68       1.0  0.00051  0.146  0.00254  1.0000
  H   H69       1.0  0.00027  0.73524  0.71618  1.0000
  H   H70       1.0  0.29261  0.72289  0.00037  1.0000
  H   H71       1.0  0.00046  0.26465  0.28392999999999996  1.0000
  H   H72       1.0  0.29346  0.25868  0.06734  1.0000
  C   C1        1.0  0.49959000000000003  0.7239300000000002  0.99152  1.0000
  C   C2        1.0  0.9997  0.022680000000000006  0.9349299999999999  1.0000
  C   C3        1.0  0.50227  0.89122  0.7050299999999998  1.0000
  C   C4        1.0  0.8846500000000002  0.62329  0.7431899999999998  1.0000
  C   C5        1.0  0.11457  0.7827  0.51749  1.0000
  C   C6        1.0  0.50123  0.05516  0.28439  1.0000
  C   C7        1.0  0.99969  0.77608  0.49152999999999997  1.0000
  C   C8        1.0  0.00042  0.40247  0.25048  1.0000
  C   C9        1.0  0.38425  0.25293  0.08535999999999998  1.0000
  C   C10       1.0  0.99967  0.93445  0.09107999999999997  1.0000
  C   C11       1.0  0.8853400000000001  0.24718000000000004  0.58574  1.0000
  C   C12       1.0  0.9997600000000001  0.44476  0.78454  1.0000
  C   C13       1.0  0.7631  0.30044  0.27849  1.0000
  C   C14       1.0  0.99962  0.22392  0.50851  1.0000
  C   C15       1.0  0.99964  0.06555  0.90892  1.0000
  C   C16       1.0  0.99987  0.54535  0.7622999999999999  1.0000
  C   C17       1.0  0.6143  0.23806  0.13388  1.0000
  C   C18       1.0  0.50033  0.61113  0.51573  1.0000
  C   C19       1.0  0.26333  0.19917  0.7784699999999999  1.0000
  C   C20       1.0  0.8847100000000001  0.78266  0.51742  1.0000
  C   C21       1.0  0.8856600000000001  0.48074000000000006  0.23148  1.0000
  C   C22       1.0  0.8843400000000001  0.7529400000000003  0.4145399999999999  1.0000
  C   C23       1.0  0.49751000000000006  0.78453  0.7888799999999998  1.0000
  C   C24       1.0  0.99991  0.5974000000000002  0.7496299999999999  1.0000
  C   C25       1.0  0.00025  0.06814000000000002  0.01017  1.0000
  C   C26       1.0  0.23958  0.79913  0.59333  1.0000
  C   C27       1.0  0.00019  0.69713  0.72589  1.0000
  C   C28       1.0  0.9980400000000001  0.7155000000000002  0.2889  1.0000
  C   C29       1.0  0.50137  0.9447500000000002  0.71543  1.0000
  C   C30       1.0  0.25985  0.29912  0.90671  1.0000
  C   C31       1.0  0.11452000000000001  0.73808  0.36616  1.0000
  C   C32       1.0  0.38385  0.74706  0.9146  1.0000
  C   C33       1.0  0.50064  0.80278  0.22589999999999993  1.0000
  C   C34       1.0  0.99898  0.73081  0.34136999999999995  1.0000
  C   C35       1.0  0.61588  0.12329000000000002  0.75686  1.0000
  C   C36       1.0  0.50004  0.65576  0.5953099999999998  1.0000
  C   C37       1.0  0.99999  0.9772000000000001  0.01374  1.0000
  C   C38       1.0  0.50001  0.38978  0.43322999999999995  1.0000
  C   C39       1.0  0.88455  0.47016000000000013  0.7793999999999998  1.0000
  C   C40       1.0  0.50051  0.19714  0.7740699999999998  1.0000
  C   C41       1.0  0.00027  0.88885  0.0158  1.0000
  C   C42       1.0  0.38507  0.8274100000000002  0.23152999999999996  1.0000
  C   C43       1.0  0.88395  0.73811  0.36636  1.0000
  C   C44       1.0  0.2594  0.70093  0.09323  1.0000
  C   C45       1.0  0.11646  0.5296  0.22069  1.0000
  C   C46       1.0  0.11503  0.47014  0.77938  1.0000
  C   C47       1.0  0.23749000000000003  0.6991900000000001  0.72152  1.0000
  C   C48       1.0  0.61623  0.02963  0.2793  1.0000
  C   C49       1.0  0.11438  0.21726000000000006  0.4825199999999999  1.0000
  C   C50       1.0  8.999999999999982e-05  0.15578  0.9046499999999997  1.0000
  C   C51       1.0  0.9997200000000002  0.97731  0.06506  1.0000
  C   C52       1.0  0.23784000000000002  0.30044  0.27859999999999996  1.0000
  C   C53       1.0  0.11472  0.7528700000000003  0.41438  1.0000
  C   C54       1.0  0.38588  0.9700000000000002  0.72061  1.0000
  C   C55       1.0  0.38503  0.2827100000000001  0.9825199999999997  1.0000
  C   C56       1.0  0.11476  0.20465  0.43342999999999987  1.0000
  C   C57       1.0  0.50037  0.9024900000000001  0.24965  1.0000
  C   C58       1.0  0.99998  0.0228  0.98626  1.0000
  C   C59       1.0  0.00044  0.30275  0.27419999999999994  1.0000
  C   C60       1.0  0.88457  0.6725  0.73151  1.0000
  C   C61       1.0  0.00019  0.23934  0.55986  1.0000
  C   C62       1.0  0.49971  0.56553  0.59101  1.0000
  C   C63       1.0  0.38319  0.76186  0.8664099999999998  1.0000
  C   C64       1.0  0.11503  0.79532  0.56659  1.0000
  C   C65       1.0  0.00026999999999999995  0.11115000000000003  0.9842  1.0000
  C   C66       1.0  0.49999  0.34411000000000014  0.4045699999999999  1.0000
  C   C67       1.0  0.11581  0.37663  0.25701  1.0000
  C   C68       1.0  3.0000000000000038e-05  0.88988  0.06668  1.0000
  C   C69       1.0  0.11501  0.51926  0.76853  1.0000
  C   C70       1.0  0.99967  0.76071  0.44015  1.0000
  C   C71       1.0  0.50056  0.0974  0.75035  1.0000
  C   C72       1.0  0.49816  0.76917  0.8413399999999999  1.0000
  C   C73       1.0  0.00151  0.55516  0.21551999999999993  1.0000
  C   C74       1.0  0.50024  0.4318100000000001  0.51008  1.0000
  C   C75       1.0  0.11574  0.24711  0.58534  1.0000
  C   C76       1.0  0.99951  0.80188  0.59135  1.0000
  C   C77       1.0  0.8860200000000001  0.52989  0.22060999999999997  1.0000
  C   C78       1.0  0.38468  0.7173300000000002  0.01745  1.0000
  C   C79       1.0  0.11595  0.48048  0.23154999999999995  1.0000
  C   C80       1.0  0.75938  0.79905  0.5931999999999997  1.0000
  C   C81       1.0  0.49932  0.7393  0.9401399999999998  1.0000
  C   C82       1.0  0.8846900000000001  0.51929  0.76853  1.0000
  C   C83       1.0  0.11650000000000002  0.26179  0.63357  1.0000
  C   C84       1.0  0.7629  0.6994200000000002  0.7216  1.0000
  C   C85       1.0  0.50008  0.61011  0.56661  1.0000
  C   C86       1.0  0.11532000000000002  0.6232  0.74317  1.0000
  C   C87       1.0  0.61547  0.2952700000000001  0.93347  1.0000
  C   C88       1.0  0.38369  0.23813  0.13354  1.0000
  C   C89       1.0  0.88594  0.26189  0.6339699999999999  1.0000
  C   C90       1.0  0.61377  0.7619300000000002  0.8660799999999998  1.0000
  C   C91       1.0  0.73784  0.19945  0.77842  1.0000
  C   C92       1.0  0.23931  0.20081000000000002  0.40674  1.0000
  C   C93       1.0  0.73963  0.70087  0.09328999999999998  1.0000
  C   C94       1.0  0.38406  0.7047500000000001  0.06655  1.0000
  C   C95       1.0  0.00023  0.93185  0.98983  1.0000
  C   C96       1.0  0.50028  0.3888  0.48411  1.0000
  C   C97       1.0  0.26343  0.80053  0.2216  1.0000
  C   C98       1.0  0.8850500000000001  0.3766  0.25686  1.0000
  C   C99       1.0  0.5  0.30189  0.90865  1.0000
  C   C100      1.0  0.9991500000000001  0.19811000000000006  0.4087  1.0000
  C   C101      1.0  0.00247  0.60873  0.2053  1.0000
  C   C102      1.0  0.61637  0.9702600000000002  0.7206699999999998  1.0000
  C   C103      1.0  0.61599  0.019390000000000008  0.73152  1.0000
  C   C104      1.0  0.50063  0.04534  0.73768  1.0000
  C   C105      1.0  0.50045  0.9545400000000003  0.26233  1.0000
  C   C106      1.0  0.61468  0.25285  0.08566999999999997  1.0000
  C   C107      1.0  0.74003  0.2990800000000001  0.90678  1.0000
  C   C108      1.0  0.38522  0.12322000000000001  0.75674  1.0000
  C   C109      1.0  0.61611  0.17249000000000003  0.7685099999999999  1.0000
  C   C110      1.0  0.75909  0.20093  0.40686999999999995  1.0000
  C   C111      1.0  0.99991  0.3911900000000001  0.79473  1.0000
  C   C112      1.0  0.49999  0.52277  0.51366  1.0000
  C   C113      1.0  0.88452  0.21737000000000006  0.4826699999999999  1.0000
  C   C114      1.0  0.38542  0.98071  0.26857  1.0000
  C   C115      1.0  0.88481  0.3274  0.26858  1.0000
  C   C116      1.0  0.00241  0.28442  0.71117  1.0000
  C   C117      1.0  0.49958  0.6981200000000002  0.09135  1.0000
  C   C118      1.0  0.4986900000000001  0.23082  0.15859  1.0000
  C   C119      1.0  0.49774  0.21549000000000001  0.21103999999999998  1.0000
  C   C120      1.0  7e-05  0.84422  0.09536  1.0000
  C   C121      1.0  0.38559  0.01915  0.7314599999999998  1.0000
  C   C122      1.0  0.6149  0.2826600000000001  0.9825699999999999  1.0000
  C   C123      1.0  0.38574  0.02988  0.27935  1.0000
  C   C124      1.0  0.49993000000000004  0.27608  0.00847  1.0000
  C   C125      1.0  0.50222  0.10874  0.29449999999999993  1.0000
  C   C126      1.0  0.50027  0.56812  0.4897599999999999  1.0000
  C   C127      1.0  0.38511000000000006  0.8766100000000002  0.24323  1.0000
  C   C128      1.0  0.49972000000000005  0.47723  0.43485  1.0000
  C   C129      1.0  0.0006  0.45453  0.23777  1.0000
  C   C130      1.0  0.38448000000000004  0.29531  0.9334199999999998  1.0000
  C   C131      1.0  0.49999  0.47716000000000003  0.48616999999999994  1.0000
  C   C132      1.0  0.11567000000000001  0.67238  0.73148  1.0000
  C   C133      1.0  0.61582  0.9805  0.26851  1.0000
  C   C134      1.0  0.61507  0.70469  0.06655  1.0000
  C   C135      1.0  0.73793  0.80068  0.22149999999999995  1.0000
  C   C136      1.0  0.61426  0.74716  0.9143  1.0000
  C   C137      1.0  0.49973999999999996  0.52267  0.56498  1.0000
  C   C138      1.0  0.8840300000000001  0.7952400000000002  0.56651  1.0000
  C   C139      1.0  0.61455  0.71731  0.01744  1.0000
  C   C140      1.0  0.4996900000000001  0.26071  0.059839999999999983  1.0000
  C   C141      1.0  0.38503  0.1724  0.7684599999999998  1.0000
  C   C142      1.0  0.61614  0.82752  0.23147  1.0000
  C   C143      1.0  0.0  0.11012  0.93332  1.0000
  C   C144      1.0  0.00159  0.26902  0.6586999999999997  1.0000
  C   C145      1.0  0.11609000000000001  0.32742  0.26864  1.0000
  C   C146      1.0  0.88375  0.20478000000000005  0.43357  1.0000
  C   C147      1.0  0.61578  0.8767000000000003  0.24312999999999996  1.0000
  C   C148      1.0  0.49967  0.43436  0.40883  1.0000
  O   O1        1.0  0.34232  0.67649  0.72896  1.0000
  O   O2        1.0  0.2753  0.75779  0.20521999999999996  1.0000
  O   O3        1.0  0.72507  0.24221000000000004  0.79469  1.0000
  O   O4        1.0  0.7753899999999999  0.25767  0.29479999999999995  1.0000
  O   O5        1.0  0.8911500000000001  0.37122  0.7998299999999999  1.0000
  O   O6        1.0  0.33834  0.21419000000000005  0.43071  1.0000
  O   O7        1.0  0.61165  0.8712500000000001  0.70212  1.0000
  O   O8        1.0  0.49984  0.30449  0.4284  1.0000
  O   O9        1.0  0.61169  0.12864  0.29749  1.0000
  O   O10       1.0  0.8387299999999999  0.71418  0.06936  1.0000
  O   O11       1.0  0.73691  0.6856000000000001  0.13662  1.0000
  O   O12       1.0  0.1601  0.71419  0.06942  1.0000
  O   O13       1.0  0.22499000000000002  0.74181  0.7049199999999998  1.0000
  O   O14       1.0  0.23685999999999996  0.8143900000000002  0.63666  1.0000
  O   O15       1.0  0.23674000000000003  0.18548000000000003  0.36343999999999993  1.0000
  O   O16       1.0  0.49997  0.2362  0.33119  1.0000
  O   O17       1.0  0.26282  0.31447000000000014  0.86338  1.0000
  O   O18       1.0  0.3883  0.20953  0.23035  1.0000
  O   O19       1.0  0.50006  0.34938  0.3585699999999999  1.0000
  O   O20       1.0  0.34297  0.32294  0.27137  1.0000
  O   O21       1.0  0.49987  0.69541  0.5715999999999999  1.0000
  O   O22       1.0  0.8938600000000001  0.6288  0.20009  1.0000
  O   O23       1.0  0.33869  0.7858200000000001  0.5694  1.0000
  O   O24       1.0  0.27531  0.24177  0.79514  1.0000
  O   O25       1.0  0.8427800000000001  0.8233800000000002  0.22886999999999993  1.0000
  O   O26       1.0  0.7625699999999999  0.18552000000000005  0.3635899999999999  1.0000
  O   O27       1.0  0.77514  0.7421800000000002  0.7052899999999998  1.0000
  O   O28       1.0  0.49996  0.7624700000000001  0.66899  1.0000
  O   O29       1.0  0.16071  0.28582  0.93058  1.0000
  O   O30       1.0  0.22481000000000004  0.25772  0.29502  1.0000
  O   O31       1.0  0.1586  0.17638  0.77096  1.0000
  O   O32       1.0  0.50007  0.6502900000000003  0.64128  1.0000
  O   O33       1.0  0.72513  0.7580100000000001  0.20499  1.0000
  O   O34       1.0  0.65815  0.67659  0.7289099999999998  1.0000
  O   O35       1.0  0.8935399999999999  0.2905  0.7308  1.0000
  O   O36       1.0  0.39359000000000005  0.12881  0.29953  1.0000
  O   O37       1.0  0.39360999999999996  0.87116  0.70001  1.0000
  O   O38       1.0  0.00023000000000000006  0.26253  0.83104  1.0000
  O   O39       1.0  0.00019  0.15032  0.8586599999999998  1.0000
  O   O40       1.0  0.76272  0.8143900000000002  0.6365199999999998  1.0000
  O   O41       1.0  0.8392500000000002  0.28580000000000005  0.93065  1.0000
  O   O42       1.0  0.99994  0.1954  0.9283799999999998  1.0000
  O   O43       1.0  0.73704  0.31436  0.8634499999999999  1.0000
  O   O44       1.0  0.00010000000000000003  0.73743  0.16898  1.0000
  O   O45       1.0  0.65816  0.32316  0.27127  1.0000
  O   O46       1.0  0.66  0.7858  0.56942  1.0000
  O   O47       1.0  0.10898000000000001  0.37107  0.7975999999999998  1.0000
  O   O48       1.0  0.11187  0.6287  0.20244  1.0000
  O   O49       1.0  0.00016999999999999999  0.84968  0.14134  1.0000
  O   O50       1.0  0.9998899999999998  0.80459  0.07163  1.0000
  O   O51       1.0  0.65968  0.21417  0.43062  1.0000
  O   O52       1.0  0.38817000000000007  0.7905  0.76946  1.0000
  O   O53       1.0  0.26267  0.68555  0.13653  1.0000
  O   O54       1.0  0.60654  0.20962  0.23074999999999996  1.0000
  O   O55       1.0  0.15887  0.82347  0.22893  1.0000
  O   O56       1.0  0.10685  0.7096700000000002  0.26923  1.0000
  O   O57       1.0  0.8426700000000001  0.1767  0.77116  1.0000
  O   O58       1.0  0.88867  0.70949  0.26952  1.0000
  O   O59       1.0  0.60639  0.79039  0.76924  1.0000
  O   O60       1.0  0.11176  0.29037  0.7305  1.0000
