data_image0
_chemical_formula_structural       Ba16H96C80N16O64
_chemical_formula_sum              "Ba16 H96 C80 N16 O64"
_cell_length_a       9.16233
_cell_length_b       19.35122
_cell_length_c       19.35122
_cell_angle_alpha    90.0
_cell_angle_beta     90.0
_cell_angle_gamma    90.0

_symmetry_space_group_name_H-M    'P 1'
_symmetry_Int_Tables_number       1

loop_
  _symmetry_equiv_pos_as_xyz
  'x,y,z'

loop_
  _atom_site_type_symbol
  _atom_site_label
  _atom_site_symmetry_multiplicity
  _atom_site_fract_x
  _atom_site_fract_y
  _atom_site_fract_z
  _atom_site_occupancy
  Ba  Ba1       1.0  0.76611  0.8216300000000001  0.64321  1.0000
  Ba  Ba2       1.0  0.76595  0.6898700000000001  0.8718500000000001  1.0000
  Ba  Ba3       1.0  0.76611  0.17837000000000003  0.35679  1.0000
  Ba  Ba4       1.0  0.76595  0.3101300000000001  0.12815  1.0000
  Ba  Ba5       1.0  0.76611  0.35679  0.8216300000000001  1.0000
  Ba  Ba6       1.0  0.76595  0.12815  0.6898700000000001  1.0000
  Ba  Ba7       1.0  0.76611  0.64321  0.17837000000000003  1.0000
  Ba  Ba8       1.0  0.76595  0.8718500000000001  0.3101300000000001  1.0000
  Ba  Ba9       1.0  0.26592  0.32149  0.85691  1.0000
  Ba  Ba10      1.0  0.26745  0.18921000000000002  0.62962  1.0000
  Ba  Ba11      1.0  0.26592  0.6785100000000001  0.14308000000000004  1.0000
  Ba  Ba12      1.0  0.26746  0.81078  0.37038  1.0000
  Ba  Ba13      1.0  0.26592  0.85691  0.6785100000000001  1.0000
  Ba  Ba14      1.0  0.26746  0.62962  0.81078  1.0000
  Ba  Ba15      1.0  0.26592  0.14308000000000004  0.32149  1.0000
  Ba  Ba16      1.0  0.26746  0.37038  0.18921000000000002  1.0000
  H   H1        1.0  0.6633  0.8917900000000001  0.00559  1.0000
  H   H2        1.0  0.75571  0.81543  0.030540000000000005  1.0000
  H   H3        1.0  0.47155  0.79782  0.03585  1.0000
  H   H4        1.0  0.43172  0.73827  0.96989  1.0000
  H   H5        1.0  0.44721  0.8749200000000001  0.9247500000000001  1.0000
  H   H6        1.0  0.59906  0.8734900000000002  0.8679900000000002  1.0000
  H   H7        1.0  0.91399  0.9050000000000002  0.97197  1.0000
  H   H8        1.0  0.81154  0.8931500000000001  0.8957400000000001  1.0000
  H   H9        1.0  0.10747  0.7883300000000002  0.84855  1.0000
  H   H10       1.0  0.08214  0.87662  0.8637200000000002  1.0000
  H   H11       1.0  0.97396  0.7791500000000001  0.02377  1.0000
  H   H12       1.0  0.1253  0.82231  0.98697  1.0000
  H   H13       1.0  0.6633  0.10821  0.9944  1.0000
  H   H14       1.0  0.75571  0.18456000000000003  0.96946  1.0000
  H   H15       1.0  0.47155  0.20218000000000003  0.96415  1.0000
  H   H16       1.0  0.43172  0.26172  0.03011  1.0000
  H   H17       1.0  0.44721  0.12508  0.07525  1.0000
  H   H18       1.0  0.59906  0.12651  0.13201  1.0000
  H   H19       1.0  0.91399  0.095  0.028030000000000003  1.0000
  H   H20       1.0  0.81154  0.10684000000000002  0.10426  1.0000
  H   H21       1.0  0.10747  0.21167  0.15145000000000006  1.0000
  H   H22       1.0  0.08214  0.12337000000000001  0.13627  1.0000
  H   H23       1.0  0.97396  0.22084  0.9762300000000002  1.0000
  H   H24       1.0  0.1253  0.17768  0.013030000000000002  1.0000
  H   H25       1.0  0.6633  0.9944  0.8917900000000001  1.0000
  H   H26       1.0  0.75571  0.96946  0.81543  1.0000
  H   H27       1.0  0.47155  0.96415  0.79782  1.0000
  H   H28       1.0  0.43172  0.03011  0.73827  1.0000
  H   H29       1.0  0.44721  0.07525  0.8749200000000001  1.0000
  H   H30       1.0  0.59906  0.13201  0.8734900000000002  1.0000
  H   H31       1.0  0.91399  0.028030000000000003  0.9050000000000002  1.0000
  H   H32       1.0  0.81154  0.10426  0.8931500000000001  1.0000
  H   H33       1.0  0.10747  0.15145000000000006  0.7883300000000002  1.0000
  H   H34       1.0  0.08214  0.13627  0.87662  1.0000
  H   H35       1.0  0.97396  0.9762300000000002  0.7791500000000001  1.0000
  H   H36       1.0  0.1253  0.013030000000000002  0.82231  1.0000
  H   H37       1.0  0.6633  0.00559  0.10821  1.0000
  H   H38       1.0  0.75571  0.030540000000000005  0.18456000000000003  1.0000
  H   H39       1.0  0.47155  0.03585  0.20218000000000003  1.0000
  H   H40       1.0  0.43172  0.96989  0.26172  1.0000
  H   H41       1.0  0.44721  0.9247500000000001  0.12508  1.0000
  H   H42       1.0  0.59906  0.8679900000000002  0.12651  1.0000
  H   H43       1.0  0.91399  0.97197  0.095  1.0000
  H   H44       1.0  0.81154  0.8957400000000001  0.10684000000000002  1.0000
  H   H45       1.0  0.10747  0.84855  0.21167  1.0000
  H   H46       1.0  0.08214  0.8637200000000002  0.12337000000000001  1.0000
  H   H47       1.0  0.97396  0.02377  0.22084  1.0000
  H   H48       1.0  0.1253  0.98697  0.17768  1.0000
  H   H49       1.0  0.15937  0.3905  0.49489  1.0000
  H   H50       1.0  0.2534  0.31464000000000003  0.47004  1.0000
  H   H51       1.0  0.97207  0.29632  0.46476  1.0000
  H   H52       1.0  0.93047  0.23701  0.53087  1.0000
  H   H53       1.0  0.94474  0.37264  0.57711  1.0000
  H   H54       1.0  0.09684  0.37132000000000004  0.6338000000000003  1.0000
  H   H55       1.0  0.40979  0.4054200000000001  0.5283  1.0000
  H   H56       1.0  0.30818  0.39279  0.60467  1.0000
  H   H57       1.0  0.60845  0.29031  0.65098  1.0000
  H   H58       1.0  0.58038  0.37840000000000007  0.63528  1.0000
  H   H59       1.0  0.4738299999999999  0.27962000000000004  0.47628  1.0000
  H   H60       1.0  0.62407  0.32326000000000005  0.51321  1.0000
  H   H61       1.0  0.15937  0.6095  0.50511  1.0000
  H   H62       1.0  0.2534  0.68536  0.52996  1.0000
  H   H63       1.0  0.97207  0.7036800000000001  0.53524  1.0000
  H   H64       1.0  0.93047  0.7629900000000001  0.46913  1.0000
  H   H65       1.0  0.94474  0.62736  0.42288  1.0000
  H   H66       1.0  0.09684  0.62868  0.3662  1.0000
  H   H67       1.0  0.40979  0.59458  0.47169  1.0000
  H   H68       1.0  0.30818  0.60721  0.39532  1.0000
  H   H69       1.0  0.60845  0.70968  0.34902  1.0000
  H   H70       1.0  0.58038  0.6216  0.36472  1.0000
  H   H71       1.0  0.4738299999999999  0.72038  0.52372  1.0000
  H   H72       1.0  0.62407  0.6767400000000001  0.48679  1.0000
  H   H73       1.0  0.15937  0.49489  0.6095  1.0000
  H   H74       1.0  0.2534  0.47004  0.68536  1.0000
  H   H75       1.0  0.97207  0.46476  0.7036800000000001  1.0000
  H   H76       1.0  0.93047  0.53087  0.7629900000000001  1.0000
  H   H77       1.0  0.94474  0.57711  0.62736  1.0000
  H   H78       1.0  0.09684  0.6338000000000003  0.62868  1.0000
  H   H79       1.0  0.40979  0.5283  0.59458  1.0000
  H   H80       1.0  0.30818  0.60467  0.60721  1.0000
  H   H81       1.0  0.60845  0.65098  0.70968  1.0000
  H   H82       1.0  0.58038  0.63528  0.6216  1.0000
  H   H83       1.0  0.4738299999999999  0.47628  0.72038  1.0000
  H   H84       1.0  0.62407  0.51321  0.6767400000000001  1.0000
  H   H85       1.0  0.15937  0.50511  0.3905  1.0000
  H   H86       1.0  0.2534  0.52996  0.31464000000000003  1.0000
  H   H87       1.0  0.97207  0.53524  0.29632  1.0000
  H   H88       1.0  0.93047  0.46913  0.23701  1.0000
  H   H89       1.0  0.94474  0.42288  0.37264  1.0000
  H   H90       1.0  0.09684  0.3662  0.37132000000000004  1.0000
  H   H91       1.0  0.40979  0.47169  0.4054200000000001  1.0000
  H   H92       1.0  0.30818  0.39532  0.39279  1.0000
  H   H93       1.0  0.60845  0.34902  0.29031  1.0000
  H   H94       1.0  0.58038  0.36472  0.37840000000000007  1.0000
  H   H95       1.0  0.4738299999999999  0.52372  0.27962000000000004  1.0000
  H   H96       1.0  0.62407  0.48679  0.32326000000000005  1.0000
  C   C1        1.0  0.71814  0.8449500000000001  0.98548  1.0000
  C   C2        1.0  0.5225  0.76329  0.9972600000000001  1.0000
  C   C3        1.0  0.60372  0.70608  0.03603  1.0000
  C   C4        1.0  0.5262  0.8405600000000001  0.89869  1.0000
  C   C5        1.0  0.44269  0.7971000000000001  0.8454900000000002  1.0000
  C   C6        1.0  0.84936  0.86677  0.94243  1.0000
  C   C7        1.0  0.02289  0.8272200000000001  0.85814  1.0000
  C   C8        1.0  0.9306399999999999  0.8305000000000001  0.79245  1.0000
  C   C9        1.0  0.03742  0.78474  0.97593  1.0000
  C   C10       1.0  0.10896  0.7138900000000002  0.96418  1.0000
  C   C11       1.0  0.71814  0.15505  0.014520000000000003  1.0000
  C   C12       1.0  0.5225  0.23671  0.0027300000000000002  1.0000
  C   C13       1.0  0.60372  0.29392  0.96396  1.0000
  C   C14       1.0  0.5262  0.15944000000000003  0.10130000000000003  1.0000
  C   C15       1.0  0.44269  0.2029  0.1545  1.0000
  C   C16       1.0  0.84936  0.13322  0.05757  1.0000
  C   C17       1.0  0.02289  0.17278  0.14185  1.0000
  C   C18       1.0  0.9306399999999999  0.16949  0.20755  1.0000
  C   C19       1.0  0.03742  0.21526000000000003  0.02407  1.0000
  C   C20       1.0  0.10896  0.28611  0.03582  1.0000
  C   C21       1.0  0.71814  0.014520000000000003  0.8449500000000001  1.0000
  C   C22       1.0  0.5225  0.0027300000000000002  0.76329  1.0000
  C   C23       1.0  0.60372  0.96396  0.70608  1.0000
  C   C24       1.0  0.5262  0.10130000000000003  0.8405600000000001  1.0000
  C   C25       1.0  0.44269  0.1545  0.7971000000000001  1.0000
  C   C26       1.0  0.84936  0.05757  0.86677  1.0000
  C   C27       1.0  0.02289  0.14185  0.8272200000000001  1.0000
  C   C28       1.0  0.9306399999999999  0.20755  0.8305000000000001  1.0000
  C   C29       1.0  0.03742  0.02407  0.78474  1.0000
  C   C30       1.0  0.10896  0.03582  0.7138900000000002  1.0000
  C   C31       1.0  0.71814  0.98548  0.15505  1.0000
  C   C32       1.0  0.5225  0.9972600000000001  0.23671  1.0000
  C   C33       1.0  0.60372  0.03603  0.29392  1.0000
  C   C34       1.0  0.5262  0.89869  0.15944000000000003  1.0000
  C   C35       1.0  0.44269  0.8454900000000002  0.2029  1.0000
  C   C36       1.0  0.84936  0.94243  0.13322  1.0000
  C   C37       1.0  0.02289  0.85814  0.17278  1.0000
  C   C38       1.0  0.9306399999999999  0.79245  0.16949  1.0000
  C   C39       1.0  0.03742  0.97593  0.21526000000000003  1.0000
  C   C40       1.0  0.10896  0.96418  0.28611  1.0000
  C   C41       1.0  0.21558  0.34406000000000003  0.51513  1.0000
  C   C42       1.0  0.02175  0.26179  0.50368  1.0000
  C   C43       1.0  0.10325  0.20436000000000004  0.46539  1.0000
  C   C44       1.0  0.02461  0.33837000000000006  0.60272  1.0000
  C   C45       1.0  0.94242  0.29325  0.65513  1.0000
  C   C46       1.0  0.34653  0.36672000000000005  0.5578900000000001  1.0000
  C   C47       1.0  0.52274  0.32868  0.64156  1.0000
  C   C48       1.0  0.43229  0.33200000000000013  0.70768  1.0000
  C   C49       1.0  0.53653  0.28551000000000004  0.52429  1.0000
  C   C50       1.0  0.60908  0.21509000000000006  0.53684  1.0000
  C   C51       1.0  0.21558  0.6559300000000001  0.48487000000000013  1.0000
  C   C52       1.0  0.02175  0.7382100000000001  0.49632  1.0000
  C   C53       1.0  0.10325  0.79563  0.53461  1.0000
  C   C54       1.0  0.02461  0.6616200000000001  0.39728  1.0000
  C   C55       1.0  0.94242  0.70675  0.34487  1.0000
  C   C56       1.0  0.34653  0.63328  0.44211  1.0000
  C   C57       1.0  0.52274  0.67132  0.35844  1.0000
  C   C58       1.0  0.43229  0.6679900000000001  0.29232  1.0000
  C   C59       1.0  0.53653  0.71449  0.4757100000000001  1.0000
  C   C60       1.0  0.60908  0.78491  0.46315  1.0000
  C   C61       1.0  0.21558  0.51513  0.6559300000000001  1.0000
  C   C62       1.0  0.02175  0.50368  0.7382100000000001  1.0000
  C   C63       1.0  0.10325  0.46539  0.79563  1.0000
  C   C64       1.0  0.02461  0.60272  0.6616200000000001  1.0000
  C   C65       1.0  0.94242  0.65513  0.70675  1.0000
  C   C66       1.0  0.34653  0.5578900000000001  0.63328  1.0000
  C   C67       1.0  0.52274  0.64156  0.67132  1.0000
  C   C68       1.0  0.43229  0.70768  0.6679900000000001  1.0000
  C   C69       1.0  0.53653  0.52429  0.71449  1.0000
  C   C70       1.0  0.60908  0.53684  0.78491  1.0000
  C   C71       1.0  0.21558  0.48487000000000013  0.34406000000000003  1.0000
  C   C72       1.0  0.02175  0.49632  0.26179  1.0000
  C   C73       1.0  0.10325  0.53461  0.20436000000000004  1.0000
  C   C74       1.0  0.02461  0.39728  0.33837000000000006  1.0000
  C   C75       1.0  0.94242  0.34487  0.29325  1.0000
  C   C76       1.0  0.34653  0.44211  0.36672000000000005  1.0000
  C   C77       1.0  0.52274  0.35844  0.32868  1.0000
  C   C78       1.0  0.43229  0.29232  0.33200000000000013  1.0000
  C   C79       1.0  0.53653  0.4757100000000001  0.28551000000000004  1.0000
  C   C80       1.0  0.60908  0.46315  0.21509000000000006  1.0000
  N   N1        1.0  0.61463  0.8006200000000001  0.94771  1.0000
  N   N2        1.0  0.94053  0.80821  0.9201700000000002  1.0000
  N   N3        1.0  0.61463  0.19938000000000003  0.05229000000000001  1.0000
  N   N4        1.0  0.94053  0.19179  0.07983000000000001  1.0000
  N   N5        1.0  0.61463  0.05229000000000001  0.80061  1.0000
  N   N6        1.0  0.94053  0.07983000000000001  0.80821  1.0000
  N   N7        1.0  0.61463  0.94771  0.19938000000000003  1.0000
  N   N8        1.0  0.94053  0.9201700000000002  0.19179  1.0000
  N   N9        1.0  0.11351999999999998  0.29926  0.5532  1.0000
  N   N10       1.0  0.43946  0.30877  0.58007  1.0000
  N   N11       1.0  0.11351999999999998  0.70074  0.44680000000000003  1.0000
  N   N12       1.0  0.43946  0.69123  0.41993  1.0000
  N   N13       1.0  0.11351999999999998  0.5532  0.70074  1.0000
  N   N14       1.0  0.43946  0.58007  0.69123  1.0000
  N   N15       1.0  0.11351999999999998  0.44680000000000003  0.29926  1.0000
  N   N16       1.0  0.43946  0.41993  0.30877  1.0000
  O   O1        1.0  0.72568  0.6839  0.01397  1.0000
  O   O2        1.0  0.54107  0.68333  0.09045  1.0000
  O   O3        1.0  0.47385  0.73289  0.8403900000000001  1.0000
  O   O4        1.0  0.34878  0.82939  0.8100200000000001  1.0000
  O   O5        1.0  0.79903  0.80928  0.79263  1.0000
  O   O6        1.0  0.99359  0.85459  0.7389100000000001  1.0000
  O   O7        1.0  0.20791  0.69741  0.006750000000000001  1.0000
  O   O8        1.0  0.06629  0.67708  0.91323  1.0000
  O   O9        1.0  0.72568  0.3161  0.9860300000000001  1.0000
  O   O10       1.0  0.54107  0.31666  0.90955  1.0000
  O   O11       1.0  0.47385  0.2671  0.1596  1.0000
  O   O12       1.0  0.34878  0.17061  0.18997000000000003  1.0000
  O   O13       1.0  0.79903  0.19072  0.20736  1.0000
  O   O14       1.0  0.99359  0.14541  0.26109  1.0000
  O   O15       1.0  0.20791  0.30258000000000007  0.99324  1.0000
  O   O16       1.0  0.06629  0.32291  0.08677  1.0000
  O   O17       1.0  0.72568  0.9860300000000001  0.6839  1.0000
  O   O18       1.0  0.54107  0.90955  0.68333  1.0000
  O   O19       1.0  0.47385  0.1596  0.73289  1.0000
  O   O20       1.0  0.34878  0.18997000000000003  0.82939  1.0000
  O   O21       1.0  0.79903  0.20736  0.80927  1.0000
  O   O22       1.0  0.99359  0.26109  0.85459  1.0000
  O   O23       1.0  0.20791  0.99324  0.69741  1.0000
  O   O24       1.0  0.06629  0.08677  0.67708  1.0000
  O   O25       1.0  0.72568  0.01397  0.3161  1.0000
  O   O26       1.0  0.54107  0.09045  0.31666  1.0000
  O   O27       1.0  0.47385  0.8403900000000001  0.2671  1.0000
  O   O28       1.0  0.34878  0.8100200000000001  0.17061  1.0000
  O   O29       1.0  0.79903  0.79263  0.19072  1.0000
  O   O30       1.0  0.99359  0.7389100000000001  0.14541  1.0000
  O   O31       1.0  0.20791  0.006750000000000001  0.30258000000000007  1.0000
  O   O32       1.0  0.06629  0.91323  0.32291  1.0000
  O   O33       1.0  0.22227  0.18058  0.48911000000000004  1.0000
  O   O34       1.0  0.04348  0.18330000000000002  0.40956  1.0000
  O   O35       1.0  0.97748  0.22947  0.65971  1.0000
  O   O36       1.0  0.84513  0.32326000000000005  0.69046  1.0000
  O   O37       1.0  0.30177  0.30928  0.70819  1.0000
  O   O38       1.0  0.49535  0.35762000000000005  0.7605500000000001  1.0000
  O   O39       1.0  0.70473  0.19717  0.49323000000000006  1.0000
  O   O40       1.0  0.57002  0.1801  0.58973  1.0000
  O   O41       1.0  0.22227  0.8194100000000001  0.51088  1.0000
  O   O42       1.0  0.04348  0.8167  0.59043  1.0000
  O   O43       1.0  0.97748  0.77053  0.34029  1.0000
  O   O44       1.0  0.84513  0.6767400000000001  0.30953  1.0000
  O   O45       1.0  0.30177  0.6907100000000002  0.29181  1.0000
  O   O46       1.0  0.49535  0.6423800000000001  0.23945000000000002  1.0000
  O   O47       1.0  0.70473  0.8028200000000001  0.50677  1.0000
  O   O48       1.0  0.57002  0.81989  0.41027  1.0000
  O   O49       1.0  0.22227  0.48911000000000004  0.8194100000000001  1.0000
  O   O50       1.0  0.04348  0.40956  0.8167  1.0000
  O   O51       1.0  0.97748  0.65971  0.77053  1.0000
  O   O52       1.0  0.84513  0.69046  0.6767400000000001  1.0000
  O   O53       1.0  0.30177  0.70819  0.6907100000000002  1.0000
  O   O54       1.0  0.49535  0.7605500000000001  0.6423800000000001  1.0000
  O   O55       1.0  0.70473  0.49323000000000006  0.8028200000000001  1.0000
  O   O56       1.0  0.57002  0.58973  0.81989  1.0000
  O   O57       1.0  0.22227  0.51088  0.18058  1.0000
  O   O58       1.0  0.04348  0.59043  0.18330000000000002  1.0000
  O   O59       1.0  0.97748  0.34029  0.22947  1.0000
  O   O60       1.0  0.84513  0.30953  0.32326000000000005  1.0000
  O   O61       1.0  0.30177  0.29181  0.30928  1.0000
  O   O62       1.0  0.49535  0.23945000000000002  0.35762000000000005  1.0000
  O   O63       1.0  0.70473  0.50677  0.19717  1.0000
  O   O64       1.0  0.57002  0.41027  0.1801  1.0000
