data_image0
_chemical_formula_structural       Dy12H84C180O72
_chemical_formula_sum              "Dy12 H84 C180 O72"
_cell_length_a       14.411
_cell_length_b       14.42678
_cell_length_c       33.0831
_cell_angle_alpha    102.40746
_cell_angle_beta     102.40471
_cell_angle_gamma    90.05083999999998

_symmetry_space_group_name_H-M    'P 1'
_symmetry_Int_Tables_number       1

loop_
  _symmetry_equiv_pos_as_xyz
  'x,y,z'

loop_
  _atom_site_type_symbol
  _atom_site_label
  _atom_site_symmetry_multiplicity
  _atom_site_fract_x
  _atom_site_fract_y
  _atom_site_fract_z
  _atom_site_occupancy
  Dy  Dy1       1.0  0.15950000000000006  0.9504200000000005  0.8812200000000002  1.0000
  Dy  Dy2       1.0  0.71617  0.93543  0.88016  1.0000
  Dy  Dy3       1.0  0.06427  0.83752  0.12014  1.0000
  Dy  Dy4       1.0  0.05213  0.27833  0.11825  1.0000
  Dy  Dy5       1.0  0.089  0.81678  0.61907  1.0000
  Dy  Dy6       1.0  0.53242  0.8036500000000002  0.61893  1.0000
  Dy  Dy7       1.0  0.18291  0.46832  0.38102  1.0000
  Dy  Dy8       1.0  0.19413  0.91336  0.381  1.0000
  Dy  Dy9       1.0  0.4543500000000001  0.9579100000000002  0.9134900000000002  1.0000
  Dy  Dy10      1.0  0.0465  0.54497  0.08667  1.0000
  Dy  Dy11      1.0  0.7925800000000002  0.7953  0.58573  1.0000
  Dy  Dy12      1.0  0.20802  0.20636000000000004  0.41513  1.0000
  H   H1        1.0  0.20121000000000003  0.16756000000000001  0.00332  1.0000
  H   H2        1.0  0.22825  0.47158  0.02338  1.0000
  H   H3        1.0  0.3139900000000002  0.45461  0.96471  1.0000
  H   H4        1.0  0.47795  0.38614  0.9505  1.0000
  H   H5        1.0  0.5546800000000001  0.3714700000000002  0.8894200000000001  1.0000
  H   H6        1.0  0.48214000000000007  0.26472  0.82023  1.0000
  H   H7        1.0  0.24765000000000012  0.19651000000000002  0.87169  1.0000
  H   H8        1.0  0.29238  0.2521600000000001  0.76159  1.0000
  H   H9        1.0  0.21397000000000005  0.13135  0.69708  1.0000
  H   H10       1.0  0.25332  0.9145900000000002  0.76912  1.0000
  H   H11       1.0  0.80114  0.83594  0.00308  1.0000
  H   H12       1.0  0.7957500000000001  0.55152  0.02338  1.0000
  H   H13       1.0  0.65208  0.51072  0.96519  1.0000
  H   H14       1.0  0.47248  0.56413  0.95112  1.0000
  H   H15       1.0  0.33549  0.51795  0.89036  1.0000
  H   H16       1.0  0.3392  0.5557  0.8208  1.0000
  H   H17       1.0  0.62392  0.6756500000000002  0.87154  1.0000
  H   H18       1.0  0.46952  0.51017  0.76207  1.0000
  H   H19       1.0  0.48317  0.56693  0.69716  1.0000
  H   H20       1.0  0.5157000000000003  0.8548400000000003  0.7688  1.0000
  H   H21       1.0  0.16439000000000015  0.7990500000000001  0.9968800000000002  1.0000
  H   H22       1.0  0.4482300000000001  0.7723800000000001  0.9761  1.0000
  H   H23       1.0  0.48965  0.68662  0.03462  1.0000
  H   H24       1.0  0.43567000000000006  0.5219100000000001  0.04918  1.0000
  H   H25       1.0  0.48189  0.4455  0.11018  1.0000
  H   H26       1.0  0.44458  0.5180800000000001  0.17965  1.0000
  H   H27       1.0  0.32476  0.75242  0.12840000000000004  1.0000
  H   H28       1.0  0.4907  0.7075100000000002  0.23841  1.0000
  H   H29       1.0  0.43377  0.78611  0.30311  1.0000
  H   H30       1.0  0.14580000000000004  0.7475000000000003  0.23144000000000006  1.0000
  H   H31       1.0  0.83324  0.19822  0.99676  1.0000
  H   H32       1.0  0.52921  0.20534000000000005  0.97698  1.0000
  H   H33       1.0  0.54659  0.34896  0.03526  1.0000
  H   H34       1.0  0.6135600000000001  0.52746  0.049220000000000014  1.0000
  H   H35       1.0  0.62807  0.66451  0.11002  1.0000
  H   H36       1.0  0.7351000000000002  0.66104  0.17933000000000004  1.0000
  H   H37       1.0  0.8041  0.37596  0.12840000000000004  1.0000
  H   H38       1.0  0.74845  0.53058  0.23816000000000007  1.0000
  H   H39       1.0  0.86909  0.51683  0.30281  1.0000
  H   H40       1.0  0.08589  0.4840800000000002  0.2308  1.0000
  H   H41       1.0  0.04882  0.9142900000000003  0.49691  1.0000
  H   H42       1.0  0.02211999999999999  0.19838  0.47638  1.0000
  H   H43       1.0  0.9362800000000001  0.23926  0.53496  1.0000
  H   H44       1.0  0.77176  0.1856  0.54911  1.0000
  H   H45       1.0  0.69502  0.23219000000000006  0.61013  1.0000
  H   H46       1.0  0.768  0.19460000000000005  0.67964  1.0000
  H   H47       1.0  0.002090000000000025  0.07475  0.62842  1.0000
  H   H48       1.0  0.9569600000000001  0.2407600000000001  0.7377900000000002  1.0000
  H   H49       1.0  0.03579999999999995  0.18369000000000008  0.80266  1.0000
  H   H50       1.0  0.99667  0.8956700000000002  0.73097  1.0000
  H   H51       1.0  0.4485  0.58297  0.49675  1.0000
  H   H52       1.0  0.45510000000000006  0.2787  0.47683  1.0000
  H   H53       1.0  0.5986  0.2959900000000001  0.53517  1.0000
  H   H54       1.0  0.77753  0.36349  0.54928  1.0000
  H   H55       1.0  0.91461  0.37818  0.61009  1.0000
  H   H56       1.0  0.91099  0.4851500000000001  0.67936  1.0000
  H   H57       1.0  0.62584  0.5538900000000001  0.62837  1.0000
  H   H58       1.0  0.78066  0.49807  0.73835  1.0000
  H   H59       1.0  0.7669400000000001  0.6189300000000002  0.80303  1.0000
  H   H60       1.0  0.7339900000000001  0.8356500000000002  0.73091  1.0000
  H   H61       1.0  0.0856  0.55094  0.50305  1.0000
  H   H62       1.0  0.8012900000000001  0.54585  0.52354  1.0000
  H   H63       1.0  0.76017  0.40238000000000007  0.4653  1.0000
  H   H64       1.0  0.8140100000000002  0.22240000000000004  0.45112  1.0000
  H   H65       1.0  0.76796  0.08549000000000002  0.39033  1.0000
  H   H66       1.0  0.80575  0.08934000000000004  0.32078  1.0000
  H   H67       1.0  0.9255100000000003  0.37404  0.37161  1.0000
  H   H68       1.0  0.7605200000000002  0.21939  0.26221  1.0000
  H   H69       1.0  0.81692  0.23322000000000004  0.19726  1.0000
  H   H70       1.0  0.10502000000000002  0.26597  0.26883  1.0000
  H   H71       1.0  0.41769  0.95139  0.50333  1.0000
  H   H72       1.0  0.7219  0.97822  0.52341  1.0000
  H   H73       1.0  0.7045800000000001  0.06380999999999999  0.4647  1.0000
  H   H74       1.0  0.63614  0.22798  0.4505  1.0000
  H   H75       1.0  0.62149  0.3047300000000001  0.38941  1.0000
  H   H76       1.0  0.51468  0.23216000000000003  0.3202  1.0000
  H   H77       1.0  0.4463100000000001  0.99775  0.37177  1.0000
  H   H78       1.0  0.50185  0.04217  0.26161  1.0000
  H   H79       1.0  0.38119  0.96399  0.1971  1.0000
  H   H80       1.0  0.16437  0.003489999999999989  0.26917  1.0000
  H   H81       1.0  0.9249700000000001  0.9260700000000002  0.85286  1.0000
  H   H82       1.0  0.07379  0.07291000000000003  0.14696  1.0000
  H   H83       1.0  0.3239  0.8240300000000003  0.64755  1.0000
  H   H84       1.0  0.17678  0.67692  0.35304  1.0000
  C   C1        1.0  0.30099  0.12242000000000003  0.94481  1.0000
  C   C2        1.0  0.28051  0.22161  0.9643  1.0000
  C   C3        1.0  0.22769  0.23104999999999998  0.99583  1.0000
  C   C4        1.0  0.20923000000000005  0.32104000000000005  0.01758  1.0000
  C   C5        1.0  0.24232  0.4015400000000001  0.006470000000000002  1.0000
  C   C6        1.0  0.29153  0.3917100000000001  0.97397  1.0000
  C   C7        1.0  0.31112000000000006  0.30190000000000006  0.9519200000000001  1.0000
  C   C8        1.0  0.15869  0.33181  0.05318  1.0000
  C   C9        1.0  0.35778  0.29237000000000013  0.91559  1.0000
  C   C10       1.0  0.44404  0.34213  0.91983  1.0000
  C   C11       1.0  0.48752  0.3328300000000001  0.88549  1.0000
  C   C12       1.0  0.44637  0.27365  0.84649  1.0000
  C   C13       1.0  0.3605300000000001  0.2223900000000001  0.84166  1.0000
  C   C14       1.0  0.31628000000000017  0.23343000000000005  0.8761300000000002  1.0000
  C   C15       1.0  0.3181  0.15222999999999995  0.80202  1.0000
  C   C16       1.0  0.28510000000000013  0.17801000000000003  0.7631  1.0000
  C   C17       1.0  0.24074000000000007  0.11070000000000002  0.72701  1.0000
  C   C18       1.0  0.22871  0.015200000000000038  0.72874  1.0000
  C   C19       1.0  0.26138  0.98848  0.76736  1.0000
  C   C20       1.0  0.30523000000000006  0.05595000000000002  0.80344  1.0000
  C   C21       1.0  0.18130000000000007  0.9431100000000001  0.6902200000000001  1.0000
  C   C22       1.0  0.34665  0.021160000000000012  0.84225  1.0000
  C   C23       1.0  0.64354  0.8235300000000002  0.94458  1.0000
  C   C24       1.0  0.68329  0.74352  0.96432  1.0000
  C   C25       1.0  0.76722  0.76521  0.99582  1.0000
  C   C26       1.0  0.80813  0.69713  0.017660000000000006  1.0000
  C   C27       1.0  0.76479  0.60528  0.0067  1.0000
  C   C28       1.0  0.6830900000000002  0.58302  0.97434  1.0000
  C   C29       1.0  0.6408200000000001  0.65077  0.95226  1.0000
  C   C30       1.0  0.895  0.7223800000000002  0.05273  1.0000
  C   C31       1.0  0.5580700000000001  0.62345  0.91598  1.0000
  C   C32       1.0  0.4761900000000001  0.57772  0.9204200000000002  1.0000
  C   C33       1.0  0.39863  0.55255  0.88617  1.0000
  C   C34       1.0  0.40089  0.57282  0.84705  1.0000
  C   C35       1.0  0.4816  0.6195000000000003  0.84199  1.0000
  C   C36       1.0  0.56012  0.6429300000000002  0.87635  1.0000
  C   C37       1.0  0.48394  0.6503  0.80218  1.0000
  C   C38       1.0  0.47831  0.5856800000000001  0.76338  1.0000
  C   C39       1.0  0.48639999999999994  0.61696  0.72716  1.0000
  C   C40       1.0  0.50041  0.71404  0.72878  1.0000
  C   C41       1.0  0.50568  0.7793300000000002  0.76715  1.0000
  C   C42       1.0  0.49746999999999997  0.7479  0.8033  1.0000
  C   C43       1.0  0.50893  0.7470000000000002  0.68996  1.0000
  C   C44       1.0  0.49369  0.82151  0.84182  1.0000
  C   C45       1.0  0.17779000000000006  0.7004  0.05584  1.0000
  C   C46       1.0  0.25748  0.72086  0.03616  1.0000
  C   C47       1.0  0.2353  0.7726800000000001  0.00434  1.0000
  C   C48       1.0  0.3031  0.79077  0.98208  1.0000
  C   C49       1.0  0.39484  0.75805  0.99302  1.0000
  C   C50       1.0  0.41745  0.70886  0.02553  1.0000
  C   C51       1.0  0.35006  0.68969  0.04808  1.0000
  C   C52       1.0  0.27764  0.84306  0.94711  1.0000
  C   C53       1.0  0.3768  0.6424300000000002  0.08425  1.0000
  C   C54       1.0  0.42218  0.5561  0.07989  1.0000
  C   C55       1.0  0.4471600000000001  0.5126000000000001  0.11422  1.0000
  C   C56       1.0  0.42727000000000004  0.5538500000000001  0.15339000000000005  1.0000
  C   C57       1.0  0.38104  0.63971  0.15832  1.0000
  C   C58       1.0  0.3574300000000001  0.6839000000000001  0.12385  1.0000
  C   C59       1.0  0.35072  0.68235  0.19813  1.0000
  C   C60       1.0  0.4151700000000001  0.7152400000000002  0.23696  1.0000
  C   C61       1.0  0.38378  0.75946  0.27311  1.0000
  C   C62       1.0  0.28663  0.7718600000000001  0.2714  1.0000
  C   C63       1.0  0.22139  0.7391900000000002  0.23295  1.0000
  C   C64       1.0  0.25305  0.6951199999999998  0.19685  1.0000
  C   C65       1.0  0.25313  0.81858  0.31019  1.0000
  C   C66       1.0  0.18014  0.6523000000000004  0.15827  1.0000
  C   C67       1.0  0.87907  0.35667  0.05524  1.0000
  C   C68       1.0  0.77974  0.3164800000000001  0.03575  1.0000
  C   C69       1.0  0.76999  0.23241000000000006  0.00428  1.0000
  C   C70       1.0  0.67992  0.19187999999999997  0.98252  1.0000
  C   C71       1.0  0.59951  0.23604000000000014  0.9936500000000003  1.0000
  C   C72       1.0  0.60955  0.3174  0.02606  1.0000
  C   C73       1.0  0.69929  0.35943000000000014  0.04797  1.0000
  C   C74       1.0  0.6688700000000001  0.10548000000000018  0.9470500000000002  1.0000
  C   C75       1.0  0.70796  0.4420500000000001  0.08423  1.0000
  C   C76       1.0  0.65778  0.52379  0.07988  1.0000
  C   C77       1.0  0.6667600000000001  0.6013500000000003  0.11412  1.0000
  C   C78       1.0  0.72621  0.5991700000000002  0.15316000000000005  1.0000
  C   C79       1.0  0.77798  0.51854  0.1581  1.0000
  C   C80       1.0  0.76696  0.43997  0.12377  1.0000
  C   C81       1.0  0.8485599999999999  0.51595  0.19774  1.0000
  C   C82       1.0  0.82254  0.52163  0.23662000000000002  1.0000
  C   C83       1.0  0.8895200000000002  0.5136300000000001  0.27282  1.0000
  C   C84       1.0  0.98487  0.4997000000000001  0.27104  1.0000
  C   C85       1.0  0.01206  0.49407000000000006  0.23258  1.0000
  C   C86       1.0  0.9449  0.5016  0.19635  1.0000
  C   C87       1.0  0.05613000000000003  0.49125  0.30977  1.0000
  C   C88       1.0  0.9805400000000002  0.50515  0.15775  1.0000
  C   C89       1.0  0.94919  0.9270600000000002  0.55551  1.0000
  C   C90       1.0  0.9693800000000001  0.006769999999999989  0.53586  1.0000
  C   C91       1.0  0.022260000000000002  0.9850200000000002  0.50442  1.0000
  C   C92       1.0  0.04098999999999998  0.05324000000000004  0.48249  1.0000
  C   C93       1.0  0.007979999999999984  0.14487  0.49327  1.0000
  C   C94       1.0  0.95865  0.16718  0.52574  1.0000
  C   C95       1.0  0.93901  0.09942000000000001  0.54797  1.0000
  C   C96       1.0  0.09182  0.027629999999999988  0.44706  1.0000
  C   C97       1.0  0.89202  0.12655999999999998  0.58416  1.0000
  C   C98       1.0  0.8057400000000002  0.17216  0.57983  1.0000
  C   C99       1.0  0.76221  0.1975  0.61414  1.0000
  C   C100      1.0  0.80346  0.17753  0.65327  1.0000
  C   C101      1.0  0.88917  0.13101000000000004  0.65812  1.0000
  C   C102      1.0  0.93353  0.10738000000000006  0.62374  1.0000
  C   C103      1.0  0.9315700000000002  0.10045000000000016  0.6978200000000002  1.0000
  C   C104      1.0  0.96441  0.16527000000000008  0.73652  1.0000
  C   C105      1.0  0.008840000000000006  0.13392  0.77262  1.0000
  C   C106      1.0  0.021119999999999965  0.036770000000000004  0.77093  1.0000
  C   C107      1.0  0.9884  0.9712700000000001  0.73258  1.0000
  C   C108      1.0  0.9441100000000002  0.002820000000000019  0.6965  1.0000
  C   C109      1.0  0.06816000000000015  0.004130000000000137  0.8096800000000002  1.0000
  C   C110      1.0  0.9016300000000002  0.9301  0.65767  1.0000
  C   C111      1.0  0.6063900000000001  0.6287500000000003  0.55489  1.0000
  C   C112      1.0  0.56634  0.52924  0.53561  1.0000
  C   C113      1.0  0.48229000000000005  0.51942  0.50408  1.0000
  C   C114      1.0  0.44184000000000007  0.4294900000000001  0.48224  1.0000
  C   C115      1.0  0.4857000000000001  0.3490300000000001  0.4935100000000001  1.0000
  C   C116      1.0  0.5673100000000001  0.35904000000000014  0.5259200000000003  1.0000
  C   C117      1.0  0.60924  0.44884000000000013  0.54787  1.0000
  C   C118      1.0  0.35476  0.41948  0.44723  1.0000
  C   C119      1.0  0.69192  0.45776  0.58421  1.0000
  C   C120      1.0  0.7738  0.40768  0.57991  1.0000
  C   C121      1.0  0.85142  0.41685000000000016  0.61416  1.0000
  C   C122      1.0  0.84913  0.47614  0.65318  1.0000
  C   C123      1.0  0.7682800000000003  0.5275600000000001  0.6581500000000001  1.0000
  C   C124      1.0  0.68979  0.5166300000000001  0.62375  1.0000
  C   C125      1.0  0.7654700000000002  0.59787  0.6978700000000002  1.0000
  C   C126      1.0  0.77173  0.57216  0.73686  1.0000
  C   C127      1.0  0.76365  0.6394500000000001  0.77302  1.0000
  C   C128      1.0  0.74942  0.7348000000000002  0.77122  1.0000
  C   C129      1.0  0.7437500000000002  0.7617200000000001  0.73265  1.0000
  C   C130      1.0  0.7515000000000002  0.69428  0.69647  1.0000
  C   C131      1.0  0.7405700000000002  0.80646  0.80989  1.0000
  C   C132      1.0  0.75553  0.7290500000000002  0.65759  1.0000
  C   C133      1.0  0.07369999999999999  0.3943000000000001  0.44506  1.0000
  C   C134      1.0  0.99309  0.4337  0.46442  1.0000
  C   C135      1.0  0.014640000000000002  0.51754  0.49597  1.0000
  C   C136      1.0  0.94643  0.55845  0.51781  1.0000
  C   C137      1.0  0.85478  0.51475  0.50675  1.0000
  C   C138      1.0  0.83258  0.43312000000000006  0.47443  1.0000
  C   C139      1.0  0.90033  0.3909300000000001  0.45229  1.0000
  C   C140      1.0  0.97148  0.64521  0.55299  1.0000
  C   C141      1.0  0.8732200000000001  0.30813000000000007  0.4160300000000001  1.0000
  C   C142      1.0  0.8276000000000002  0.22619  0.42042  1.0000
  C   C143      1.0  0.8025500000000001  0.14864000000000005  0.38617  1.0000
  C   C144      1.0  0.8228700000000001  0.15097000000000008  0.34706000000000004  1.0000
  C   C145      1.0  0.86952  0.23177000000000006  0.34209  1.0000
  C   C146      1.0  0.8927700000000002  0.3102700000000001  0.37641  1.0000
  C   C147      1.0  0.90057  0.23436000000000004  0.30235  1.0000
  C   C148      1.0  0.8360400000000004  0.22853000000000007  0.2635  1.0000
  C   C149      1.0  0.86716  0.23647000000000007  0.22721  1.0000
  C   C150      1.0  0.96424  0.25069  0.22882  1.0000
  C   C151      1.0  0.029490000000000065  0.2560000000000001  0.2672700000000001  1.0000
  C   C152      1.0  0.9983500000000002  0.2480900000000001  0.3036000000000001  1.0000
  C   C153      1.0  0.9973  0.25782  0.18988  1.0000
  C   C154      1.0  0.07137000000000003  0.24485000000000004  0.34262  1.0000
  C   C155      1.0  0.37014000000000014  0.04954  0.44457  1.0000
  C   C156      1.0  0.47031  0.03051000000000002  0.46424  1.0000
  C   C157      1.0  0.48096000000000005  0.9784000000000003  0.49597  1.0000
  C   C158      1.0  0.57109  0.9594300000000001  0.51767  1.0000
  C   C159      1.0  0.65168  0.9921900000000002  0.5065  1.0000
  C   C160      1.0  0.64144  0.04152000000000003  0.47401000000000004  1.0000
  C   C161      1.0  0.5512300000000002  0.06134000000000007  0.4520500000000001  1.0000
  C   C162      1.0  0.5806200000000002  0.90835  0.553  1.0000
  C   C163      1.0  0.54233  0.10781  0.41562  1.0000
  C   C164      1.0  0.59213  0.19404  0.41981  1.0000
  C   C165      1.0  0.58287  0.23757000000000003  0.38548  1.0000
  C   C166      1.0  0.52361  0.19640000000000005  0.34647  1.0000
  C   C167      1.0  0.47219  0.11069  0.34169  1.0000
  C   C168      1.0  0.48336000000000007  0.06631  0.37613  1.0000
  C   C169      1.0  0.40178  0.06853000000000002  0.30204  1.0000
  C   C170      1.0  0.4277  0.03516  0.26318  1.0000
  C   C171      1.0  0.36066  0.9907500000000002  0.22706  1.0000
  C   C172      1.0  0.26521  0.9787  0.22885  1.0000
  C   C173      1.0  0.23815  0.01191  0.2673  1.0000
  C   C174      1.0  0.30531  0.056139999999999995  0.30343  1.0000
  C   C175      1.0  0.19386000000000003  0.9314000000000002  0.19017  1.0000
  C   C176      1.0  0.27013  0.09776000000000003  0.34217  1.0000
  C   C177      1.0  0.94128  0.94534  0.88804  1.0000
  C   C178      1.0  0.0551  0.054190000000000016  0.11179  1.0000
  C   C179      1.0  0.30719000000000013  0.80587  0.61253  1.0000
  C   C180      1.0  0.19329  0.6943700000000003  0.38818  1.0000
  O   O1        1.0  0.22705000000000006  0.06591000000000001  0.93214  1.0000
  O   O2        1.0  0.38480000000000003  0.09725000000000003  0.94346  1.0000
  O   O3        1.0  0.15228  0.26154  0.07056  1.0000
  O   O4        1.0  0.12272  0.41166  0.06544  1.0000
  O   O5        1.0  0.1484800000000001  0.9696700000000001  0.65537  1.0000
  O   O6        1.0  0.17272000000000007  0.8549400000000004  0.6917100000000003  1.0000
  O   O7        1.0  0.29454  0.97078  0.85774  1.0000
  O   O8        1.0  0.43434000000000006  0.03779000000000001  0.85887  1.0000
  O   O9        1.0  0.027420000000000114  0.9652700000000002  0.9072300000000002  1.0000
  O   O10       1.0  0.7045200000000003  0.86732  0.93148  1.0000
  O   O11       1.0  0.5583000000000001  0.8468400000000003  0.94324  1.0000
  O   O12       1.0  0.91688  0.8096500000000002  0.07067  1.0000
  O   O13       1.0  0.94525  0.65496  0.06423  1.0000
  O   O14       1.0  0.50607  0.6850500000000003  0.65553  1.0000
  O   O15       1.0  0.51942  0.83651  0.69091  1.0000
  O   O16       1.0  0.5599  0.88869  0.8566  1.0000
  O   O17       1.0  0.42342  0.82069  0.85896  1.0000
  O   O18       1.0  0.87338  0.9448400000000002  0.90667  1.0000
  O   O19       1.0  0.13261  0.77294  0.06864  1.0000
  O   O20       1.0  0.15587  0.6155  0.05685  1.0000
  O   O21       1.0  0.19023999999999994  0.84997  0.93024  1.0000
  O   O22       1.0  0.3455700000000001  0.8811000000000002  0.93551  1.0000
  O   O23       1.0  0.3144300000000001  0.8496  0.34486  1.0000
  O   O24       1.0  0.16335  0.8282600000000001  0.30869  1.0000
  O   O25       1.0  0.11360000000000002  0.70372  0.14298  1.0000
  O   O26       1.0  0.18092  0.56492  0.14139  1.0000
  O   O27       1.0  0.05459  0.9674000000000003  0.09354  1.0000
  O   O28       1.0  0.93551  0.2954  0.06825  1.0000
  O   O29       1.0  0.90398  0.44146  0.0564  1.0000
  O   O30       1.0  0.73876  0.08285  0.92934  1.0000
  O   O31       1.0  0.58915  0.05641000000000003  0.93521  1.0000
  O   O32       1.0  0.028730000000000026  0.4947900000000001  0.34445  1.0000
  O   O33       1.0  0.14461  0.4809800000000001  0.30861  1.0000
  O   O34       1.0  0.03258000000000001  0.43870000000000015  0.14308  1.0000
  O   O35       1.0  0.96264  0.57538  0.14066  1.0000
  O   O36       1.0  0.034240000000000013  0.12042  0.09238  1.0000
  O   O37       1.0  0.02261000000000005  0.8822300000000001  0.56785  1.0000
  O   O38       1.0  0.86496  0.9043000000000002  0.55691  1.0000
  O   O39       1.0  0.09689999999999997  0.9402900000000001  0.42961  1.0000
  O   O40       1.0  0.13023  0.09412999999999998  0.43487  1.0000
  O   O41       1.0  0.0985  0.06665999999999996  0.84419  1.0000
  O   O42       1.0  0.07839000000000013  0.91488  0.8088600000000002  1.0000
  O   O43       1.0  0.95259  0.8627500000000002  0.64243  1.0000
  O   O44       1.0  0.8144500000000001  0.9321  0.64078  1.0000
  O   O45       1.0  0.2209  0.8047100000000001  0.59359  1.0000
  O   O46       1.0  0.54565  0.6857400000000002  0.56773  1.0000
  O   O47       1.0  0.69145  0.6535400000000002  0.55589  1.0000
  O   O48       1.0  0.3325300000000001  0.4893400000000002  0.42962  1.0000
  O   O49       1.0  0.30543  0.33995  0.4352  1.0000
  O   O50       1.0  0.74193  0.77924  0.84436  1.0000
  O   O51       1.0  0.73028  0.8948300000000002  0.8084  1.0000
  O   O52       1.0  0.6897300000000001  0.78174  0.64252  1.0000
  O   O53       1.0  0.82504  0.7098  0.64017  1.0000
  O   O54       1.0  0.37537  0.78896  0.59399  1.0000
  O   O55       1.0  0.11898  0.45581  0.43299  1.0000
  O   O56       1.0  0.09638999999999998  0.3087  0.44317  1.0000
  O   O57       1.0  0.05904000000000008  0.66733  0.57047  1.0000
  O   O58       1.0  0.90441  0.69549  0.56485  1.0000
  O   O59       1.0  0.93494  0.25541  0.15548  1.0000
  O   O60       1.0  0.08715000000000002  0.26748  0.19096  1.0000
  O   O61       1.0  0.13858  0.31106  0.35762  1.0000
  O   O62       1.0  0.06988000000000003  0.17481  0.35972  1.0000
  O   O63       1.0  0.19424000000000002  0.6265  0.40705000000000013  1.0000
  O   O64       1.0  0.31277  0.97646  0.43232  1.0000
  O   O65       1.0  0.34677  0.13389  0.44319  1.0000
  O   O66       1.0  0.51004  0.90297  0.57016  1.0000
  O   O67       1.0  0.6597400000000001  0.8705999999999999  0.56529  1.0000
  O   O68       1.0  0.22089  0.9001400000000003  0.15554  1.0000
  O   O69       1.0  0.10545  0.9214100000000002  0.19168  1.0000
  O   O70       1.0  0.21775  0.04586000000000002  0.35697  1.0000
  O   O71       1.0  0.28802  0.18468000000000007  0.35956  1.0000
  O   O72       1.0  0.21237000000000006  0.7807400000000002  0.40687  1.0000
