data_image0
_chemical_formula_structural       Cd12H96C160N32Cl8
_chemical_formula_sum              "Cd12 H96 C160 N32 Cl8"
_cell_length_a       5.71827
_cell_length_b       25.35148
_cell_length_c       27.195720000000005
_cell_angle_alpha    89.99953
_cell_angle_beta     89.99953
_cell_angle_gamma    90.0

_symmetry_space_group_name_H-M    'P 1'
_symmetry_Int_Tables_number       1

loop_
  _symmetry_equiv_pos_as_xyz
  'x,y,z'

loop_
  _atom_site_type_symbol
  _atom_site_label
  _atom_site_symmetry_multiplicity
  _atom_site_fract_x
  _atom_site_fract_y
  _atom_site_fract_z
  _atom_site_occupancy
  Cd  Cd1       1.0  0.67649  0.45576  0.50385  1.0000
  Cd  Cd2       1.0  0.17643999999999999  0.54424  0.99611  1.0000
  Cd  Cd3       1.0  0.32349  0.95576  0.49615  1.0000
  Cd  Cd4       1.0  0.82355  0.04424  0.00389  1.0000
  Cd  Cd5       1.0  0.32349  0.54424  0.49615  1.0000
  Cd  Cd6       1.0  0.82355  0.45576  0.00389  1.0000
  Cd  Cd7       1.0  0.6765  0.04424  0.50385  1.0000
  Cd  Cd8       1.0  0.17643999999999999  0.95576  0.99611  1.0000
  Cd  Cd9       1.0  0.37343  0.25  0.23408  1.0000
  Cd  Cd10      1.0  0.87357  0.75  0.26585  1.0000
  Cd  Cd11      1.0  0.62655  0.75  0.76592  1.0000
  Cd  Cd12      1.0  0.12641  0.25  0.7341499999999999  1.0000
  H   H1        1.0  0.77235  0.54136  0.32017  1.0000
  H   H2        1.0  0.49274  0.4566  0.31098  1.0000
  H   H3        1.0  0.9475399999999999  0.34904  0.43079  1.0000
  H   H4        1.0  0.84851  0.35577  0.52903  1.0000
  H   H5        1.0  0.51401  0.32955  0.34905  1.0000
  H   H6        1.0  0.030229999999999996  0.33002  0.2376  1.0000
  H   H7        1.0  0.78878  0.40242  0.27781  1.0000
  H   H8        1.0  0.93963  0.44018  0.35702  1.0000
  H   H9        1.0  0.71491  0.66853  0.37598  1.0000
  H   H10       1.0  0.23417999999999997  0.67448  0.27209  1.0000
  H   H11       1.0  0.44465999999999994  0.59502  0.30812  1.0000
  H   H12       1.0  0.25377  0.54836  0.37860999999999995  1.0000
  H   H13       1.0  0.27234  0.45866  0.17982999999999996  1.0000
  H   H14       1.0  0.99279  0.54342  0.18901  1.0000
  H   H15       1.0  0.44748  0.65096  0.06921  1.0000
  H   H16       1.0  0.34846  0.64424  0.97097  1.0000
  H   H17       1.0  0.01404  0.67046  0.15095  1.0000
  H   H18       1.0  0.53028  0.66997  0.2624  1.0000
  H   H19       1.0  0.28883  0.59757  0.22218  1.0000
  H   H20       1.0  0.43962  0.55984  0.14296  1.0000
  H   H21       1.0  0.21488999999999997  0.33147  0.12402  1.0000
  H   H22       1.0  0.7341299999999998  0.32552  0.22792  1.0000
  H   H23       1.0  0.94463  0.40498  0.19188  1.0000
  H   H24       1.0  0.75376  0.45164  0.1214  1.0000
  H   H25       1.0  0.22761  0.04136  0.67983  1.0000
  H   H26       1.0  0.50723  0.9566  0.6890199999999999  1.0000
  H   H27       1.0  0.052469999999999996  0.84905  0.56922  1.0000
  H   H28       1.0  0.15148  0.8557699999999999  0.47097  1.0000
  H   H29       1.0  0.48598  0.8295499999999999  0.65095  1.0000
  H   H30       1.0  0.96975  0.83002  0.7624099999999999  1.0000
  H   H31       1.0  0.21120999999999998  0.90243  0.72219  1.0000
  H   H32       1.0  0.06035999999999999  0.94018  0.64298  1.0000
  H   H33       1.0  0.28508  0.16853000000000004  0.6240199999999999  1.0000
  H   H34       1.0  0.7658  0.17448  0.72791  1.0000
  H   H35       1.0  0.55532  0.09502  0.69188  1.0000
  H   H36       1.0  0.7461899999999999  0.04836  0.62139  1.0000
  H   H37       1.0  0.72764  0.95866  0.82017  1.0000
  H   H38       1.0  0.0072  0.04342  0.81099  1.0000
  H   H39       1.0  0.55253  0.15096  0.93079  1.0000
  H   H40       1.0  0.65153  0.14424  0.029029999999999997  1.0000
  H   H41       1.0  0.9859499999999999  0.17044999999999996  0.84905  1.0000
  H   H42       1.0  0.46970999999999996  0.16997  0.7376  1.0000
  H   H43       1.0  0.7111599999999999  0.09757  0.77782  1.0000
  H   H44       1.0  0.56038  0.05984  0.85704  1.0000
  H   H45       1.0  0.7850999999999999  0.83148  0.87598  1.0000
  H   H46       1.0  0.26586  0.8255199999999999  0.77209  1.0000
  H   H47       1.0  0.05534  0.90498  0.80812  1.0000
  H   H48       1.0  0.24619  0.9516400000000002  0.87861  1.0000
  H   H49       1.0  0.22763999999999998  0.45864  0.67983  1.0000
  H   H50       1.0  0.50724  0.5434  0.6890199999999999  1.0000
  H   H51       1.0  0.05244999999999999  0.6509499999999999  0.56922  1.0000
  H   H52       1.0  0.15148  0.64423  0.47097  1.0000
  H   H53       1.0  0.48598  0.67045  0.65095  1.0000
  H   H54       1.0  0.96975  0.6699799999999999  0.7624  1.0000
  H   H55       1.0  0.21120999999999998  0.59757  0.72219  1.0000
  H   H56       1.0  0.06035  0.55982  0.64298  1.0000
  H   H57       1.0  0.28508  0.33147  0.6240199999999999  1.0000
  H   H58       1.0  0.7658  0.32552  0.72791  1.0000
  H   H59       1.0  0.55533  0.40498  0.69188  1.0000
  H   H60       1.0  0.74621  0.45164  0.6214  1.0000
  H   H61       1.0  0.7276499999999999  0.54134  0.82017  1.0000
  H   H62       1.0  0.00719  0.45658  0.81099  1.0000
  H   H63       1.0  0.5525  0.34904  0.93079  1.0000
  H   H64       1.0  0.65152  0.35576  0.02904  1.0000
  H   H65       1.0  0.98594  0.32954  0.84905  1.0000
  H   H66       1.0  0.46970999999999996  0.33003  0.7376  1.0000
  H   H67       1.0  0.7111599999999999  0.40243  0.77782  1.0000
  H   H68       1.0  0.56037  0.44015999999999994  0.85704  1.0000
  H   H69       1.0  0.7850999999999999  0.6685200000000001  0.87598  1.0000
  H   H70       1.0  0.26586  0.67448  0.77208  1.0000
  H   H71       1.0  0.05536  0.59502  0.80812  1.0000
  H   H72       1.0  0.24621999999999994  0.54835  0.8785999999999999  1.0000
  H   H73       1.0  0.77237  0.95864  0.32018  1.0000
  H   H74       1.0  0.4927499999999999  0.0434  0.31098  1.0000
  H   H75       1.0  0.9475199999999998  0.15095  0.43078  1.0000
  H   H76       1.0  0.8485  0.14423  0.52903  1.0000
  H   H77       1.0  0.514  0.17044999999999996  0.34905  1.0000
  H   H78       1.0  0.030239999999999996  0.16998  0.2376  1.0000
  H   H79       1.0  0.78878  0.09757  0.27781  1.0000
  H   H80       1.0  0.93963  0.05982  0.35702  1.0000
  H   H81       1.0  0.7149  0.8314700000000002  0.37598  1.0000
  H   H82       1.0  0.23417999999999997  0.8255199999999999  0.27209  1.0000
  H   H83       1.0  0.44467  0.90497  0.30813  1.0000
  H   H84       1.0  0.2538  0.95163  0.37860999999999995  1.0000
  H   H85       1.0  0.27234  0.04134  0.17982999999999996  1.0000
  H   H86       1.0  0.99279  0.95658  0.18902  1.0000
  H   H87       1.0  0.4474599999999999  0.8490400000000001  0.06921  1.0000
  H   H88       1.0  0.34846  0.85576  0.97097  1.0000
  H   H89       1.0  0.01404  0.82954  0.15095  1.0000
  H   H90       1.0  0.53028  0.8300299999999999  0.2624  1.0000
  H   H91       1.0  0.28881999999999997  0.90243  0.22218  1.0000
  H   H92       1.0  0.43961  0.94016  0.14296  1.0000
  H   H93       1.0  0.21488  0.16852  0.12402  1.0000
  H   H94       1.0  0.7341299999999998  0.17447  0.22791  1.0000
  H   H95       1.0  0.9446399999999999  0.09502  0.19188  1.0000
  H   H96       1.0  0.7537899999999998  0.04836  0.12139  1.0000
  C   C1        1.0  0.70997  0.53055  0.40124  1.0000
  C   C2        1.0  0.68813  0.51905  0.34917  1.0000
  C   C3        1.0  0.54795  0.47595  0.34455  1.0000
  C   C4        1.0  0.47932  0.4596199999999999  0.39351  1.0000
  C   C5        1.0  0.32657  0.41827  0.40301  1.0000
  C   C6        1.0  0.21563  0.40878  0.44906  1.0000
  C   C7        1.0  0.027439999999999996  0.37488  0.45771  1.0000
  C   C8        1.0  0.95465  0.38282  0.50749  1.0000
  C   C9        1.0  0.12597  0.41841  0.52875  1.0000
  C   C10       1.0  0.84178  0.57188  0.42002999999999996  1.0000
  C   C11       1.0  0.23843  0.38906  0.35908  1.0000
  C   C12       1.0  0.35447999999999996  0.34761  0.33504  1.0000
  C   C13       1.0  0.0774  0.34727  0.27279  1.0000
  C   C14       1.0  0.94634  0.38723  0.295  1.0000
  C   C15       1.0  0.03047  0.40808  0.33867  1.0000
  C   C16       1.0  0.97045  0.60428  0.38328  1.0000
  C   C17       1.0  0.87529  0.65038  0.36247  1.0000
  C   C18       1.0  0.17259  0.65422  0.30479999999999996  1.0000
  C   C19       1.0  0.28589  0.61036  0.32459  1.0000
  C   C20       1.0  0.18043999999999996  0.58484  0.36403  1.0000
  C   C21       1.0  0.20994999999999997  0.46945  0.09876  1.0000
  C   C22       1.0  0.18812999999999996  0.48095  0.15084  1.0000
  C   C23       1.0  0.04792  0.52407  0.15545  1.0000
  C   C24       1.0  0.97933  0.54039  0.10647999999999999  1.0000
  C   C25       1.0  0.82659  0.58174  0.09699000000000002  1.0000
  C   C26       1.0  0.7156099999999999  0.59123  0.050929999999999996  1.0000
  C   C27       1.0  0.52741  0.62513  0.04229  1.0000
  C   C28       1.0  0.45462  0.61719  0.99251  1.0000
  C   C29       1.0  0.6259399999999999  0.58159  0.97124  1.0000
  C   C30       1.0  0.34177  0.42812  0.07997  1.0000
  C   C31       1.0  0.73845  0.61096  0.14091  1.0000
  C   C32       1.0  0.8545  0.65239  0.16496  1.0000
  C   C33       1.0  0.57743  0.65272  0.22721  1.0000
  C   C34       1.0  0.44637  0.61277  0.20499999999999996  1.0000
  C   C35       1.0  0.5304899999999999  0.59193  0.16132  1.0000
  C   C36       1.0  0.47043  0.39573  0.11672  1.0000
  C   C37       1.0  0.3752599999999999  0.34962  0.13753  1.0000
  C   C38       1.0  0.67255  0.34579  0.1952  1.0000
  C   C39       1.0  0.78586  0.38964  0.17542  1.0000
  C   C40       1.0  0.68042  0.41516  0.13598  1.0000
  C   C41       1.0  0.29001  0.030549999999999997  0.59876  1.0000
  C   C42       1.0  0.31187  0.01905  0.65083  1.0000
  C   C43       1.0  0.45204  0.97595  0.6554499999999999  1.0000
  C   C44       1.0  0.52066  0.95962  0.60649  1.0000
  C   C45       1.0  0.67342  0.91827  0.597  1.0000
  C   C46       1.0  0.7843699999999999  0.90878  0.55094  1.0000
  C   C47       1.0  0.9725599999999998  0.87488  0.5423  1.0000
  C   C48       1.0  0.045349999999999994  0.8828199999999999  0.49251  1.0000
  C   C49       1.0  0.8740299999999999  0.9184100000000001  0.47125  1.0000
  C   C50       1.0  0.1582  0.07188  0.57996  1.0000
  C   C51       1.0  0.7615599999999999  0.88906  0.64092  1.0000
  C   C52       1.0  0.64551  0.84761  0.6649699999999998  1.0000
  C   C53       1.0  0.9225799999999998  0.84728  0.7272200000000001  1.0000
  C   C54       1.0  0.05365  0.88723  0.70501  1.0000
  C   C55       1.0  0.96952  0.90808  0.66133  1.0000
  C   C56       1.0  0.02953  0.10428000000000001  0.61671  1.0000
  C   C57       1.0  0.12468999999999998  0.15038  0.6375299999999999  1.0000
  C   C58       1.0  0.82739  0.15421  0.6952  1.0000
  C   C59       1.0  0.71409  0.11036  0.67541  1.0000
  C   C60       1.0  0.8195299999999999  0.08484999999999998  0.63597  1.0000
  C   C61       1.0  0.79003  0.96945  0.90124  1.0000
  C   C62       1.0  0.81184  0.98096  0.8491699999999999  1.0000
  C   C63       1.0  0.9520699999999999  0.02407  0.84456  1.0000
  C   C64       1.0  0.02067  0.04039  0.89352  1.0000
  C   C65       1.0  0.17341  0.08173999999999998  0.90301  1.0000
  C   C66       1.0  0.28439  0.09123  0.94907  1.0000
  C   C67       1.0  0.47259  0.12513  0.95771  1.0000
  C   C68       1.0  0.54538  0.11718999999999999  0.00749  1.0000
  C   C69       1.0  0.37405999999999995  0.08159  0.028749999999999998  1.0000
  C   C70       1.0  0.6582  0.92812  0.92003  1.0000
  C   C71       1.0  0.26155  0.11096  0.85909  1.0000
  C   C72       1.0  0.14549  0.15239  0.83504  1.0000
  C   C73       1.0  0.42254999999999987  0.15272  0.77279  1.0000
  C   C74       1.0  0.55361  0.11276  0.795  1.0000
  C   C75       1.0  0.46951  0.09193  0.83868  1.0000
  C   C76       1.0  0.52954  0.89573  0.88328  1.0000
  C   C77       1.0  0.62472  0.8496199999999999  0.86247  1.0000
  C   C78       1.0  0.32743  0.8457900000000002  0.8048  1.0000
  C   C79       1.0  0.21412  0.88964  0.8245899999999999  1.0000
  C   C80       1.0  0.31954999999999995  0.9151600000000001  0.86403  1.0000
  C   C81       1.0  0.29001  0.46945  0.59876  1.0000
  C   C82       1.0  0.31186  0.48095  0.65083  1.0000
  C   C83       1.0  0.45204  0.52405  0.6554499999999999  1.0000
  C   C84       1.0  0.52066  0.54038  0.60649  1.0000
  C   C85       1.0  0.67342  0.58173  0.597  1.0000
  C   C86       1.0  0.78436  0.59122  0.55094  1.0000
  C   C87       1.0  0.97254  0.62512  0.5423  1.0000
  C   C88       1.0  0.04532999999999999  0.61718  0.49251  1.0000
  C   C89       1.0  0.8740099999999998  0.58159  0.47125  1.0000
  C   C90       1.0  0.15821  0.42812  0.57997  1.0000
  C   C91       1.0  0.76155  0.61094  0.64092  1.0000
  C   C92       1.0  0.64551  0.65239  0.66496  1.0000
  C   C93       1.0  0.9225799999999998  0.65272  0.72721  1.0000
  C   C94       1.0  0.05365  0.61277  0.705  1.0000
  C   C95       1.0  0.9695099999999999  0.59192  0.66133  1.0000
  C   C96       1.0  0.02953  0.39572000000000007  0.61672  1.0000
  C   C97       1.0  0.12468999999999998  0.3496099999999999  0.6375299999999999  1.0000
  C   C98       1.0  0.82739  0.34578  0.6952  1.0000
  C   C99       1.0  0.7141  0.38964  0.67541  1.0000
  C   C100      1.0  0.81954  0.41515  0.63597  1.0000
  C   C101      1.0  0.79004  0.53055  0.90124  1.0000
  C   C102      1.0  0.8118599999999999  0.51904  0.8491699999999999  1.0000
  C   C103      1.0  0.9520699999999999  0.47593  0.84455  1.0000
  C   C104      1.0  0.02066  0.45960999999999996  0.89352  1.0000
  C   C105      1.0  0.1734  0.41825  0.90302  1.0000
  C   C106      1.0  0.28437  0.40876  0.94907  1.0000
  C   C107      1.0  0.47257  0.37487000000000004  0.95771  1.0000
  C   C108      1.0  0.54536  0.38280999999999993  0.0075  1.0000
  C   C109      1.0  0.37404  0.4184  0.02876  1.0000
  C   C110      1.0  0.65821  0.57188  0.92003  1.0000
  C   C111      1.0  0.26154  0.38904  0.85909  1.0000
  C   C112      1.0  0.14548  0.3476  0.83504  1.0000
  C   C113      1.0  0.42254999999999987  0.34728  0.77279  1.0000
  C   C114      1.0  0.55361  0.38723  0.7950099999999999  1.0000
  C   C115      1.0  0.4694999999999999  0.40807000000000004  0.83869  1.0000
  C   C116      1.0  0.52955  0.60427  0.88328  1.0000
  C   C117      1.0  0.62472  0.65038  0.86247  1.0000
  C   C118      1.0  0.32744  0.65421  0.8048  1.0000
  C   C119      1.0  0.21412999999999993  0.61035  0.8245899999999999  1.0000
  C   C120      1.0  0.31956  0.58484  0.86403  1.0000
  C   C121      1.0  0.70997  0.96945  0.40124  1.0000
  C   C122      1.0  0.68812  0.98095  0.34917  1.0000
  C   C123      1.0  0.54795  0.02405  0.34455  1.0000
  C   C124      1.0  0.47932  0.04037  0.39351  1.0000
  C   C125      1.0  0.32656  0.08173  0.403  1.0000
  C   C126      1.0  0.21560999999999994  0.09122  0.44906  1.0000
  C   C127      1.0  0.02743  0.12512  0.4577  1.0000
  C   C128      1.0  0.9546399999999998  0.11718  0.50749  1.0000
  C   C129      1.0  0.12596  0.08159  0.52875  1.0000
  C   C130      1.0  0.84178  0.92812  0.42004  1.0000
  C   C131      1.0  0.23843  0.11094  0.35908  1.0000
  C   C132      1.0  0.35447  0.15238  0.33503  1.0000
  C   C133      1.0  0.0774  0.15272  0.27278  1.0000
  C   C134      1.0  0.94634  0.11276  0.29499  1.0000
  C   C135      1.0  0.03047  0.09192  0.33867  1.0000
  C   C136      1.0  0.9704599999999999  0.8957199999999998  0.38329  1.0000
  C   C137      1.0  0.87529  0.8496199999999999  0.36247  1.0000
  C   C138      1.0  0.17259  0.84578  0.30479999999999996  1.0000
  C   C139      1.0  0.2859  0.88964  0.32459  1.0000
  C   C140      1.0  0.18045  0.91515  0.36403  1.0000
  C   C141      1.0  0.20996  0.030549999999999997  0.09876  1.0000
  C   C142      1.0  0.18814  0.01904  0.15082999999999996  1.0000
  C   C143      1.0  0.04792  0.97593  0.15545  1.0000
  C   C144      1.0  0.97932  0.95961  0.10647999999999999  1.0000
  C   C145      1.0  0.8265799999999999  0.9182600000000001  0.09699000000000002  1.0000
  C   C146      1.0  0.7156  0.90877  0.05094  1.0000
  C   C147      1.0  0.5274  0.87487  0.04229  1.0000
  C   C148      1.0  0.45461  0.88281  0.99251  1.0000
  C   C149      1.0  0.62593  0.9184  0.97125  1.0000
  C   C150      1.0  0.3417899999999999  0.07188  0.07997  1.0000
  C   C151      1.0  0.73844  0.88904  0.14091  1.0000
  C   C152      1.0  0.8545  0.84761  0.16496  1.0000
  C   C153      1.0  0.57743  0.84728  0.22721  1.0000
  C   C154      1.0  0.44637  0.88723  0.20499999999999996  1.0000
  C   C155      1.0  0.53048  0.90807  0.16132  1.0000
  C   C156      1.0  0.47044  0.10427  0.11672  1.0000
  C   C157      1.0  0.3752599999999999  0.15038  0.13753  1.0000
  C   C158      1.0  0.67255  0.15421  0.1952  1.0000
  C   C159      1.0  0.78587  0.11036  0.17541  1.0000
  C   C160      1.0  0.6804299999999999  0.08484  0.13597  1.0000
  N   N1        1.0  0.57815  0.49421  0.42817  1.0000
  N   N2        1.0  0.27186  0.4376  0.49256  1.0000
  N   N3        1.0  0.27358  0.32753  0.2921  1.0000
  N   N4        1.0  0.97419  0.6740900000000001  0.32314999999999994  1.0000
  N   N5        1.0  0.07815  0.5058  0.07182  1.0000
  N   N6        1.0  0.7718499999999999  0.56242  0.00743  1.0000
  N   N7        1.0  0.77361  0.67247  0.2079  1.0000
  N   N8        1.0  0.47416  0.32592  0.17685  1.0000
  N   N9        1.0  0.42183  0.9942  0.57183  1.0000
  N   N10       1.0  0.72814  0.9376  0.50744  1.0000
  N   N11       1.0  0.7263999999999999  0.82753  0.7079  1.0000
  N   N12       1.0  0.025799999999999997  0.17408  0.67685  1.0000
  N   N13       1.0  0.92185  0.005789999999999999  0.92818  1.0000
  N   N14       1.0  0.22815  0.06241  0.9925699999999998  1.0000
  N   N15       1.0  0.22638  0.17247  0.7921  1.0000
  N   N16       1.0  0.52583  0.8259199999999999  0.8231599999999999  1.0000
  N   N17       1.0  0.42183  0.50579  0.57183  1.0000
  N   N18       1.0  0.72813  0.5624  0.50744  1.0000
  N   N19       1.0  0.7263999999999999  0.67247  0.7079  1.0000
  N   N20       1.0  0.025789999999999997  0.32591  0.67685  1.0000
  N   N21       1.0  0.92184  0.4942  0.92818  1.0000
  N   N22       1.0  0.22813999999999998  0.43758  0.9925699999999998  1.0000
  N   N23       1.0  0.22638  0.32753  0.7921099999999999  1.0000
  N   N24       1.0  0.52583  0.67408  0.82315  1.0000
  N   N25       1.0  0.57816  0.005789999999999999  0.42817  1.0000
  N   N26       1.0  0.27185  0.0624  0.49256  1.0000
  N   N27       1.0  0.27358  0.17247  0.2921  1.0000
  N   N28       1.0  0.97419  0.82591  0.32316  1.0000
  N   N29       1.0  0.07813  0.9942  0.07182  1.0000
  N   N30       1.0  0.7718299999999999  0.93758  0.00744  1.0000
  N   N31       1.0  0.7736  0.82753  0.2079  1.0000
  N   N32       1.0  0.47416  0.17408  0.17685  1.0000
  Cl  Cl1       1.0  0.01638  0.25  0.17714  1.0000
  Cl  Cl2       1.0  0.72967  0.25  0.29083  1.0000
  Cl  Cl3       1.0  0.51645  0.75  0.32278  1.0000
  Cl  Cl4       1.0  0.22973  0.75  0.2091  1.0000
  Cl  Cl5       1.0  0.98361  0.75  0.8228599999999999  1.0000
  Cl  Cl6       1.0  0.27032  0.75  0.70918  1.0000
  Cl  Cl7       1.0  0.48353999999999997  0.25  0.67722  1.0000
  Cl  Cl8       1.0  0.7702599999999998  0.25  0.7909000000000002  1.0000
