data_image0
_chemical_formula_structural       Zn16H72C120S24O52
_chemical_formula_sum              "Zn16 H72 C120 S24 O52"
_cell_length_a       14.62315
_cell_length_b       17.744679999999995
_cell_length_c       22.39698
_cell_angle_alpha    90.0
_cell_angle_beta     90.0
_cell_angle_gamma    89.86558

_symmetry_space_group_name_H-M    'P 1'
_symmetry_Int_Tables_number       1

loop_
  _symmetry_equiv_pos_as_xyz
  'x,y,z'

loop_
  _atom_site_type_symbol
  _atom_site_label
  _atom_site_symmetry_multiplicity
  _atom_site_fract_x
  _atom_site_fract_y
  _atom_site_fract_z
  _atom_site_occupancy
  Zn  Zn1       1.0  0.48909000000000014  0.33908  0.74365  1.0000
  Zn  Zn2       1.0  0.6503200000000002  0.25206999999999996  0.82466  1.0000
  Zn  Zn3       1.0  0.63715  0.24035  0.68071  1.0000
  Zn  Zn4       1.0  0.48370000000000013  0.16835  0.771  1.0000
  Zn  Zn5       1.0  0.51091  0.66092  0.24365  1.0000
  Zn  Zn6       1.0  0.34968000000000005  0.74793  0.32465999999999995  1.0000
  Zn  Zn7       1.0  0.3628500000000001  0.75965  0.18070999999999998  1.0000
  Zn  Zn8       1.0  0.5163000000000002  0.8316499999999998  0.271  1.0000
  Zn  Zn9       1.0  0.011370000000000003  0.83622  0.74127  1.0000
  Zn  Zn10      1.0  0.8497400000000003  0.75549  0.8233  1.0000
  Zn  Zn11      1.0  0.8628900000000003  0.73884  0.68  1.0000
  Zn  Zn12      1.0  0.01561  0.66496  0.7691999999999999  1.0000
  Zn  Zn13      1.0  0.9886300000000002  0.16378  0.24128  1.0000
  Zn  Zn14      1.0  0.15027000000000004  0.2445  0.3232999999999999  1.0000
  Zn  Zn15      1.0  0.13711  0.26117  0.18  1.0000
  Zn  Zn16      1.0  0.9843900000000001  0.3350399999999999  0.2692  1.0000
  H   H1        1.0  0.12763000000000002  0.15  0.8513899999999999  1.0000
  H   H2        1.0  0.23251000000000005  0.20012999999999995  0.85658  1.0000
  H   H3        1.0  0.22523000000000004  0.12036  0.81045  1.0000
  H   H4        1.0  0.59552  0.30887  0.97262  1.0000
  H   H5        1.0  0.53077  0.31557  0.03985  1.0000
  H   H6        1.0  0.6325600000000002  0.3685799999999999  0.031349999999999996  1.0000
  H   H7        1.0  0.54822  0.40117  0.11337  1.0000
  H   H8        1.0  0.47159  0.44703  0.16329  1.0000
  H   H9        1.0  0.57706  0.48932999999999993  0.14640999999999998  1.0000
  H   H10       1.0  0.31436  0.050309999999999994  0.961  1.0000
  H   H11       1.0  0.3807700000000001  0.01356  0.90115  1.0000
  H   H12       1.0  0.3632  0.11137  0.9062799999999998  1.0000
  H   H13       1.0  0.007570000000000002  0.15139  0.8540299999999998  1.0000
  H   H14       1.0  0.8999300000000002  0.13293  0.8212199999999998  1.0000
  H   H15       1.0  0.9148600000000002  0.21504  0.8639799999999999  1.0000
  H   H16       1.0  0.3021900000000001  0.9164399999999999  0.08409  1.0000
  H   H17       1.0  0.3239200000000001  0.93167  0.00678  1.0000
  H   H18       1.0  0.27733  0.005119999999999999  0.05071  1.0000
  H   H19       1.0  0.8723700000000002  0.85  0.35139  1.0000
  H   H20       1.0  0.7674900000000002  0.79987  0.35658  1.0000
  H   H21       1.0  0.7747700000000002  0.87964  0.31046  1.0000
  H   H22       1.0  0.4044800000000001  0.6911299999999999  0.47262  1.0000
  H   H23       1.0  0.4692300000000001  0.68443  0.53985  1.0000
  H   H24       1.0  0.36744  0.6314199999999999  0.53135  1.0000
  H   H25       1.0  0.45179  0.59883  0.61337  1.0000
  H   H26       1.0  0.5284100000000002  0.55297  0.6632899999999999  1.0000
  H   H27       1.0  0.42295  0.5106699999999998  0.64641  1.0000
  H   H28       1.0  0.68564  0.94969  0.4609999999999999  1.0000
  H   H29       1.0  0.61924  0.9864399999999999  0.40113999999999994  1.0000
  H   H30       1.0  0.63681  0.88862  0.4062799999999999  1.0000
  H   H31       1.0  0.9924300000000003  0.8486099999999998  0.35403999999999997  1.0000
  H   H32       1.0  0.10007  0.8670699999999998  0.32121999999999995  1.0000
  H   H33       1.0  0.08514  0.7849599999999998  0.3639799999999999  1.0000
  H   H34       1.0  0.6978100000000003  0.08355999999999997  0.58409  1.0000
  H   H35       1.0  0.6760800000000002  0.06832999999999997  0.5067799999999999  1.0000
  H   H36       1.0  0.72267  0.99488  0.55071  1.0000
  H   H37       1.0  0.37262000000000006  0.6495499999999998  0.8518899999999999  1.0000
  H   H38       1.0  0.26686  0.6990299999999998  0.8568599999999998  1.0000
  H   H39       1.0  0.27563  0.61929  0.81064  1.0000
  H   H40       1.0  0.9055400000000002  0.81171  0.97216  1.0000
  H   H41       1.0  0.97042  0.81932  0.03928  1.0000
  H   H42       1.0  0.8692300000000002  0.87318  0.030069999999999996  1.0000
  H   H43       1.0  0.95401  0.9049599999999999  0.11189  1.0000
  H   H44       1.0  0.02965  0.95201  0.16176  1.0000
  H   H45       1.0  0.9246200000000002  0.99425  0.14305  1.0000
  H   H46       1.0  0.18673000000000006  0.55158  0.9607399999999998  1.0000
  H   H47       1.0  0.12160000000000003  0.51324  0.9010199999999999  1.0000
  H   H48       1.0  0.13809  0.6113599999999999  0.9049099999999999  1.0000
  H   H49       1.0  0.4935500000000001  0.65063  0.85525  1.0000
  H   H50       1.0  0.6006100000000002  0.63202  0.8215999999999999  1.0000
  H   H51       1.0  0.58601  0.7145  0.8641  1.0000
  H   H52       1.0  0.19767000000000004  0.4164499999999999  0.08346  1.0000
  H   H53       1.0  0.17727  0.4314599999999999  0.00612  1.0000
  H   H54       1.0  0.22377000000000002  0.50465  0.050149999999999986  1.0000
  H   H55       1.0  0.6273900000000002  0.3504499999999999  0.35189  1.0000
  H   H56       1.0  0.73315  0.30097  0.35685999999999996  1.0000
  H   H57       1.0  0.7243700000000001  0.38071  0.31063999999999997  1.0000
  H   H58       1.0  0.09446  0.18829  0.47215999999999997  1.0000
  H   H59       1.0  0.029580000000000006  0.18068  0.53928  1.0000
  H   H60       1.0  0.13077  0.12681999999999996  0.53007  1.0000
  H   H61       1.0  0.04599000000000002  0.09503999999999997  0.6118899999999999  1.0000
  H   H62       1.0  0.97036  0.04799  0.66176  1.0000
  H   H63       1.0  0.07538  0.00575  0.64305  1.0000
  H   H64       1.0  0.8132800000000002  0.4484199999999999  0.4607399999999999  1.0000
  H   H65       1.0  0.8784000000000002  0.48675999999999997  0.40102  1.0000
  H   H66       1.0  0.8619100000000001  0.3886399999999999  0.40491  1.0000
  H   H67       1.0  0.5064600000000002  0.34936  0.35526  1.0000
  H   H68       1.0  0.39939000000000013  0.36798  0.3216  1.0000
  H   H69       1.0  0.41399000000000014  0.2855  0.3641  1.0000
  H   H70       1.0  0.8023300000000002  0.58355  0.5834599999999999  1.0000
  H   H71       1.0  0.8227300000000002  0.56854  0.50612  1.0000
  H   H72       1.0  0.7762300000000002  0.49535  0.55015  1.0000
  C   C1        1.0  0.32126  0.25702  0.7444099999999999  1.0000
  C   C2        1.0  0.22201000000000007  0.25495  0.73769  1.0000
  C   C3        1.0  0.159  0.21857  0.77429  1.0000
  C   C4        1.0  0.18671000000000004  0.16975  0.8261699999999997  1.0000
  C   C5        1.0  0.5280800000000001  0.37603  0.8689099999999997  1.0000
  C   C6        1.0  0.4969900000000001  0.41867999999999994  0.9212499999999998  1.0000
  C   C7        1.0  0.51704  0.41108  0.9814999999999999  1.0000
  C   C8        1.0  0.4755800000000001  0.47135  0.015159999999999998  1.0000
  C   C9        1.0  0.4262200000000001  0.52138  0.97787  1.0000
  C   C10       1.0  0.47721  0.4969  0.07593  1.0000
  C   C11       1.0  0.43315  0.56636  0.08100999999999998  1.0000
  C   C12       1.0  0.57207  0.34747  0.00754  1.0000
  C   C13       1.0  0.52117  0.45591  0.12716  1.0000
  C   C14       1.0  0.55807  0.14143999999999998  0.8951599999999997  1.0000
  C   C15       1.0  0.5377600000000001  0.10634  0.9528  1.0000
  C   C16       1.0  0.45932  0.06784999999999997  0.9703199999999998  1.0000
  C   C17       1.0  0.3743800000000001  0.06051  0.9330099999999998  1.0000
  C   C18       1.0  0.8118100000000003  0.25112  0.7435699999999998  1.0000
  C   C19       1.0  0.9116300000000003  0.25197  0.7385799999999999  1.0000
  C   C20       1.0  0.9759800000000002  0.22050999999999998  0.7768199999999998  1.0000
  C   C21       1.0  0.06712000000000001  0.23496  0.75551  1.0000
  C   C22       1.0  0.06603000000000003  0.27972  0.70299  1.0000
  C   C23       1.0  0.9491200000000002  0.1776  0.83197  1.0000
  C   C24       1.0  0.45383  0.90659  0.16108  1.0000
  C   C25       1.0  0.4705800000000001  0.9650899999999999  0.11622  1.0000
  C   C26       1.0  0.42015000000000013  0.98499  0.06588  1.0000
  C   C27       1.0  0.4710400000000001  0.03593  0.02874  1.0000
  C   C28       1.0  0.5572100000000002  0.05375  0.0536  1.0000
  C   C29       1.0  0.3257700000000001  0.9575599999999999  0.05131  1.0000
  C   C30       1.0  0.4296100000000001  0.61786  0.13159999999999997  1.0000
  C   C31       1.0  0.6787500000000002  0.74298  0.24442  1.0000
  C   C32       1.0  0.77799  0.74505  0.23769  1.0000
  C   C33       1.0  0.8410000000000002  0.7814299999999998  0.2742899999999999  1.0000
  C   C34       1.0  0.8132900000000002  0.83025  0.32616999999999996  1.0000
  C   C35       1.0  0.4719100000000001  0.62397  0.36891  1.0000
  C   C36       1.0  0.50301  0.5813199999999998  0.42124999999999996  1.0000
  C   C37       1.0  0.4829600000000001  0.58892  0.4815  1.0000
  C   C38       1.0  0.52442  0.52865  0.51516  1.0000
  C   C39       1.0  0.5737800000000002  0.47862  0.47787  1.0000
  C   C40       1.0  0.5227900000000001  0.5031  0.5759299999999999  1.0000
  C   C41       1.0  0.5668500000000002  0.43363  0.58101  1.0000
  C   C42       1.0  0.4279300000000001  0.6525299999999999  0.5075399999999999  1.0000
  C   C43       1.0  0.47884  0.54409  0.6271599999999999  1.0000
  C   C44       1.0  0.4419300000000001  0.85856  0.39516  1.0000
  C   C45       1.0  0.46224  0.89365  0.4528  1.0000
  C   C46       1.0  0.5406800000000002  0.9321499999999999  0.47031999999999996  1.0000
  C   C47       1.0  0.6256300000000002  0.9394899999999999  0.4330099999999999  1.0000
  C   C48       1.0  0.18819  0.74888  0.24356999999999998  1.0000
  C   C49       1.0  0.08838  0.74803  0.23858  1.0000
  C   C50       1.0  0.02402  0.7794799999999998  0.27682  1.0000
  C   C51       1.0  0.9328800000000003  0.76504  0.25551  1.0000
  C   C52       1.0  0.9339800000000003  0.72027  0.20298999999999998  1.0000
  C   C53       1.0  0.050879999999999995  0.8224  0.33196999999999993  1.0000
  C   C54       1.0  0.54616  0.09341  0.6610799999999999  1.0000
  C   C55       1.0  0.52942  0.03491  0.61622  1.0000
  C   C56       1.0  0.57985  0.014999999999999998  0.56588  1.0000
  C   C57       1.0  0.5289600000000002  0.96407  0.52874  1.0000
  C   C58       1.0  0.44279000000000013  0.9462399999999999  0.5536  1.0000
  C   C59       1.0  0.6742300000000002  0.04244  0.55131  1.0000
  C   C60       1.0  0.5703900000000002  0.38213999999999987  0.6316  1.0000
  C   C61       1.0  0.17774  0.7544  0.7431399999999999  1.0000
  C   C62       1.0  0.2772600000000001  0.7532799999999998  0.7378  1.0000
  C   C63       1.0  0.3406500000000001  0.7177399999999999  0.7748199999999998  1.0000
  C   C64       1.0  0.31328000000000006  0.66888  0.82659  1.0000
  C   C65       1.0  0.9726700000000003  0.8771699999999998  0.86733  1.0000
  C   C66       1.0  0.005110000000000001  0.9199499999999999  0.9193599999999998  1.0000
  C   C67       1.0  0.9852  0.9132999999999999  0.97972  1.0000
  C   C68       1.0  0.02755000000000001  0.97337  0.012989999999999998  1.0000
  C   C69       1.0  0.07772000000000003  0.02237  0.9754999999999998  1.0000
  C   C70       1.0  0.025930000000000012  0.9995099999999999  0.07361  1.0000
  C   C71       1.0  0.07087  0.0684  0.07861  1.0000
  C   C72       1.0  0.9294200000000002  0.85086  0.006499999999999998  1.0000
  C   C73       1.0  0.9808500000000002  0.95993  0.12502  1.0000
  C   C74       1.0  0.94353  0.64171  0.89299  1.0000
  C   C75       1.0  0.9635300000000002  0.60771  0.9511399999999998  1.0000
  C   C76       1.0  0.041630000000000014  0.56866  0.96893  1.0000
  C   C77       1.0  0.12706  0.5609699999999997  0.9321799999999998  1.0000
  C   C78       1.0  0.68793  0.7491899999999998  0.74336  1.0000
  C   C79       1.0  0.58799  0.7498699999999998  0.7385999999999999  1.0000
  C   C80       1.0  0.52382  0.71929  0.77729  1.0000
  C   C81       1.0  0.4325200000000001  0.73425  0.75622  1.0000
  C   C82       1.0  0.43336000000000013  0.77869  0.7035199999999999  1.0000
  C   C83       1.0  0.55139  0.67675  0.8325699999999999  1.0000
  C   C84       1.0  0.04653  0.40983999999999987  0.16068999999999997  1.0000
  C   C85       1.0  0.02966000000000001  0.46717  0.11503999999999999  1.0000
  C   C86       1.0  0.08031000000000003  0.48596999999999996  0.06461  1.0000
  C   C87       1.0  0.029460000000000007  0.53686  0.027249999999999996  1.0000
  C   C88       1.0  0.9430800000000003  0.55527  0.05169  1.0000
  C   C89       1.0  0.17475000000000004  0.45768999999999993  0.05051  1.0000
  C   C90       1.0  0.07351  0.12041999999999999  0.12902  1.0000
  C   C91       1.0  0.82227  0.24559999999999998  0.24313999999999994  1.0000
  C   C92       1.0  0.7227400000000002  0.24671999999999997  0.2378  1.0000
  C   C93       1.0  0.6593600000000002  0.28225  0.27482  1.0000
  C   C94       1.0  0.6867300000000002  0.33111999999999997  0.32659999999999995  1.0000
  C   C95       1.0  0.027330000000000007  0.12283  0.3673299999999999  1.0000
  C   C96       1.0  0.9949  0.08005  0.41936  1.0000
  C   C97       1.0  0.014810000000000004  0.08669  0.47972  1.0000
  C   C98       1.0  0.9724500000000003  0.026629999999999994  0.51299  1.0000
  C   C99       1.0  0.92228  0.97763  0.4754999999999999  1.0000
  C   C100      1.0  0.9740700000000002  0.00049  0.57361  1.0000
  C   C101      1.0  0.9291300000000001  0.9316  0.5786099999999998  1.0000
  C   C102      1.0  0.07058  0.14914  0.5065  1.0000
  C   C103      1.0  0.01915  0.04007  0.62502  1.0000
  C   C104      1.0  0.05648000000000001  0.35829  0.39298999999999995  1.0000
  C   C105      1.0  0.03648  0.39228  0.4511399999999999  1.0000
  C   C106      1.0  0.95837  0.43134  0.4689299999999999  1.0000
  C   C107      1.0  0.87295  0.43903  0.43217999999999995  1.0000
  C   C108      1.0  0.31207  0.25082  0.24335999999999997  1.0000
  C   C109      1.0  0.4120200000000001  0.25012999999999996  0.23861  1.0000
  C   C110      1.0  0.4761800000000001  0.28071  0.2773  1.0000
  C   C111      1.0  0.56749  0.26575  0.25622  1.0000
  C   C112      1.0  0.56665  0.22129999999999994  0.20351999999999995  1.0000
  C   C113      1.0  0.44862  0.32324  0.33257  1.0000
  C   C114      1.0  0.9534700000000003  0.59016  0.66069  1.0000
  C   C115      1.0  0.9703400000000002  0.53283  0.61504  1.0000
  C   C116      1.0  0.9196900000000002  0.51403  0.56461  1.0000
  C   C117      1.0  0.9705400000000002  0.46313999999999994  0.52725  1.0000
  C   C118      1.0  0.05692000000000001  0.44473  0.55169  1.0000
  C   C119      1.0  0.82525  0.5423099999999998  0.5505  1.0000
  C   C120      1.0  0.92649  0.87958  0.62902  1.0000
  S   S1        1.0  0.17237000000000005  0.30703  0.67942  1.0000
  S   S2        1.0  0.42441  0.49506999999999995  0.9044099999999998  1.0000
  S   S3        1.0  0.3860900000000001  0.59977  0.01386  1.0000
  S   S4        1.0  0.6240600000000002  0.10792  0.007629999999999998  1.0000
  S   S5        1.0  0.9585200000000003  0.29867  0.6765399999999999  1.0000
  S   S6        1.0  0.57738  0.01073  0.12096999999999998  1.0000
  S   S7        1.0  0.8276300000000002  0.69297  0.17942  1.0000
  S   S8        1.0  0.5756000000000002  0.50493  0.40441  1.0000
  S   S9        1.0  0.6139100000000001  0.40022999999999986  0.51386  1.0000
  S   S10       1.0  0.37594  0.8920799999999999  0.50763  1.0000
  S   S11       1.0  0.04148  0.7013299999999998  0.17653999999999997  1.0000
  S   S12       1.0  0.4226300000000001  0.98926  0.62097  1.0000
  S   S13       1.0  0.3268100000000001  0.80528  0.6794799999999999  1.0000
  S   S14       1.0  0.07888  0.9951799999999998  0.9021599999999999  1.0000
  S   S15       1.0  0.119  0.10051999999999998  0.01129  1.0000
  S   S16       1.0  0.8768800000000001  0.61018  0.005659999999999998  1.0000
  S   S17       1.0  0.5407600000000002  0.79657  0.67661  1.0000
  S   S18       1.0  0.9227600000000001  0.51298  0.11920999999999997  1.0000
  S   S19       1.0  0.6731900000000001  0.19471999999999995  0.17948  1.0000
  S   S20       1.0  0.9211300000000002  0.00482  0.40215999999999996  1.0000
  S   S21       1.0  0.8810000000000002  0.89948  0.51129  1.0000
  S   S22       1.0  0.12312000000000002  0.3898199999999999  0.50566  1.0000
  S   S23       1.0  0.4592400000000001  0.20343  0.17660999999999996  1.0000
  S   S24       1.0  0.07724  0.48701999999999995  0.61921  1.0000
  O   O1        1.0  0.56906  0.25062  0.75512  1.0000
  O   O2        1.0  0.3574700000000001  0.20775  0.7790399999999997  1.0000
  O   O3        1.0  0.36562  0.30809  0.71563  1.0000
  O   O4        1.0  0.4771  0.38431  0.82244  1.0000
  O   O5        1.0  0.60201  0.33793  0.87271  1.0000
  O   O6        1.0  0.6336200000000002  0.17799  0.89056  1.0000
  O   O7        1.0  0.4996100000000001  0.13169  0.85321  1.0000
  O   O8        1.0  0.7772200000000002  0.24209  0.7957999999999997  1.0000
  O   O9        1.0  0.7678800000000002  0.2605899999999999  0.6943799999999999  1.0000
  O   O10       1.0  0.38382  0.8640299999999997  0.15453  1.0000
  O   O11       1.0  0.5136800000000002  0.9018099999999999  0.2032  1.0000
  O   O12       1.0  0.4593800000000001  0.59432  0.18212999999999996  1.0000
  O   O13       1.0  0.3981400000000001  0.68443  0.12082  1.0000
  O   O14       1.0  0.43094000000000005  0.7493799999999999  0.25512  1.0000
  O   O15       1.0  0.6425400000000002  0.7922499999999998  0.27904  1.0000
  O   O16       1.0  0.63439  0.6919099999999999  0.21562999999999993  1.0000
  O   O17       1.0  0.5229  0.6156899999999997  0.32244  1.0000
  O   O18       1.0  0.39800000000000013  0.66207  0.3727099999999999  1.0000
  O   O19       1.0  0.3663800000000001  0.82201  0.39056  1.0000
  O   O20       1.0  0.5004000000000001  0.8682999999999997  0.35321  1.0000
  O   O21       1.0  0.22277000000000005  0.7578999999999999  0.2958  1.0000
  O   O22       1.0  0.23212000000000005  0.73941  0.19438  1.0000
  O   O23       1.0  0.6161800000000002  0.13597  0.6545299999999998  1.0000
  O   O24       1.0  0.4863200000000001  0.09819  0.70319  1.0000
  O   O25       1.0  0.5406200000000002  0.4056799999999999  0.68213  1.0000
  O   O26       1.0  0.6018600000000001  0.31556  0.6208199999999999  1.0000
  O   O27       1.0  0.93101  0.74928  0.75432  1.0000
  O   O28       1.0  0.14019000000000006  0.7069599999999999  0.77849  1.0000
  O   O29       1.0  0.13398  0.8042999999999998  0.7122699999999998  1.0000
  O   O30       1.0  0.02297  0.8831699999999999  0.8204499999999998  1.0000
  O   O31       1.0  0.8975800000000003  0.8409099999999998  0.87215  1.0000
  O   O32       1.0  0.8701400000000002  0.68118  0.8880899999999998  1.0000
  O   O33       1.0  0.0004700000000000003  0.6279299999999999  0.85094  1.0000
  O   O34       1.0  0.72277  0.7425399999999998  0.7958099999999999  1.0000
  O   O35       1.0  0.7316600000000002  0.7563599999999998  0.69406  1.0000
  O   O36       1.0  0.11617000000000002  0.3666899999999999  0.15469999999999998  1.0000
  O   O37       1.0  0.9866600000000002  0.40653  0.20297999999999997  1.0000
  O   O38       1.0  0.04140000000000001  0.09821999999999997  0.17930999999999997  1.0000
  O   O39       1.0  0.10667000000000003  0.18627  0.11821999999999999  1.0000
  O   O40       1.0  0.06899  0.25071  0.25432  1.0000
  O   O41       1.0  0.8598100000000002  0.29304  0.27849  1.0000
  O   O42       1.0  0.8660300000000002  0.1957  0.21227  1.0000
  O   O43       1.0  0.9770300000000002  0.11682999999999999  0.32044  1.0000
  O   O44       1.0  0.10242000000000001  0.15908  0.3721499999999999  1.0000
  O   O45       1.0  0.12986  0.3188199999999999  0.38809  1.0000
  O   O46       1.0  0.9995300000000001  0.3720699999999999  0.3509399999999999  1.0000
  O   O47       1.0  0.2772400000000001  0.25744999999999996  0.29581  1.0000
  O   O48       1.0  0.26834000000000013  0.24364999999999995  0.19405999999999998  1.0000
  O   O49       1.0  0.8838300000000002  0.6333099999999999  0.6547  1.0000
  O   O50       1.0  0.013340000000000003  0.59347  0.70297  1.0000
  O   O51       1.0  0.9586000000000002  0.90178  0.67931  1.0000
  O   O52       1.0  0.8933300000000002  0.81373  0.61822  1.0000
