data_image0
_chemical_formula_structural       Cd6H80C128N20O24
_chemical_formula_sum              "Cd6 H80 C128 N20 O24"
_cell_length_a       7.83917
_cell_length_b       14.301989999999998
_cell_length_c       31.471229999999995
_cell_angle_alpha    89.99955999999999
_cell_angle_beta     90.0
_cell_angle_gamma    106.00193999999999

_space_group_name_H-M_alt    "P 1"
_space_group_IT_number       1

loop_
  _space_group_symop_operation_xyz
  'x, y, z'

loop_
  _atom_site_type_symbol
  _atom_site_label
  _atom_site_symmetry_multiplicity
  _atom_site_fract_x
  _atom_site_fract_y
  _atom_site_fract_z
  _atom_site_occupancy
  Cd  Cd1       1.0  0.015200000000000158  0.8498000000000002  0.11700000000000003  1.0000
  Cd  Cd2       1.0  0.83042  0.8515600000000002  0.88359  1.0000
  Cd  Cd3       1.0  0.3304200000000001  0.8515500000000003  0.6164  1.0000
  Cd  Cd4       1.0  0.5152000000000001  0.8498000000000002  0.3829800000000001  1.0000
  Cd  Cd5       1.0  0.99693  0.0004700000000000001  0.00107  1.0000
  Cd  Cd6       1.0  0.4969899999999999  0.0004700000000000001  0.4989500000000001  1.0000
  H   H1        1.0  0.98925  0.20893  0.09673000000000002  1.0000
  H   H2        1.0  0.9164500000000001  0.25889  0.2572200000000001  1.0000
  H   H3        1.0  0.5578999999999997  0.96837  0.057290000000000015  1.0000
  H   H4        1.0  0.6934499999999998  0.96359  0.17022000000000007  1.0000
  H   H5        1.0  0.4999099999999998  0.25545  0.04826  1.0000
  H   H6        1.0  0.24887999999999993  0.06825  0.14567000000000005  1.0000
  H   H7        1.0  0.04538999999999997  0.34262  0.12089  1.0000
  H   H8        1.0  0.17826  0.5225600000000001  0.12789000000000006  1.0000
  H   H9        1.0  0.48283  0.22132  0.13955000000000006  1.0000
  H   H10       1.0  0.63032  0.3853200000000001  0.1676  1.0000
  H   H11       1.0  0.7699300000000002  0.09574000000000003  0.22958000000000006  1.0000
  H   H12       1.0  0.044900000000000016  0.66613  0.20096000000000006  1.0000
  H   H13       1.0  0.8501999999999997  0.38327  0.29808  1.0000
  H   H14       1.0  0.8806400000000001  0.50747  0.17323  1.0000
  H   H15       1.0  0.015199999999999988  0.54647  0.3268200000000001  1.0000
  H   H16       1.0  0.25596  0.80968  0.22745000000000007  1.0000
  H   H17       1.0  0.4540199999999999  0.9118900000000001  0.28427000000000013  1.0000
  H   H18       1.0  0.44800000000000006  0.8228600000000001  0.14062000000000005  1.0000
  H   H19       1.0  0.64518  0.40107  0.03815  1.0000
  H   H20       1.0  0.7885999999999997  0.5726200000000001  0.0516  1.0000
  H   H21       1.0  0.22  0.21047  0.90394  1.0000
  H   H22       1.0  0.3402099999999999  0.26061  0.74262  1.0000
  H   H23       1.0  0.40154000000000006  0.9676900000000003  0.9439900000000002  1.0000
  H   H24       1.0  0.26591999999999993  0.9670600000000003  0.8307800000000002  1.0000
  H   H25       1.0  0.75412  0.25314  0.9533000000000003  1.0000
  H   H26       1.0  0.81738  0.06998  0.85351  1.0000
  H   H27       1.0  0.30042  0.34556000000000003  0.88093  1.0000
  H   H28       1.0  0.35093  0.52592  0.8752300000000002  1.0000
  H   H29       1.0  0.7354999999999998  0.22441  0.8606500000000002  1.0000
  H   H30       1.0  0.7518999999999999  0.38827000000000006  0.8324200000000003  1.0000
  H   H31       1.0  0.3239799999999999  0.09766  0.7703600000000003  1.0000
  H   H32       1.0  0.61809  0.66836  0.79869  1.0000
  H   H33       1.0  0.5309900000000001  0.3852100000000001  0.70186  1.0000
  H   H34       1.0  0.62254  0.50986  0.8266800000000002  1.0000
  H   H35       1.0  0.52894  0.5480300000000001  0.6729200000000002  1.0000
  H   H36       1.0  0.5513299999999998  0.81152  0.7720200000000003  1.0000
  H   H37       1.0  0.4537  0.9129800000000002  0.7153400000000002  1.0000
  H   H38       1.0  0.3694600000000001  0.8258700000000002  0.85996  1.0000
  H   H39       1.0  0.76251  0.39931  0.9623700000000002  1.0000
  H   H40       1.0  0.7951699999999998  0.5714800000000001  0.9498000000000002  1.0000
  H   H41       1.0  0.72009  0.21052  0.5960700000000002  1.0000
  H   H42       1.0  0.84018  0.2606  0.7573800000000003  1.0000
  H   H43       1.0  0.9014099999999999  0.9677400000000003  0.55595  1.0000
  H   H44       1.0  0.7659199999999998  0.9670200000000001  0.6692100000000002  1.0000
  H   H45       1.0  0.25417  0.25314  0.54668  1.0000
  H   H46       1.0  0.3173799999999999  0.07  0.64649  1.0000
  H   H47       1.0  0.80052  0.34564  0.6190400000000003  1.0000
  H   H48       1.0  0.8512000000000001  0.52602  0.6247200000000003  1.0000
  H   H49       1.0  0.23546000000000003  0.22439000000000006  0.6393500000000002  1.0000
  H   H50       1.0  0.2519000000000001  0.3882400000000001  0.6675800000000002  1.0000
  H   H51       1.0  0.82395  0.09764  0.7296300000000002  1.0000
  H   H52       1.0  0.11813000000000011  0.6683400000000003  0.7012900000000002  1.0000
  H   H53       1.0  0.03097000000000002  0.3852  0.79813  1.0000
  H   H54       1.0  0.12253999999999998  0.50983  0.6733100000000002  1.0000
  H   H55       1.0  0.02895000000000004  0.54802  0.8270700000000002  1.0000
  H   H56       1.0  0.051419999999999993  0.81152  0.7279700000000002  1.0000
  H   H57       1.0  0.9536899999999998  0.91296  0.7846400000000002  1.0000
  H   H58       1.0  0.8695300000000001  0.8258600000000003  0.6400100000000002  1.0000
  H   H59       1.0  0.26264  0.3992700000000001  0.5376  1.0000
  H   H60       1.0  0.29548999999999986  0.57146  0.55019  1.0000
  H   H61       1.0  0.48949999999999994  0.20894  0.40334  1.0000
  H   H62       1.0  0.41643  0.2589  0.24277000000000007  1.0000
  H   H63       1.0  0.05776000000000006  0.9684000000000001  0.4426200000000001  1.0000
  H   H64       1.0  0.19346999999999998  0.96359  0.3297600000000001  1.0000
  H   H65       1.0  0.9999299999999999  0.25553  0.45161  1.0000
  H   H66       1.0  0.74891  0.06825  0.3543400000000001  1.0000
  H   H67       1.0  0.54571  0.3427100000000001  0.3791200000000001  1.0000
  H   H68       1.0  0.67833  0.52268  0.37212  1.0000
  H   H69       1.0  0.98281  0.22133  0.36044  1.0000
  H   H70       1.0  0.13033  0.3853400000000001  0.33239  1.0000
  H   H71       1.0  0.2699199999999999  0.09575  0.27042  1.0000
  H   H72       1.0  0.5449199999999997  0.66614  0.29903  1.0000
  H   H73       1.0  0.3502  0.38327  0.20192  1.0000
  H   H74       1.0  0.38066  0.50748  0.3267600000000001  1.0000
  H   H75       1.0  0.5152  0.54647  0.17317000000000005  1.0000
  H   H76       1.0  0.75598  0.80968  0.2725400000000001  1.0000
  H   H77       1.0  0.9540299999999998  0.9118900000000001  0.21572000000000005  1.0000
  H   H78       1.0  0.94807  0.82287  0.35937000000000013  1.0000
  H   H79       1.0  0.14534  0.40098  0.46187  1.0000
  H   H80       1.0  0.28863  0.57257  0.4484200000000001  1.0000
  C   C1        1.0  0.5108  0.051630000000000016  0.16675  1.0000
  C   C2        1.0  0.85579  0.18353  0.08395000000000002  1.0000
  C   C3        1.0  0.8887299999999998  0.01821  0.09603000000000003  1.0000
  C   C4        1.0  0.8193499999999998  0.25100000000000006  0.23181  1.0000
  C   C5        1.0  0.78378  0.08341000000000003  0.07948000000000002  1.0000
  C   C6        1.0  0.61398  0.046040000000000005  0.06222000000000001  1.0000
  C   C7        1.0  0.51271  0.10971  0.051990000000000015  1.0000
  C   C8        1.0  0.61132  0.14604  0.183  1.0000
  C   C9        1.0  0.58588  0.21000000000000002  0.05638000000000001  1.0000
  C   C10       1.0  0.75959  0.24851  0.07175000000000002  1.0000
  C   C11       1.0  0.8380399999999998  0.35376  0.07716  1.0000
  C   C12       1.0  0.3424099999999999  0.025500000000000005  0.14933  1.0000
  C   C13       1.0  0.32446  0.07202  0.0366  1.0000
  C   C14       1.0  0.03558000000000007  0.6647500000000001  0.09046000000000003  1.0000
  C   C15       1.0  0.98522  0.5554300000000001  0.08700000000000002  1.0000
  C   C16       1.0  0.98926  0.3922400000000001  0.10307000000000002  1.0000
  C   C17       1.0  0.06413  0.49186000000000013  0.10754000000000002  1.0000
  C   C18       1.0  0.57646  0.22977  0.16568  1.0000
  C   C19       1.0  0.6610399999999998  0.3218600000000001  0.18107  1.0000
  C   C20       1.0  0.78098  0.33466  0.21532000000000007  1.0000
  C   C21       1.0  0.7372299999999998  0.15856  0.21586000000000005  1.0000
  C   C22       1.0  0.8626499999999998  0.43186  0.23311000000000007  1.0000
  C   C23       1.0  0.04762000000000014  0.6166000000000003  0.2660900000000001  1.0000
  C   C24       1.0  0.004070000000000157  0.6048800000000002  0.22271000000000005  1.0000
  C   C25       1.0  0.89565  0.4453000000000001  0.27692  1.0000
  C   C26       1.0  0.9120999999999999  0.51452  0.20687  1.0000
  C   C27       1.0  0.98515  0.53591  0.2931200000000001  1.0000
  C   C28       1.0  0.16367  0.70685  0.2826900000000001  1.0000
  C   C29       1.0  0.25442  0.78945  0.2606100000000001  1.0000
  C   C30       1.0  0.33717000000000014  0.8011500000000003  0.3297100000000001  1.0000
  C   C31       1.0  0.43744  0.8958000000000003  0.14631000000000005  1.0000
  C   C32       1.0  0.76367  0.42148000000000013  0.05773  1.0000
  C   C33       1.0  0.53787  0.05418000000000001  0.83337  1.0000
  C   C34       1.0  0.32671  0.1843  0.9169100000000002  1.0000
  C   C35       1.0  0.12331999999999997  0.01888  0.90584  1.0000
  C   C36       1.0  0.4292000000000001  0.25304  0.7681200000000002  1.0000
  C   C37       1.0  0.29491  0.08403  0.9218700000000002  1.0000
  C   C38       1.0  0.42571  0.04551  0.93909  1.0000
  C   C39       1.0  0.59192  0.10815000000000001  0.9492900000000002  1.0000
  C   C40       1.0  0.5321299999999998  0.1486  0.8171100000000002  1.0000
  C   C41       1.0  0.62221  0.20861  0.94481  1.0000
  C   C42       1.0  0.48938999999999994  0.24842000000000006  0.92913  1.0000
  C   C43       1.0  0.52  0.3541  0.92396  1.0000
  C   C44       1.0  0.6804199999999998  0.02757  0.8502700000000002  1.0000
  C   C45       1.0  0.73989  0.06928000000000001  0.96528  1.0000
  C   C46       1.0  0.63919  0.66642  0.9133000000000002  1.0000
  C   C47       1.0  0.57865  0.55669  0.9155400000000002  1.0000
  C   C48       1.0  0.4080099999999999  0.39424000000000003  0.8986500000000002  1.0000
  C   C49       1.0  0.43461000000000005  0.4941700000000001  0.8949700000000003  1.0000
  C   C50       1.0  0.65046  0.23257000000000005  0.83444  1.0000
  C   C51       1.0  0.65792  0.32455  0.81897  1.0000
  C   C52       1.0  0.5508599999999999  0.3369600000000001  0.7846500000000002  1.0000
  C   C53       1.0  0.41901  0.16073000000000007  0.7841400000000002  1.0000
  C   C54       1.0  0.5661799999999998  0.43404  0.76681  1.0000
  C   C55       1.0  0.56599  0.61848  0.7335900000000002  1.0000
  C   C56       1.0  0.59751  0.60697  0.7770100000000002  1.0000
  C   C57       1.0  0.5470999999999998  0.44727000000000006  0.7229600000000003  1.0000
  C   C58       1.0  0.59883  0.51676  0.7929900000000002  1.0000
  C   C59       1.0  0.5481299999999998  0.5377  0.70665  1.0000
  C   C60       1.0  0.53985  0.70849  0.7168700000000002  1.0000
  C   C61       1.0  0.5319499999999999  0.7911100000000002  0.7388900000000003  1.0000
  C   C62       1.0  0.4591  0.8021600000000002  0.66983  1.0000
  C   C63       1.0  0.45406000000000013  0.8985000000000002  0.85396  1.0000
  C   C64       1.0  0.66452  0.4207900000000001  0.9432  1.0000
  C   C65       1.0  0.037860000000000005  0.05417000000000002  0.66662  1.0000
  C   C66       1.0  0.82673  0.18435  0.5830600000000002  1.0000
  C   C67       1.0  0.62334  0.01891  0.5941400000000002  1.0000
  C   C68       1.0  0.9291799999999998  0.25302  0.7318700000000002  1.0000
  C   C69       1.0  0.79492  0.08408000000000003  0.5781200000000002  1.0000
  C   C70       1.0  0.92568  0.04554  0.5608900000000001  1.0000
  C   C71       1.0  0.09188000000000002  0.10816000000000003  0.55068  1.0000
  C   C72       1.0  0.0321  0.14858  0.6828800000000003  1.0000
  C   C73       1.0  0.12226000000000001  0.20862000000000003  0.55518  1.0000
  C   C74       1.0  0.98944  0.24844000000000002  0.5708400000000002  1.0000
  C   C75       1.0  0.020110000000000062  0.3541200000000001  0.5760100000000002  1.0000
  C   C76       1.0  0.18043  0.02758  0.6497300000000003  1.0000
  C   C77       1.0  0.23957999999999993  0.06916000000000001  0.53466  1.0000
  C   C78       1.0  0.13924000000000006  0.6664300000000002  0.5866700000000002  1.0000
  C   C79       1.0  0.07894  0.55671  0.5844600000000002  1.0000
  C   C80       1.0  0.9081499999999999  0.39428000000000013  0.60132  1.0000
  C   C81       1.0  0.93486  0.49421  0.60501  1.0000
  C   C82       1.0  0.15042999999999998  0.23255  0.66555  1.0000
  C   C83       1.0  0.15791000000000002  0.32452000000000003  0.6810300000000002  1.0000
  C   C84       1.0  0.05084000000000008  0.3369300000000001  0.7153500000000003  1.0000
  C   C85       1.0  0.91898  0.16071  0.7158500000000002  1.0000
  C   C86       1.0  0.06617000000000008  0.43402000000000013  0.7331900000000002  1.0000
  C   C87       1.0  0.06601000000000011  0.6184700000000002  0.7664000000000002  1.0000
  C   C88       1.0  0.09754000000000006  0.6069600000000002  0.7229800000000002  1.0000
  C   C89       1.0  0.04710000000000005  0.4472600000000001  0.7770300000000002  1.0000
  C   C90       1.0  0.09884000000000001  0.51673  0.7070000000000002  1.0000
  C   C91       1.0  0.048150000000000005  0.53769  0.79334  1.0000
  C   C92       1.0  0.039849999999999976  0.70847  0.78311  1.0000
  C   C93       1.0  0.03197999999999997  0.7911  0.7611  1.0000
  C   C94       1.0  0.9589999999999997  0.80212  0.83015  1.0000
  C   C95       1.0  0.9540999999999997  0.89849  0.64603  1.0000
  C   C96       1.0  0.1647  0.4208  0.5567700000000002  1.0000
  C   C97       1.0  0.010820000000000003  0.051630000000000016  0.33325  1.0000
  C   C98       1.0  0.35592  0.18354  0.4160600000000001  1.0000
  C   C99       1.0  0.38871  0.0182  0.4039700000000001  1.0000
  C   C100      1.0  0.3193499999999999  0.25101  0.26819  1.0000
  C   C101      1.0  0.2838  0.08342  0.4204900000000001  1.0000
  C   C102      1.0  0.11398000000000001  0.04607000000000001  0.43774  1.0000
  C   C103      1.0  0.012739999999999994  0.10975  0.44796000000000014  1.0000
  C   C104      1.0  0.11133000000000001  0.14605000000000004  0.3170000000000001  1.0000
  C   C105      1.0  0.08592  0.21004  0.44355  1.0000
  C   C106      1.0  0.2596599999999999  0.24852000000000002  0.4282  1.0000
  C   C107      1.0  0.33817  0.35377  0.4228200000000001  1.0000
  C   C108      1.0  0.84245  0.025500000000000005  0.35068  1.0000
  C   C109      1.0  0.82463  0.07214  0.46343  1.0000
  C   C110      1.0  0.5353799999999999  0.6647500000000001  0.40955000000000014  1.0000
  C   C111      1.0  0.4851899999999998  0.55544  0.4130100000000001  1.0000
  C   C112      1.0  0.48946  0.39229000000000014  0.3969300000000001  1.0000
  C   C113      1.0  0.56422  0.4919200000000001  0.39247  1.0000
  C   C114      1.0  0.07646  0.22978  0.33431  1.0000
  C   C115      1.0  0.16104  0.32187  0.3189200000000001  1.0000
  C   C116      1.0  0.28099  0.33466  0.2846700000000001  1.0000
  C   C117      1.0  0.23723999999999998  0.15856  0.2841400000000001  1.0000
  C   C118      1.0  0.36266  0.43186  0.26689  1.0000
  C   C119      1.0  0.54763  0.6166000000000003  0.23390000000000005  1.0000
  C   C120      1.0  0.50409  0.6048900000000001  0.27728  1.0000
  C   C121      1.0  0.39566  0.44529  0.22307000000000005  1.0000
  C   C122      1.0  0.41211  0.51452  0.2931200000000001  1.0000
  C   C123      1.0  0.48515999999999987  0.53591  0.20688000000000006  1.0000
  C   C124      1.0  0.66369  0.70684  0.21731  1.0000
  C   C125      1.0  0.75444  0.78945  0.23938000000000006  1.0000
  C   C126      1.0  0.8372  0.80113  0.17028  1.0000
  C   C127      1.0  0.93748  0.8958000000000003  0.35369  1.0000
  C   C128      1.0  0.26379  0.42144  0.44227  1.0000
  N   N1        1.0  0.56685  0.9675  0.16507  1.0000
  N   N2        1.0  0.21546000000000012  0.7157700000000002  0.3251500000000001  1.0000
  N   N3        1.0  0.2990700000000002  0.9294300000000002  0.13678  1.0000
  N   N4        1.0  0.3611900000000001  0.8482700000000002  0.2904800000000001  1.0000
  N   N5        1.0  0.83822  0.5175500000000001  0.06351  1.0000
  N   N6        1.0  0.39652999999999994  0.9704200000000001  0.8354200000000003  1.0000
  N   N7        1.0  0.49599000000000004  0.7170400000000002  0.6744400000000003  1.0000
  N   N8        1.0  0.62685  0.9315600000000003  0.8629200000000002  1.0000
  N   N9        1.0  0.48301000000000016  0.8495200000000003  0.70904  1.0000
  N   N10       1.0  0.68828  0.51722  0.9380600000000002  1.0000
  N   N11       1.0  0.8965399999999999  0.9703900000000002  0.66456  1.0000
  N   N12       1.0  0.9959  0.7170000000000002  0.82554  1.0000
  N   N13       1.0  0.1268900000000001  0.9315700000000002  0.6370600000000002  1.0000
  N   N14       1.0  0.98297  0.8495  0.79095  1.0000
  N   N15       1.0  0.18857  0.51724  0.5619400000000002  1.0000
  N   N16       1.0  0.06687  0.9675  0.33492  1.0000
  N   N17       1.0  0.71549  0.71576  0.17484  1.0000
  N   N18       1.0  0.7991099999999999  0.9294300000000002  0.36322  1.0000
  N   N19       1.0  0.86121  0.84825  0.2095  1.0000
  N   N20       1.0  0.33826000000000006  0.5175200000000001  0.43651  1.0000
  O   O1        1.0  0.9078599999999998  0.94943  0.07093000000000003  1.0000
  O   O2        1.0  0.9486699999999998  0.03167  0.13313000000000005  1.0000
  O   O3        1.0  0.93532  0.70444  0.06926  1.0000
  O   O4        1.0  0.16170999999999994  0.70391  0.11473  1.0000
  O   O5        1.0  0.26689000000000007  0.9818800000000001  0.0269  1.0000
  O   O6        1.0  0.23189  0.13206  0.03339000000000002  1.0000
  O   O7        1.0  0.0358000000000001  0.9500200000000002  0.9309500000000003  1.0000
  O   O8        1.0  0.07584  0.03197  0.8687700000000003  1.0000
  O   O9        1.0  0.78267  0.7042700000000002  0.9333200000000003  1.0000
  O   O10       1.0  0.5491700000000003  0.7078700000000002  0.8908500000000003  1.0000
  O   O11       1.0  0.70732  0.9785  0.97323  1.0000
  O   O12       1.0  0.89179  0.12959  0.9707000000000002  1.0000
  O   O13       1.0  0.5358  0.95005  0.56904  1.0000
  O   O14       1.0  0.57587  0.03197  0.6312200000000002  1.0000
  O   O15       1.0  0.2827300000000001  0.7043200000000002  0.5666700000000002  1.0000
  O   O16       1.0  0.049060000000000104  0.7078600000000003  0.6090900000000002  1.0000
  O   O17       1.0  0.2066499999999999  0.97839  0.5266900000000002  1.0000
  O   O18       1.0  0.39165  0.12938000000000002  0.52925  1.0000
  O   O19       1.0  0.40789999999999993  0.9494600000000001  0.4290700000000001  1.0000
  O   O20       1.0  0.44857  0.03162  0.3668500000000001  1.0000
  O   O21       1.0  0.43516  0.7044200000000003  0.43079  1.0000
  O   O22       1.0  0.66136  0.70393  0.3852500000000001  1.0000
  O   O23       1.0  0.76691  0.98199  0.4731100000000001  1.0000
  O   O24       1.0  0.7323099999999998  0.13231  0.46668  1.0000
