data_image0
_chemical_formula_structural       Zn6H96C140N16O24
_chemical_formula_sum              "Zn6 H96 C140 N16 O24"
_cell_length_a       14.67962
_cell_length_b       14.67922
_cell_length_c       20.84073
_cell_angle_alpha    75.9928
_cell_angle_beta     75.98060999999998
_cell_angle_gamma    83.75365

_space_group_name_H-M_alt    "P 1"
_space_group_IT_number       1

loop_
  _space_group_symop_operation_xyz
  'x, y, z'

loop_
  _atom_site_type_symbol
  _atom_site_label
  _atom_site_symmetry_multiplicity
  _atom_site_fract_x
  _atom_site_fract_y
  _atom_site_fract_z
  _atom_site_occupancy
  Zn  Zn1       1.0  0.46326000000000017  0.011320000000000007  0.28931  1.0000
  Zn  Zn2       1.0  0.9527500000000003  0.49812  0.06628  1.0000
  Zn  Zn3       1.0  0.06133999999999996  0.4548900000000001  0.37566000000000005  1.0000
  Zn  Zn4       1.0  0.9886900000000004  0.5367600000000001  0.71066  1.0000
  Zn  Zn5       1.0  0.50186  0.047269999999999986  0.9337000000000001  1.0000
  Zn  Zn6       1.0  0.5450300000000001  0.93869  0.6243300000000003  1.0000
  H   H1        1.0  0.95366  0.6677499999999998  0.8303700000000003  1.0000
  H   H2        1.0  0.93737  0.77044  0.86433  1.0000
  H   H3        1.0  0.7847500000000001  0.10665999999999998  0.41342000000000007  1.0000
  H   H4        1.0  0.42003  0.34557  0.13424000000000003  1.0000
  H   H5        1.0  0.66798  0.6215100000000002  0.22257000000000005  1.0000
  H   H6        1.0  0.8732700000000001  0.5816399999999999  0.9381  1.0000
  H   H7        1.0  0.58755  0.20798000000000003  0.24337  1.0000
  H   H8        1.0  0.30573000000000017  0.63604  0.9136100000000001  1.0000
  H   H9        1.0  0.9467300000000001  0.78001  0.99839  1.0000
  H   H10       1.0  0.6273900000000002  0.6570700000000003  0.3260800000000001  1.0000
  H   H11       1.0  0.2958900000000001  0.46001  0.09071000000000001  1.0000
  H   H12       1.0  0.71982  0.63085  0.9825700000000003  1.0000
  H   H13       1.0  0.08556  0.26157  0.19564  1.0000
  H   H14       1.0  0.54061  0.7731600000000001  0.39057  1.0000
  H   H15       1.0  0.8450900000000002  0.85198  0.22861  1.0000
  H   H16       1.0  0.11664000000000008  0.76906  0.78362  1.0000
  H   H17       1.0  0.7179900000000002  0.3062  0.2378  1.0000
  H   H18       1.0  0.75975  0.9659899999999999  0.29358  1.0000
  H   H19       1.0  0.52684  0.9195800000000003  0.42023000000000005  1.0000
  H   H20       1.0  0.20780999999999997  0.15299  0.24596000000000004  1.0000
  H   H21       1.0  0.6057000000000002  0.0055999999999999835  0.4699200000000001  1.0000
  H   H22       1.0  0.71077  0.9449600000000002  0.43293  1.0000
  H   H23       1.0  0.9338099999999999  0.7180100000000003  0.22643  1.0000
  H   H24       1.0  0.34424000000000005  0.8880500000000005  0.49165  1.0000
  H   H25       1.0  0.19714  0.74394  0.39515  1.0000
  H   H26       1.0  0.3124799999999999  0.16345  0.37188  1.0000
  H   H27       1.0  0.16902  0.56418  0.00037  1.0000
  H   H28       1.0  0.21796000000000001  0.32802  0.52236  1.0000
  H   H29       1.0  0.40735000000000005  0.056069999999999995  0.44703  1.0000
  H   H30       1.0  0.31041  0.21885999999999997  0.59869  1.0000
  H   H31       1.0  0.92886  0.1556  0.36818000000000006  1.0000
  H   H32       1.0  0.04584000000000001  0.25710000000000005  0.3795  1.0000
  H   H33       1.0  0.9005100000000003  0.49961999999999995  0.3012000000000001  1.0000
  H   H34       1.0  0.78019  0.4085800000000001  0.28158000000000005  1.0000
  H   H35       1.0  0.36722000000000016  0.8736900000000002  0.62471  1.0000
  H   H36       1.0  0.5220699999999998  0.8342599999999999  0.7720000000000002  1.0000
  H   H37       1.0  0.3944500000000002  0.7548700000000002  0.8607700000000001  1.0000
  H   H38       1.0  0.2376299999999999  0.77908  0.7049600000000001  1.0000
  H   H39       1.0  0.8339700000000002  0.87458  0.06791000000000003  1.0000
  H   H40       1.0  0.60605  0.72631  0.05151000000000001  1.0000
  H   H41       1.0  0.45048000000000005  0.83408  0.24274000000000004  1.0000
  H   H42       1.0  0.61384  0.06515  0.16565  1.0000
  H   H43       1.0  0.75788  0.52023  0.14519  1.0000
  H   H44       1.0  0.5502300000000001  0.7467899999999998  0.15916000000000005  1.0000
  H   H45       1.0  0.7174100000000001  0.9908100000000002  0.07674  1.0000
  H   H46       1.0  0.011470000000000004  0.61923  0.14361  1.0000
  H   H47       1.0  0.6713600000000002  0.25609  0.12624  1.0000
  H   H48       1.0  0.8243900000000003  0.4102799999999999  0.93524  1.0000
  H   H49       1.0  0.3322700000000001  0.046349999999999995  0.16962000000000002  1.0000
  H   H50       1.0  0.22955000000000003  0.06261  0.13571  1.0000
  H   H51       1.0  0.8933300000000003  0.21525  0.58657  1.0000
  H   H52       1.0  0.65442  0.5799600000000003  0.8657600000000001  1.0000
  H   H53       1.0  0.37850000000000006  0.3320199999999999  0.77744  1.0000
  H   H54       1.0  0.41836000000000023  0.12673  0.0619  1.0000
  H   H55       1.0  0.7919700000000001  0.41245  0.75664  1.0000
  H   H56       1.0  0.36396  0.69425  0.08636  1.0000
  H   H57       1.0  0.22  0.05329000000000001  0.0015900000000000003  1.0000
  H   H58       1.0  0.34292  0.3726299999999999  0.6739000000000003  1.0000
  H   H59       1.0  0.53996  0.70414  0.9093100000000001  1.0000
  H   H60       1.0  0.3691500000000001  0.28022  0.0174  1.0000
  H   H61       1.0  0.73842  0.91445  0.8043700000000001  1.0000
  H   H62       1.0  0.22686000000000003  0.45937999999999996  0.60944  1.0000
  H   H63       1.0  0.14797999999999994  0.15492  0.7713700000000001  1.0000
  H   H64       1.0  0.23092999999999997  0.8833600000000001  0.21639000000000003  1.0000
  H   H65       1.0  0.69377  0.28201000000000004  0.76223  1.0000
  H   H66       1.0  0.03401000000000002  0.24025000000000002  0.70643  1.0000
  H   H67       1.0  0.08043999999999997  0.47313  0.57977  1.0000
  H   H68       1.0  0.8470099999999999  0.7921600000000001  0.7540200000000002  1.0000
  H   H69       1.0  0.9944099999999999  0.39430999999999994  0.53008  1.0000
  H   H70       1.0  0.05502999999999997  0.28922  0.5670300000000001  1.0000
  H   H71       1.0  0.282  0.06617000000000002  0.77358  1.0000
  H   H72       1.0  0.11195999999999999  0.65579  0.50833  1.0000
  H   H73       1.0  0.25606999999999996  0.80289  0.60483  1.0000
  H   H74       1.0  0.8365100000000003  0.68755  0.6281200000000002  1.0000
  H   H75       1.0  0.43584000000000006  0.8309100000000001  0.9996300000000001  1.0000
  H   H76       1.0  0.6719600000000002  0.78204  0.4776800000000001  1.0000
  H   H77       1.0  0.9439300000000004  0.59266  0.5529400000000001  1.0000
  H   H78       1.0  0.7811800000000002  0.68956  0.40131  1.0000
  H   H79       1.0  0.8444199999999998  0.07113  0.63181  1.0000
  H   H80       1.0  0.7429300000000002  0.9541299999999999  0.6205  1.0000
  H   H81       1.0  0.50037  0.09946999999999993  0.6988000000000002  1.0000
  H   H82       1.0  0.5914  0.2198  0.71842  1.0000
  H   H83       1.0  0.12629000000000004  0.6328000000000003  0.37529  1.0000
  H   H84       1.0  0.16572999999999996  0.47793000000000013  0.22799  1.0000
  H   H85       1.0  0.24512  0.60551  0.13922  1.0000
  H   H86       1.0  0.22092999999999993  0.7623600000000001  0.29504  1.0000
  H   H87       1.0  0.12543999999999997  0.16598999999999997  0.9321000000000002  1.0000
  H   H88       1.0  0.27369999999999994  0.39394  0.9485  1.0000
  H   H89       1.0  0.16592999999999997  0.5495000000000002  0.7572700000000001  1.0000
  H   H90       1.0  0.9348500000000001  0.38615000000000005  0.83437  1.0000
  H   H91       1.0  0.47975  0.24214  0.8548  1.0000
  H   H92       1.0  0.25318999999999997  0.44980000000000003  0.84081  1.0000
  H   H93       1.0  0.009159999999999939  0.28262  0.9232300000000001  1.0000
  H   H94       1.0  0.38074  0.98856  0.8563700000000001  1.0000
  H   H95       1.0  0.74393  0.32866000000000006  0.87376  1.0000
  H   H96       1.0  0.5897500000000002  0.17562  0.06475  1.0000
  C   C1        1.0  0.11212  0.4352900000000001  0.11210000000000002  1.0000
  C   C2        1.0  0.06905999999999998  0.6267200000000002  0.93938  1.0000
  C   C3        1.0  0.32922  0.87028  0.36683  1.0000
  C   C4        1.0  0.7928899999999998  0.6814100000000002  0.22985000000000005  1.0000
  C   C5        1.0  0.2768299999999999  0.8205400000000003  0.43586000000000014  1.0000
  C   C6        1.0  0.8411600000000005  0.69878  0.98527  1.0000
  C   C7        1.0  0.39532  0.17514  0.21736000000000003  1.0000
  C   C8        1.0  0.9611600000000005  0.6960400000000001  0.8728100000000001  1.0000
  C   C9        1.0  0.7425  0.74617  0.27218  1.0000
  C   C10       1.0  0.32093000000000005  0.24256999999999998  0.19190000000000002  1.0000
  C   C11       1.0  0.74638  0.13259  0.3735  1.0000
  C   C12       1.0  0.34633  0.32916  0.1481  1.0000
  C   C13       1.0  0.7442100000000003  0.62249  0.20733  1.0000
  C   C14       1.0  0.6440500000000002  0.87728  0.34717  1.0000
  C   C15       1.0  0.6195299999999999  0.10100999999999997  0.32750000000000007  1.0000
  C   C16       1.0  0.9107200000000001  0.6390499999999999  0.9436000000000001  1.0000
  C   C17       1.0  0.63285  0.18855000000000002  0.27952  1.0000
  C   C18       1.0  0.23545000000000016  0.65037  0.9037700000000001  1.0000
  C   C19       1.0  0.8719200000000003  0.76884  0.00919  1.0000
  C   C20       1.0  0.6562100000000002  0.72513  0.31827  1.0000
  C   C21       1.0  0.18389000000000003  0.3669900000000001  0.13994  1.0000
  C   C22       1.0  0.27783  0.39172000000000007  0.12362  1.0000
  C   C23       1.0  0.7447700000000002  0.6844500000000002  0.0012  1.0000
  C   C24       1.0  0.15861000000000003  0.27988000000000013  0.18314000000000005  1.0000
  C   C25       1.0  0.6077000000000001  0.78991  0.3553  1.0000
  C   C26       1.0  0.7791700000000003  0.8336700000000001  0.26479  1.0000
  C   C27       1.0  0.13372999999999996  0.72598  0.8298800000000001  1.0000
  C   C28       1.0  0.7040400000000002  0.24319  0.27834  1.0000
  C   C29       1.0  0.73052  0.8981500000000002  0.30147  1.0000
  C   C30       1.0  0.22412000000000004  0.7114499999999999  0.8410800000000003  1.0000
  C   C31       1.0  0.5902700000000001  0.9496000000000001  0.38516000000000006  1.0000
  C   C32       1.0  0.76416  0.21607000000000004  0.32546000000000014  1.0000
  C   C33       1.0  0.2264200000000001  0.21923  0.21031000000000002  1.0000
  C   C34       1.0  0.64926  0.99009  0.42266000000000004  1.0000
  C   C35       1.0  0.8914100000000005  0.67864  0.20760000000000003  1.0000
  C   C36       1.0  0.29330000000000006  0.8373200000000002  0.4955000000000001  1.0000
  C   C37       1.0  0.21028000000000008  0.75571  0.44140000000000007  1.0000
  C   C38       1.0  0.25837000000000004  0.25153999999999993  0.44308000000000003  1.0000
  C   C39       1.0  0.1976900000000001  0.31466  0.40020000000000006  1.0000
  C   C40       1.0  0.31283  0.17533999999999994  0.4214400000000001  1.0000
  C   C41       1.0  0.16142  0.6082600000000002  0.95161  1.0000
  C   C42       1.0  0.25866000000000006  0.26767  0.5067700000000002  1.0000
  C   C43       1.0  0.36389999999999995  0.13065  0.528  1.0000
  C   C44       1.0  0.36544999999999994  0.11539999999999996  0.46367000000000014  1.0000
  C   C45       1.0  0.31032  0.2076600000000001  0.54902  1.0000
  C   C46       1.0  0.9184500000000002  0.23156999999999997  0.3530800000000001  1.0000
  C   C47       1.0  0.9843099999999999  0.28736  0.35987  1.0000
  C   C48       1.0  0.90443  0.42313  0.31386  1.0000
  C   C49       1.0  0.83693  0.37142  0.30421  1.0000
  C   C50       1.0  0.8399600000000005  0.27292  0.32667  1.0000
  C   C51       1.0  0.37009000000000014  0.84368  0.67741  1.0000
  C   C52       1.0  0.4567900000000001  0.82309  0.7598100000000002  1.0000
  C   C53       1.0  0.38517  0.77558  0.8089200000000001  1.0000
  C   C54       1.0  0.30273000000000005  0.7596000000000003  0.79106  1.0000
  C   C55       1.0  0.2974000000000001  0.79379  0.7227  1.0000
  C   C56       1.0  0.7113  0.8074  0.06532000000000002  1.0000
  C   C57       1.0  0.64563  0.8595299999999999  0.11141000000000001  1.0000
  C   C58       1.0  0.80823  0.82247  0.04833  1.0000
  C   C59       1.0  0.68073  0.73801  0.04045  1.0000
  C   C60       1.0  0.51142  0.8647800000000002  0.20537  1.0000
  C   C61       1.0  0.60318  0.99435  0.16233000000000006  1.0000
  C   C62       1.0  0.79292  0.56764  0.16308  1.0000
  C   C63       1.0  0.5667800000000002  0.81767  0.15802  1.0000
  C   C64       1.0  0.66097  0.9517200000000002  0.11335  1.0000
  C   C65       1.0  0.9354900000000003  0.6231200000000002  0.16259000000000004  1.0000
  C   C66       1.0  0.7543000000000002  0.33686  0.0344  1.0000
  C   C67       1.0  0.8034300000000002  0.38579000000000013  0.07077  1.0000
  C   C68       1.0  0.68767  0.27081000000000005  0.07108000000000002  1.0000
  C   C69       1.0  0.77419  0.35753  0.9631400000000001  1.0000
  C   C70       1.0  0.9324300000000003  0.5822600000000002  0.42442000000000013  1.0000
  C   C71       1.0  0.56469  0.8878900000000001  0.8879000000000002  1.0000
  C   C72       1.0  0.3732900000000001  0.93093  0.06061  1.0000
  C   C73       1.0  0.12973000000000007  0.6708  0.6331400000000001  1.0000
  C   C74       1.0  0.31858  0.20712  0.77014  1.0000
  C   C75       1.0  0.17947000000000002  0.7231999999999998  0.5641200000000001  1.0000
  C   C76       1.0  0.3012300000000001  0.15884  0.014720000000000002  1.0000
  C   C77       1.0  0.82485  0.6046800000000001  0.78263  1.0000
  C   C78       1.0  0.30395  0.038849999999999996  0.12719000000000003  1.0000
  C   C79       1.0  0.2538200000000002  0.2575  0.72781  1.0000
  C   C80       1.0  0.7574100000000001  0.6790700000000002  0.80809  1.0000
  C   C81       1.0  0.8674100000000003  0.25363  0.62649  1.0000
  C   C82       1.0  0.67082  0.65366  0.8519000000000001  1.0000
  C   C83       1.0  0.3775000000000002  0.2558  0.79266  1.0000
  C   C84       1.0  0.12272000000000005  0.35594  0.6528300000000001  1.0000
  C   C85       1.0  0.8989700000000002  0.38049  0.6725000000000002  1.0000
  C   C86       1.0  0.3609400000000001  0.08928000000000001  0.056400000000000006  1.0000
  C   C87       1.0  0.81141  0.36715999999999993  0.72049  1.0000
  C   C88       1.0  0.34964  0.76452  0.09622000000000001  1.0000
  C   C89       1.0  0.23116999999999996  0.12809999999999996  0.9908000000000001  1.0000
  C   C90       1.0  0.2748600000000002  0.34379  0.68173  1.0000
  C   C91       1.0  0.6330000000000001  0.81611  0.86007  1.0000
  C   C92       1.0  0.6082600000000002  0.72217  0.87639  1.0000
  C   C93       1.0  0.31555000000000005  0.25524  0.9987800000000001  1.0000
  C   C94       1.0  0.7201099999999999  0.8413900000000002  0.81686  1.0000
  C   C95       1.0  0.21009000000000003  0.3923  0.64471  1.0000
  C   C96       1.0  0.16631999999999997  0.22084000000000004  0.7352  1.0000
  C   C97       1.0  0.27403  0.8662700000000001  0.17012  1.0000
  C   C98       1.0  0.7567800000000002  0.29597000000000007  0.7216700000000003  1.0000
  C   C99       1.0  0.10184999999999995  0.26949  0.6985300000000001  1.0000
  C   C100      1.0  0.2885500000000002  0.77587  0.15892  1.0000
  C   C101      1.0  0.050409999999999996  0.4097199999999999  0.61484  1.0000
  C   C102      1.0  0.7839199999999998  0.23584999999999998  0.67454  1.0000
  C   C103      1.0  0.78076  0.77357  0.7896800000000003  1.0000
  C   C104      1.0  0.009919999999999946  0.35074  0.5773300000000002  1.0000
  C   C105      1.0  0.3213500000000001  0.1086  0.79239  1.0000
  C   C106      1.0  0.16268999999999995  0.7067200000000002  0.50448  1.0000
  C   C107      1.0  0.24429999999999996  0.78974  0.55857  1.0000
  C   C108      1.0  0.7484400000000001  0.7416300000000002  0.55694  1.0000
  C   C109      1.0  0.6853200000000002  0.80232  0.59982  1.0000
  C   C110      1.0  0.82464  0.6871700000000002  0.57856  1.0000
  C   C111      1.0  0.39177000000000006  0.83856  0.04839  1.0000
  C   C112      1.0  0.73231  0.74133  0.49324000000000007  1.0000
  C   C113      1.0  0.86935  0.63611  0.47199000000000013  1.0000
  C   C114      1.0  0.8846000000000002  0.6345499999999998  0.53632  1.0000
  C   C115      1.0  0.79234  0.6896700000000002  0.45098  1.0000
  C   C116      1.0  0.7684500000000002  0.08154000000000002  0.64692  1.0000
  C   C117      1.0  0.71266  0.015669999999999983  0.64012  1.0000
  C   C118      1.0  0.5768700000000001  0.09555999999999998  0.6861400000000001  1.0000
  C   C119      1.0  0.6285700000000001  0.16305999999999998  0.69579  1.0000
  C   C120      1.0  0.72708  0.16003  0.67333  1.0000
  C   C121      1.0  0.15632000000000001  0.6299100000000001  0.32259000000000004  1.0000
  C   C122      1.0  0.17690999999999998  0.5432  0.24019000000000004  1.0000
  C   C123      1.0  0.22441000000000003  0.6148200000000001  0.19107000000000002  1.0000
  C   C124      1.0  0.24040000000000006  0.6972700000000002  0.20894  1.0000
  C   C125      1.0  0.20620000000000002  0.7025999999999999  0.2773  1.0000
  C   C126      1.0  0.1925999999999999  0.2887100000000001  0.9346600000000002  1.0000
  C   C127      1.0  0.14046999999999996  0.35437  0.8885800000000001  1.0000
  C   C128      1.0  0.17755000000000004  0.19177000000000002  0.95166  1.0000
  C   C129      1.0  0.262  0.31925999999999993  0.9595400000000001  1.0000
  C   C130      1.0  0.1352099999999999  0.48857000000000017  0.7946300000000002  1.0000
  C   C131      1.0  0.005649999999999907  0.3968300000000001  0.8376700000000002  1.0000
  C   C132      1.0  0.4323400000000002  0.20708999999999997  0.83691  1.0000
  C   C133      1.0  0.18232000000000004  0.43322  0.8419700000000001  1.0000
  C   C134      1.0  0.048279999999999955  0.33904  0.88663  1.0000
  C   C135      1.0  0.3768700000000002  0.06453000000000002  0.83739  1.0000
  C   C136      1.0  0.6631700000000001  0.24571000000000004  0.9656  1.0000
  C   C137      1.0  0.61421  0.19658000000000003  0.92924  1.0000
  C   C138      1.0  0.72921  0.31234  0.92891  1.0000
  C   C139      1.0  0.6425  0.22581999999999997  0.03685  1.0000
  C   C140      1.0  0.41778999999999994  0.06758000000000003  0.57553  1.0000
  N   N1        1.0  0.9880100000000005  0.59691  0.9782000000000001  1.0000
  N   N2        1.0  0.5625599999999998  0.03322999999999997  0.33506000000000014  1.0000
  N   N3        1.0  0.060669999999999974  0.6854400000000002  0.87743  1.0000
  N   N4        1.0  0.67739  0.07881000000000002  0.37382  1.0000
  N   N5        1.0  0.9766199999999999  0.3824  0.34249000000000007  1.0000
  N   N6        1.0  0.4491500000000001  0.8581000000000002  0.69517  1.0000
  N   N7        1.0  0.5302299999999999  0.95146  0.20863000000000004  1.0000
  N   N8        1.0  0.8871200000000002  0.56876  0.14003  1.0000
  N   N9        1.0  0.4030900000000001  0.011979999999999998  0.02178  1.0000
  N   N10       1.0  0.96677  0.43743999999999994  0.66495  1.0000
  N   N11       1.0  0.31457  0.93933  0.12256000000000002  1.0000
  N   N12       1.0  0.92119  0.32263  0.62618  1.0000
  N   N13       1.0  0.6176099999999999  0.023359999999999985  0.6575  1.0000
  N   N14       1.0  0.1419000000000001  0.55084  0.30483  1.0000
  N   N15       1.0  0.04853000000000002  0.4697700000000001  0.79136  1.0000
  N   N16       1.0  0.43123000000000006  0.11290000000000003  0.85996  1.0000
  O   O1        1.0  0.39946  0.9167000000000002  0.36748000000000003  1.0000
  O   O2        1.0  0.36357  0.10064  0.26264  1.0000
  O   O3        1.0  0.12314  0.52224  0.10064000000000002  1.0000
  O   O4        1.0  0.30489  0.8637699999999999  0.3144900000000001  1.0000
  O   O5        1.0  0.48084000000000005  0.19022  0.19425  1.0000
  O   O6        1.0  0.042000000000000016  0.3996900000000001  0.10101  1.0000
  O   O7        1.0  0.13172  0.3636  0.43432  1.0000
  O   O8        1.0  0.20919000000000007  0.3179  0.3383700000000001  1.0000
  O   O9        1.0  0.8634400000000002  0.4454  0.03053  1.0000
  O   O10       1.0  0.78586  0.3693  0.13417  1.0000
  O   O11       1.0  0.99217  0.5195499999999997  0.4497  1.0000
  O   O12       1.0  0.92699  0.59837  0.36345000000000005  1.0000
  O   O13       1.0  0.08331999999999999  0.6005499999999999  0.6324900000000001  1.0000
  O   O14       1.0  0.8993499999999999  0.63643  0.73735  1.0000
  O   O15       1.0  0.47774000000000016  0.87688  0.8993500000000002  1.0000
  O   O16       1.0  0.1362200000000001  0.6951200000000002  0.68549  1.0000
  O   O17       1.0  0.80979  0.51916  0.80575  1.0000
  O   O18       1.0  0.6003  0.9580100000000001  0.8989900000000001  1.0000
  O   O19       1.0  0.6363900000000001  0.86829  0.5657100000000002  1.0000
  O   O20       1.0  0.6820900000000001  0.79081  0.6616500000000001  1.0000
  O   O21       1.0  0.5545900000000001  0.13656999999999997  0.96948  1.0000
  O   O22       1.0  0.6307000000000003  0.2141300000000001  0.86584  1.0000
  O   O23       1.0  0.48048000000000013  0.007840000000000026  0.5502100000000001  1.0000
  O   O24       1.0  0.40176000000000023  0.07300999999999999  0.63651  1.0000
