data_image0
_chemical_formula_structural       Ni6H80C110N10O30
_chemical_formula_sum              "Ni6 H80 C110 N10 O30"
_cell_length_a       12.96726
_cell_length_b       16.334370000000003
_cell_length_c       17.3575
_cell_angle_alpha    112.75961
_cell_angle_beta     102.4514
_cell_angle_gamma    97.53248

_symmetry_space_group_name_H-M    'P 1'
_symmetry_Int_Tables_number       1

loop_
  _symmetry_equiv_pos_as_xyz
  'x,y,z'

loop_
  _atom_site_type_symbol
  _atom_site_label
  _atom_site_symmetry_multiplicity
  _atom_site_fract_x
  _atom_site_fract_y
  _atom_site_fract_z
  _atom_site_occupancy
  Ni  Ni1       1.0  0.33515  0.72544  0.3263699999999999  1.0000
  Ni  Ni2       1.0  0.66484  0.27456  0.67363  1.0000
  Ni  Ni3       1.0  0.91904  0.27571  0.30268  1.0000
  Ni  Ni4       1.0  0.87213  0.72593  0.76804  1.0000
  Ni  Ni5       1.0  0.12787  0.27407  0.23196  1.0000
  Ni  Ni6       1.0  0.08095000000000001  0.72429  0.69732  1.0000
  H   H1        1.0  0.32285  0.37078999999999995  0.5759  1.0000
  H   H2        1.0  0.5570099999999997  0.037869999999999904  0.9054699999999998  1.0000
  H   H3        1.0  0.53154  0.27759  0.79844  1.0000
  H   H4        1.0  0.6171  0.8323900000000002  0.19649999999999995  1.0000
  H   H5        1.0  0.12450999999999988  0.4033399999999999  0.8942699999999998  1.0000
  H   H6        1.0  0.58103  0.5912699999999999  0.7855699999999998  1.0000
  H   H7        1.0  0.7520099999999997  0.1004  0.45526  1.0000
  H   H8        1.0  0.28881  0.03226  0.29573  1.0000
  H   H9        1.0  0.20267  0.79492  0.26539  1.0000
  H   H10       1.0  0.9543999999999997  0.058349999999999874  0.9730099999999998  1.0000
  H   H11       1.0  0.14448  0.38012  0.16562999999999994  1.0000
  H   H12       1.0  0.36435  0.76563  0.66632  1.0000
  H   H13       1.0  0.55099  0.73096  0.42581  1.0000
  H   H14       1.0  0.42021  0.12326999999999998  0.4434899999999999  1.0000
  H   H15       1.0  0.3424999999999999  0.24987  0.3104899999999999  1.0000
  H   H16       1.0  0.51235  0.34651  0.42708  1.0000
  H   H17       1.0  0.81682  0.69947  0.3819799999999999  1.0000
  H   H18       1.0  0.13703999999999997  0.7716200000000001  0.5564  1.0000
  H   H19       1.0  0.41896  0.40873  0.21443  1.0000
  H   H20       1.0  0.63564  0.23437000000000002  0.33367999999999987  1.0000
  H   H21       1.0  0.9679099999999999  0.46853  0.57897  1.0000
  H   H22       1.0  0.68116  0.14746  0.052  1.0000
  H   H23       1.0  0.449  0.26905  0.57419  1.0000
  H   H24       1.0  0.04559  0.94165  0.02699  1.0000
  H   H25       1.0  0.50779  0.13934  0.18444  1.0000
  H   H26       1.0  0.38289  0.16761  0.8035  1.0000
  H   H27       1.0  0.21590999999999994  0.38165  0.77897  1.0000
  H   H28       1.0  0.4115099999999998  0.9652499999999998  0.5639399999999998  1.0000
  H   H29       1.0  0.09472000000000001  0.24155  0.36758  1.0000
  H   H30       1.0  0.71025  0.26738  0.1755  1.0000
  H   H31       1.0  0.18513999999999994  0.74129  0.02274  1.0000
  H   H32       1.0  0.8148499999999999  0.2587099999999999  0.9772599999999998  1.0000
  H   H33       1.0  0.6771399999999997  0.6292199999999999  0.4240899999999999  1.0000
  H   H34       1.0  0.19793000000000002  0.46891000000000016  0.35923  1.0000
  H   H35       1.0  0.7840799999999996  0.6183499999999998  0.22101999999999994  1.0000
  H   H36       1.0  0.44256  0.9152  0.43092999999999987  1.0000
  H   H37       1.0  0.13384  0.28176  0.09167999999999997  1.0000
  H   H38       1.0  0.4324299999999997  0.6439499999999999  0.8249699999999998  1.0000
  H   H39       1.0  0.46845  0.72241  0.20156  1.0000
  H   H40       1.0  0.49219999999999997  0.86066  0.8155499999999998  1.0000
  H   H41       1.0  0.8629499999999998  0.22837999999999994  0.4435899999999999  1.0000
  H   H42       1.0  0.64199  0.4253099999999999  0.5254299999999997  1.0000
  H   H43       1.0  0.3344499999999999  0.04461000000000004  0.8263  1.0000
  H   H44       1.0  0.30644999999999994  0.52202  0.22307999999999995  1.0000
  H   H45       1.0  0.8380199999999997  0.2118399999999999  0.6550099999999998  1.0000
  H   H46       1.0  0.6935499999999998  0.47798  0.77692  1.0000
  H   H47       1.0  0.80206  0.53109  0.64077  1.0000
  H   H48       1.0  0.2897399999999999  0.7326199999999999  0.8244999999999998  1.0000
  H   H49       1.0  0.94288  0.8513099999999999  0.7346899999999997  1.0000
  H   H50       1.0  0.358  0.5747  0.47456  1.0000
  H   H51       1.0  0.14653  0.65334  0.86266  1.0000
  H   H52       1.0  0.14085999999999996  0.57771  0.56093  1.0000
  H   H53       1.0  0.44298  0.96213  0.09451999999999998  1.0000
  H   H54       1.0  0.6574999999999999  0.75014  0.68951  1.0000
  H   H55       1.0  0.87548  0.59666  0.10572999999999998  1.0000
  H   H56       1.0  0.17187  0.49329  0.05544  1.0000
  H   H57       1.0  0.7973199999999999  0.20509000000000002  0.73461  1.0000
  H   H58       1.0  0.03207999999999995  0.53148  0.4210299999999999  1.0000
  H   H59       1.0  0.56756  0.35606  0.17503  1.0000
  H   H60       1.0  0.05712  0.1487  0.26531  1.0000
  H   H61       1.0  0.21332999999999994  0.91297  0.82481  1.0000
  H   H62       1.0  0.5574399999999999  0.0848  0.5690699999999999  1.0000
  H   H63       1.0  0.8661499999999999  0.7182399999999999  0.9083199999999999  1.0000
  H   H64       1.0  0.85913  0.42229  0.43907  1.0000
  H   H65       1.0  0.24798999999999988  0.8995999999999998  0.5447399999999998  1.0000
  H   H66       1.0  0.9052799999999999  0.75845  0.6324199999999998  1.0000
  H   H67       1.0  0.16197  0.78816  0.34499  1.0000
  H   H68       1.0  0.8281200000000001  0.5067100000000002  0.94455  1.0000
  H   H69       1.0  0.85551  0.61989  0.83437  1.0000
  H   H70       1.0  0.18317999999999993  0.3005299999999999  0.6180199999999998  1.0000
  H   H71       1.0  0.7111899999999998  0.96775  0.70427  1.0000
  H   H72       1.0  0.57979  0.8767299999999999  0.5565  1.0000
  H   H73       1.0  0.48764  0.65349  0.57292  1.0000
  H   H74       1.0  0.31883999999999996  0.85254  0.948  1.0000
  H   H75       1.0  0.6655399999999998  0.9553899999999999  0.17369999999999994  1.0000
  H   H76       1.0  0.72742  0.5208799999999999  0.4498299999999999  1.0000
  H   H77       1.0  0.78666  0.08702999999999997  0.17518999999999996  1.0000
  H   H78       1.0  0.8534599999999999  0.34666  0.13734  1.0000
  H   H79       1.0  0.5884799999999999  0.03475  0.43606  1.0000
  H   H80       1.0  0.2725699999999998  0.4791199999999999  0.5501699999999998  1.0000
  C   C1        1.0  0.8166799999999999  0.37685999999999986  0.9507299999999997  1.0000
  C   C2        1.0  0.48406  0.90086  0.3808799999999999  1.0000
  C   C3        1.0  0.22311999999999993  0.9135199999999998  0.7644299999999998  1.0000
  C   C4        1.0  0.09965999999999992  0.8222599999999999  0.8913299999999997  1.0000
  C   C5        1.0  0.39001999999999987  0.07851999999999999  0.22973999999999994  1.0000
  C   C6        1.0  0.38384  0.05574  0.68368  1.0000
  C   C7        1.0  0.85796  0.52238  0.07767  1.0000
  C   C8        1.0  0.8673  0.05346999999999992  0.9580299999999998  1.0000
  C   C9        1.0  0.20269  0.012770000000000002  0.12167  1.0000
  C   C10       1.0  0.79005  0.32011  0.8543199999999997  1.0000
  C   C11       1.0  0.40429  0.39854  0.62182  1.0000
  C   C12       1.0  0.5806099999999998  0.8545499999999999  0.24970999999999993  1.0000
  C   C13       1.0  0.1420399999999999  0.47762999999999994  0.9223299999999998  1.0000
  C   C14       1.0  0.8205299999999999  0.16537999999999994  0.3858699999999999  1.0000
  C   C15       1.0  0.8573599999999999  0.64547  0.3549099999999999  1.0000
  C   C16       1.0  0.4983299999999999  0.79237  0.25195  1.0000
  C   C17       1.0  0.3155  0.017489999999999985  0.142  1.0000
  C   C18       1.0  0.79364  0.41084  0.38235  1.0000
  C   C19       1.0  0.15164999999999995  0.6176799999999999  0.9043199999999998  1.0000
  C   C20       1.0  0.63554  0.44809  0.31302  1.0000
  C   C21       1.0  0.41938999999999993  0.1454599999999999  0.7502899999999998  1.0000
  C   C22       1.0  0.8907399999999999  0.52949  0.22909999999999994  1.0000
  C   C23       1.0  0.35619  0.95888  0.07867  1.0000
  C   C24       1.0  0.4380699999999999  0.12757999999999994  0.38657999999999987  1.0000
  C   C25       1.0  0.48844  0.13593  0.24125999999999995  1.0000
  C   C26       1.0  0.8259699999999999  0.33255  0.00599  1.0000
  C   C27       1.0  0.70911  0.32334  0.23488999999999993  1.0000
  C   C28       1.0  0.52622  0.65932  0.37937  1.0000
  C   C29       1.0  0.36475999999999986  0.07642999999999994  0.3038899999999999  1.0000
  C   C30       1.0  0.7131899999999998  0.1033  0.00264  1.0000
  C   C31       1.0  0.64994  0.67804  0.65018  1.0000
  C   C32       1.0  0.84209  0.9139299999999999  0.8210199999999997  1.0000
  C   C33       1.0  0.6301599999999998  0.3733000000000001  0.23547  1.0000
  C   C34       1.0  0.43983999999999984  0.81092  0.67557  1.0000
  C   C35       1.0  0.82575  0.11119  0.02105  1.0000
  C   C36       1.0  0.55539  0.62296  0.58468  1.0000
  C   C37       1.0  0.5488199999999999  0.53006  0.5356799999999998  1.0000
  C   C38       1.0  0.18330999999999995  0.62314  0.04927  1.0000
  C   C39       1.0  0.8483399999999998  0.38232  0.09567  1.0000
  C   C40       1.0  0.44461  0.37704  0.41532  1.0000
  C   C41       1.0  0.43363999999999997  0.0338899999999999  0.6164999999999998  1.0000
  C   C42       1.0  0.63937  0.49659  0.55779  1.0000
  C   C43       1.0  0.16739  0.5277  0.01267  1.0000
  C   C44       1.0  0.5956999999999999  0.60146  0.3781799999999999  1.0000
  C   C45       1.0  0.2899199999999998  0.98711  0.7642299999999997  1.0000
  C   C46       1.0  0.73104  0.55579  0.6236799999999998  1.0000
  C   C47       1.0  0.43936999999999987  0.4907  0.68318  1.0000
  C   C48       1.0  0.8656399999999999  0.47813  0.13329  1.0000
  C   C49       1.0  0.5159299999999999  0.09913999999999994  0.6191099999999998  1.0000
  C   C50       1.0  0.9697299999999998  0.55991  0.7455  1.0000
  C   C51       1.0  0.1579  0.08607  0.17898  1.0000
  C   C52       1.0  0.75675  0.09359999999999997  0.3913199999999999  1.0000
  C   C53       1.0  0.8325999999999998  0.4723  0.98733  1.0000
  C   C54       1.0  0.3891099999999999  0.54219  0.26582  1.0000
  C   C55       1.0  0.6438  0.04112000000000003  0.92133  1.0000
  C   C56       1.0  0.5115499999999997  0.86408  0.75874  1.0000
  C   C57       1.0  0.6968599999999998  0.015839999999999986  0.31482  1.0000
  C   C58       1.0  0.35005999999999987  0.3219699999999999  0.3498199999999999  1.0000
  C   C59       1.0  0.6352399999999999  0.9235699999999999  0.6961099999999998  1.0000
  C   C60       1.0  0.1426299999999999  0.35453999999999997  0.6450899999999998  1.0000
  C   C61       1.0  0.68449  0.98251  0.85799  1.0000
  C   C62       1.0  0.17947000000000007  0.8346200000000005  0.61412  1.0000
  C   C63       1.0  0.7191699999999999  0.46505  0.38742999999999994  1.0000
  C   C64       1.0  0.77687  0.08648999999999997  0.23556999999999995  1.0000
  C   C65       1.0  0.9256699999999998  0.6203999999999998  0.4121999999999999  1.0000
  C   C66       1.0  0.29088  0.67666  0.7651  1.0000
  C   C67       1.0  0.13269000000000003  0.9465300000000001  0.04197  1.0000
  C   C68       1.0  0.9003299999999997  0.17774  0.10866  1.0000
  C   C69       1.0  0.1740299999999999  0.66746  0.9940099999999997  1.0000
  C   C70       1.0  0.36444999999999994  0.55192  0.68698  1.0000
  C   C71       1.0  0.02169999999999999  0.44892  0.62268  1.0000
  C   C72       1.0  0.45402  0.47990999999999995  0.2607099999999999  1.0000
  C   C73       1.0  0.1742399999999999  0.8888199999999999  0.9789499999999998  1.0000
  C   C74       1.0  0.10924999999999992  0.4705199999999999  0.7708899999999997  1.0000
  C   C75       1.0  0.24324000000000004  0.9064  0.60868  1.0000
  C   C76       1.0  0.13435000000000002  0.52187  0.86671  1.0000
  C   C77       1.0  0.030259999999999967  0.44009999999999994  0.25449999999999995  1.0000
  C   C78       1.0  0.47378  0.34068  0.62063  1.0000
  C   C79       1.0  0.06253999999999993  0.33504999999999996  0.4915499999999999  1.0000
  C   C80       1.0  0.5663499999999999  0.9661199999999999  0.3834999999999999  1.0000
  C   C81       1.0  0.96204  0.50607  0.2873199999999999  1.0000
  C   C82       1.0  0.20635  0.58916  0.61765  1.0000
  C   C83       1.0  0.3031399999999999  0.98417  0.6851799999999998  1.0000
  C   C84       1.0  0.28082  0.53495  0.61257  1.0000
  C   C85       1.0  0.36062  0.50341  0.4422099999999999  1.0000
  C   C86       1.0  0.7100799999999998  0.01288999999999998  0.23575999999999994  1.0000
  C   C87       1.0  0.20993999999999996  0.67989  0.14568  1.0000
  C   C88       1.0  0.2867999999999999  0.89671  0.9973599999999998  1.0000
  C   C89       1.0  0.9782999999999997  0.55108  0.3773199999999999  1.0000
  C   C90       1.0  0.7972999999999998  0.9872299999999999  0.8783299999999998  1.0000
  C   C91       1.0  0.3831399999999999  0.76321  0.51272  1.0000
  C   C92       1.0  0.53696  0.1838  0.39785  1.0000
  C   C93       1.0  0.07433000000000001  0.3796  0.58779  1.0000
  C   C94       1.0  0.6168599999999999  0.23678999999999994  0.4872799999999999  1.0000
  C   C95       1.0  0.46303999999999984  0.8162  0.6021499999999997  1.0000
  C   C96       1.0  0.26896  0.44421000000000005  0.37631  1.0000
  C   C97       1.0  0.60997  0.9214799999999999  0.7702499999999998  1.0000
  C   C98       1.0  0.54598  0.52009  0.73928  1.0000
  C   C99       1.0  0.3698299999999998  0.6266999999999999  0.7645199999999998  1.0000
  C   C100      1.0  0.5606199999999998  0.5093  0.31682  1.0000
  C   C101      1.0  0.037959999999999924  0.49392999999999987  0.7126799999999998  1.0000
  C   C102      1.0  0.56015  0.18908000000000005  0.32443  1.0000
  C   C103      1.0  0.56192  0.8724200000000001  0.61342  1.0000
  C   C104      1.0  0.6161599999999998  0.94427  0.3163199999999999  1.0000
  C   C105      1.0  0.8400999999999997  0.60042  0.26501  1.0000
  C   C106      1.0  0.9374499999999999  0.66495  0.50845  1.0000
  C   C107      1.0  0.45117  0.46994000000000014  0.46432  1.0000
  C   C108      1.0  0.61089  0.45781  0.73418  1.0000
  C   C109      1.0  0.1598899999999999  0.39958  0.73499  1.0000
  C   C110      1.0  0.5016699999999997  0.2076399999999999  0.7480499999999998  1.0000
  N   N1        1.0  0.4247699999999999  0.6311800000000002  0.32361  1.0000
  N   N2        1.0  0.73789  0.64547  0.6693099999999997  1.0000
  N   N3        1.0  0.5752199999999998  0.36882  0.6763899999999998  1.0000
  N   N4        1.0  0.7912899999999998  0.34201999999999994  0.30679999999999996  1.0000
  N   N5        1.0  0.45024999999999993  0.8150399999999999  0.31649999999999995  1.0000
  N   N6        1.0  0.2621  0.35453  0.3306799999999999  1.0000
  N   N7        1.0  0.54974  0.18495999999999996  0.6834999999999998  1.0000
  N   N8        1.0  0.16999999999999998  0.8370999999999998  0.6908399999999998  1.0000
  N   N9        1.0  0.82999  0.16290999999999994  0.3091599999999999  1.0000
  N   N10       1.0  0.2087  0.65798  0.6932  1.0000
  O   O1        1.0  0.015869999999999978  0.6526  0.55924  1.0000
  O   O2        1.0  0.18287999999999996  0.32797  0.14717  1.0000
  O   O3        1.0  0.8171100000000001  0.67203  0.85282  1.0000
  O   O4        1.0  0.8165899999999996  0.24402999999999994  0.8288499999999998  1.0000
  O   O5        1.0  0.94499  0.7828999999999999  0.6984599999999997  1.0000
  O   O6        1.0  0.9985799999999999  0.8050500000000003  0.88282  1.0000
  O   O7        1.0  0.031059999999999966  0.37316999999999995  0.27718999999999994  1.0000
  O   O8        1.0  0.20253999999999994  0.16661999999999996  0.19108999999999995  1.0000
  O   O9        1.0  0.68766  0.30599  0.50381  1.0000
  O   O10       1.0  0.0014099999999999907  0.19496  0.11717999999999998  1.0000
  O   O11       1.0  0.85418  0.21078999999999998  0.16841  1.0000
  O   O12       1.0  0.96894  0.62683  0.72281  1.0000
  O   O13       1.0  0.7738799999999999  0.18744  0.66689  1.0000
  O   O14       1.0  0.60388  0.2033  0.54227  1.0000
  O   O15       1.0  0.14580999999999988  0.7892099999999999  0.8315799999999998  1.0000
  O   O16       1.0  0.18341  0.75598  0.17113999999999993  1.0000
  O   O17       1.0  0.08845  0.45701  0.21057  1.0000
  O   O18       1.0  0.08120999999999996  0.06398999999999998  0.20708999999999994  1.0000
  O   O19       1.0  0.7974499999999999  0.83338  0.80891  1.0000
  O   O20       1.0  0.9115499999999996  0.5429899999999999  0.7894299999999997  1.0000
  O   O21       1.0  0.26068  0.64787  0.19617999999999994  1.0000
  O   O22       1.0  0.31233  0.69401  0.4961799999999999  1.0000
  O   O23       1.0  0.8692  0.71102  0.53264  1.0000
  O   O24       1.0  0.73931  0.3521299999999999  0.8038199999999998  1.0000
  O   O25       1.0  0.05500000000000001  0.2171  0.30154  1.0000
  O   O26       1.0  0.9187799999999999  0.93601  0.7929099999999999  1.0000
  O   O27       1.0  0.13079  0.28898  0.46735  1.0000
  O   O28       1.0  0.39611  0.7967  0.4577199999999999  1.0000
  O   O29       1.0  0.9841199999999998  0.34741  0.4407599999999999  1.0000
  O   O30       1.0  0.22612  0.81256  0.33311  1.0000
