data_image0
_chemical_formula_structural       Tb8H64C128N8O56
_chemical_formula_sum              "Tb8 H64 C128 N8 O56"
_cell_length_a       14.33431
_cell_length_b       23.30175
_cell_length_c       26.197669999999995
_cell_angle_alpha    85.18137
_cell_angle_beta     74.15461
_cell_angle_gamma    72.11001

_space_group_name_H-M_alt    "P 1"
_space_group_IT_number       1

loop_
  _space_group_symop_operation_xyz
  'x, y, z'

loop_
  _atom_site_type_symbol
  _atom_site_label
  _atom_site_symmetry_multiplicity
  _atom_site_fract_x
  _atom_site_fract_y
  _atom_site_fract_z
  _atom_site_occupancy
  Tb  Tb1       1.0  0.08179999999999998  0.24996999999999997  0.8331200000000001  1.0000
  Tb  Tb2       1.0  0.66648  0.25018  0.66724  1.0000
  Tb  Tb3       1.0  0.9179299999999996  0.75012  0.1671  1.0000
  Tb  Tb4       1.0  0.33365000000000006  0.74988  0.33365000000000006  1.0000
  Tb  Tb5       1.0  0.8314499999999996  0.33701999999999993  0.74954  1.0000
  Tb  Tb6       1.0  0.41941999999999974  0.16058  0.7498100000000001  1.0000
  Tb  Tb7       1.0  0.16759999999999992  0.66577  0.25005000000000005  1.0000
  Tb  Tb8       1.0  0.5815600000000001  0.83656  0.25027  1.0000
  H   H1        1.0  0.7661099999999995  0.21659  0.7762000000000001  1.0000
  H   H2        1.0  0.6250199999999999  0.08881999999999998  0.86734  1.0000
  H   H3        1.0  0.86521  0.13147  0.91181  1.0000
  H   H4        1.0  0.5321199999999999  0.007959999999999998  0.03894  1.0000
  H   H5        1.0  0.5566599999999999  0.94143  0.11648  1.0000
  H   H6        1.0  0.88011  0.8950399999999997  0.05267  1.0000
  H   H7        1.0  0.8569599999999996  0.9642699999999997  0.9763400000000001  1.0000
  H   H8        1.0  0.7962299999999997  0.05935999999999999  0.9571800000000001  1.0000
  H   H9        1.0  0.4584699999999998  0.28308999999999995  0.7758700000000002  1.0000
  H   H10       1.0  0.5073099999999997  0.4109399999999999  0.8675400000000002  1.0000
  H   H11       1.0  0.22292999999999988  0.36781  0.9111100000000002  1.0000
  H   H12       1.0  0.42959999999999976  0.49143  0.03853  1.0000
  H   H13       1.0  0.32859  0.55782  0.11636000000000003  1.0000
  H   H14       1.0  0.06787999999999995  0.60485  0.05332  1.0000
  H   H15       1.0  0.16602999999999998  0.53572  0.9768000000000001  1.0000
  H   H16       1.0  0.2464399999999999  0.4399999999999999  0.9571600000000001  1.0000
  H   H17       1.0  0.016349999999999976  0.2163  0.72367  1.0000
  H   H18       1.0  0.2853399999999999  0.08887  0.6328  1.0000
  H   H19       1.0  0.002839999999999931  0.13101999999999997  0.5879100000000002  1.0000
  H   H20       1.0  0.45999999999999996  0.008109999999999997  0.4614000000000001  1.0000
  H   H21       1.0  0.50221  0.94169  0.38379000000000013  1.0000
  H   H22       1.0  0.22511999999999996  0.89494  0.4474500000000001  1.0000
  H   H23       1.0  0.17894000000000007  0.9642699999999997  0.52379  1.0000
  H   H24       1.0  0.14468999999999993  0.05952  0.5423  1.0000
  H   H25       1.0  0.25933  0.28258  0.7238500000000001  1.0000
  H   H26       1.0  0.08210999999999996  0.41122  0.63276  1.0000
  H   H27       1.0  0.40964999999999985  0.36724999999999997  0.5884800000000001  1.0000
  H   H28       1.0  0.07868999999999995  0.49167  0.4618600000000001  1.0000
  H   H29       1.0  0.11327000000000005  0.55789  0.38399  1.0000
  H   H30       1.0  0.3271999999999999  0.60517  0.44686  1.0000
  H   H31       1.0  0.2980900000000001  0.53596  0.52345  1.0000
  H   H32       1.0  0.3136399999999999  0.43972  0.54241  1.0000
  H   H33       1.0  0.2311700000000001  0.7843199999999999  0.22413000000000005  1.0000
  H   H34       1.0  0.37575000000000003  0.9103299999999999  0.13259  1.0000
  H   H35       1.0  0.13404000000000008  0.8694299999999998  0.088  1.0000
  H   H36       1.0  0.46789000000000003  0.9925499999999999  0.9613400000000002  1.0000
  H   H37       1.0  0.4425099999999998  0.058509999999999986  0.8834500000000002  1.0000
  H   H38       1.0  0.11922999999999997  0.10464999999999999  0.94786  1.0000
  H   H39       1.0  0.14312999999999995  0.035879999999999995  0.02447  1.0000
  H   H40       1.0  0.20407  0.94094  0.042790000000000016  1.0000
  H   H41       1.0  0.5436999999999997  0.7161799999999999  0.22419  1.0000
  H   H42       1.0  0.49193999999999993  0.58993  0.13226  1.0000
  H   H43       1.0  0.7779000000000001  0.6311399999999999  0.08852  1.0000
  H   H44       1.0  0.5701399999999996  0.5083299999999998  0.9614300000000002  1.0000
  H   H45       1.0  0.6720099999999999  0.44194  0.8837  1.0000
  H   H46       1.0  0.9319399999999999  0.39549  0.94735  1.0000
  H   H47       1.0  0.83287  0.46464  0.02379  1.0000
  H   H48       1.0  0.7531199999999999  0.55953  0.04284000000000002  1.0000
  H   H49       1.0  0.9845599999999998  0.78447  0.27637  1.0000
  H   H50       1.0  0.71403  0.9106399999999999  0.36745  1.0000
  H   H51       1.0  0.9963800000000002  0.8697999999999999  0.41242000000000006  1.0000
  H   H52       1.0  0.5384699999999999  0.9924599999999999  0.5388200000000001  1.0000
  H   H53       1.0  0.49817999999999996  0.05796  0.6169100000000001  1.0000
  H   H54       1.0  0.7751099999999997  0.10444  0.55266  1.0000
  H   H55       1.0  0.81995  0.03595  0.47584000000000004  1.0000
  H   H56       1.0  0.8537899999999998  0.94125  0.4577  1.0000
  H   H57       1.0  0.7400399999999999  0.7162599999999999  0.27633  1.0000
  H   H58       1.0  0.9181799999999999  0.58948  0.36798000000000003  1.0000
  H   H59       1.0  0.5912  0.63079  0.41185  1.0000
  H   H60       1.0  0.9223  0.50764  0.53828  1.0000
  H   H61       1.0  0.8862099999999997  0.44148  0.61613  1.0000
  H   H62       1.0  0.6722900000000002  0.39527  0.55234  1.0000
  H   H63       1.0  0.7033099999999999  0.4642899999999999  0.4757000000000001  1.0000
  H   H64       1.0  0.68816  0.55947  0.45780000000000004  1.0000
  C   C1        1.0  0.8959299999999996  0.2133  0.8361300000000002  1.0000
  C   C2        1.0  0.8208899999999998  0.17900999999999997  0.84443  1.0000
  C   C3        1.0  0.75924  0.18635  0.8099  1.0000
  C   C4        1.0  0.6895099999999996  0.15351  0.81826  1.0000
  C   C5        1.0  0.68057  0.11322  0.86071  1.0000
  C   C6        1.0  0.74482  0.10458  0.89454  1.0000
  C   C7        1.0  0.8146499999999995  0.13756  0.88617  1.0000
  C   C8        1.0  0.6254  0.16206  0.7803700000000001  1.0000
  C   C9        1.0  0.67238  0.03291  0.95786  1.0000
  C   C10       1.0  0.69245  0.9923199999999998  0.00354  1.0000
  C   C11       1.0  0.60819  0.9847999999999999  0.04276000000000001  1.0000
  C   C12       1.0  0.6218799999999995  0.94711  0.08594000000000003  1.0000
  C   C13       1.0  0.72003  0.9148699999999999  0.08964000000000001  1.0000
  C   C14       1.0  0.8045500000000001  0.9212299999999999  0.04981  1.0000
  C   C15       1.0  0.79097  0.9604099999999999  0.00745  1.0000
  C   C16       1.0  0.7352000000000001  0.8720699999999999  0.13464  1.0000
  C   C17       1.0  0.26950999999999997  0.28551  0.83519  1.0000
  C   C18       1.0  0.33515000000000006  0.32046  0.84389  1.0000
  C   C19       1.0  0.43136  0.31339  0.80952  1.0000
  C   C20       1.0  0.4923999999999996  0.34639  0.818  1.0000
  C   C21       1.0  0.45871000000000006  0.3864499999999999  0.86065  1.0000
  C   C22       1.0  0.3605899999999999  0.39491  0.8943800000000002  1.0000
  C   C23       1.0  0.2992799999999997  0.36189  0.8856800000000002  1.0000
  C   C24       1.0  0.5939899999999997  0.3384  0.77984  1.0000
  C   C25       1.0  0.36939  0.46673  0.9578  1.0000
  C   C26       1.0  0.30402  0.50726  0.00354  1.0000
  C   C27       1.0  0.34961999999999993  0.51463  0.042630000000000015  1.0000
  C   C28       1.0  0.29331  0.55219  0.08601  1.0000
  C   C29       1.0  0.19138000000000002  0.58459  0.08997000000000002  1.0000
  C   C30       1.0  0.14622999999999997  0.57835  0.05025000000000002  1.0000
  C   C31       1.0  0.2015699999999999  0.53929  0.007740000000000002  1.0000
  C   C32       1.0  0.13150000000000003  0.6276899999999999  0.13485  1.0000
  C   C33       1.0  0.8895  0.21228999999999995  0.6639200000000001  1.0000
  C   C34       1.0  0.9990499999999999  0.1784  0.65551  1.0000
  C   C35       1.0  0.05336000000000005  0.18615999999999994  0.68993  1.0000
  C   C36       1.0  0.15598999999999996  0.15365  0.6816100000000002  1.0000
  C   C37       1.0  0.20544999999999997  0.11327  0.63924  1.0000
  C   C38       1.0  0.15007999999999996  0.10441  0.60537  1.0000
  C   C39       1.0  0.04715999999999998  0.13715  0.61366  1.0000
  C   C40       1.0  0.2117699999999999  0.16252  0.7193500000000003  1.0000
  C   C41       1.0  0.2944499999999999  0.032279999999999996  0.5426600000000001  1.0000
  C   C42       1.0  0.31527  0.9923199999999998  0.4966300000000001  1.0000
  C   C43       1.0  0.40706999999999993  0.9849599999999998  0.4574800000000001  1.0000
  C   C44       1.0  0.4311599999999998  0.94728  0.41423  1.0000
  C   C45       1.0  0.3654799999999999  0.91479  0.41053000000000006  1.0000
  C   C46       1.0  0.27444  0.92122  0.45029  1.0000
  C   C47       1.0  0.24872000000000002  0.9604399999999997  0.49264000000000013  1.0000
  C   C48       1.0  0.39325999999999994  0.8716999999999998  0.36571000000000004  1.0000
  C   C49       1.0  0.44563  0.28539  0.66387  1.0000
  C   C50       1.0  0.34463000000000005  0.32016  0.6557  1.0000
  C   C51       1.0  0.2556999999999999  0.31299  0.69027  1.0000
  C   C52       1.0  0.1616299999999999  0.34614  0.6819  1.0000
  C   C53       1.0  0.15523999999999985  0.38647  0.6394300000000003  1.0000
  C   C54       1.0  0.24474999999999994  0.39494  0.60556  1.0000
  C   C55       1.0  0.3390499999999999  0.36164999999999997  0.61397  1.0000
  C   C56       1.0  0.06756999999999987  0.33824  0.7197900000000003  1.0000
  C   C57       1.0  0.16348999999999983  0.46767999999999993  0.5429  1.0000
  C   C58       1.0  0.18873999999999982  0.50752  0.49666  1.0000
  C   C59       1.0  0.13570999999999997  0.51478  0.45762  1.0000
  C   C60       1.0  0.15434999999999996  0.55239  0.41424  1.0000
  C   C61       1.0  0.22371000000000002  0.58494  0.41029000000000004  1.0000
  C   C62       1.0  0.2753299999999999  0.57866  0.4499100000000001  1.0000
  C   C63       1.0  0.25929999999999986  0.53949  0.49237000000000003  1.0000
  C   C64       1.0  0.24024  0.6282299999999998  0.36552000000000007  1.0000
  C   C65       1.0  0.10071999999999995  0.78872  0.16375  1.0000
  C   C66       1.0  0.17720000000000008  0.8219699999999999  0.1556  1.0000
  C   C67       1.0  0.23894000000000004  0.8141499999999999  0.19019000000000003  1.0000
  C   C68       1.0  0.30975000000000014  0.8462699999999999  0.18187  1.0000
  C   C69       1.0  0.31973000000000007  0.88628  0.13924  1.0000
  C   C70       1.0  0.25541  0.89539  0.10536000000000002  1.0000
  C   C71       1.0  0.18465  0.86308  0.1137  1.0000
  C   C72       1.0  0.37321000000000004  0.8375599999999997  0.22026000000000007  1.0000
  C   C73       1.0  0.32793000000000005  0.9671999999999997  0.0424  1.0000
  C   C74       1.0  0.30761999999999995  0.007979999999999998  0.9969200000000001  1.0000
  C   C75       1.0  0.3916799999999997  0.015499999999999998  0.9575400000000001  1.0000
  C   C76       1.0  0.37750999999999996  0.052839999999999984  0.91419  1.0000
  C   C77       1.0  0.27916  0.08477  0.91052  1.0000
  C   C78       1.0  0.19490999999999997  0.07856  0.95064  1.0000
  C   C79       1.0  0.2089199999999999  0.03968  0.9931500000000001  1.0000
  C   C80       1.0  0.26392999999999994  0.12675  0.8650000000000001  1.0000
  C   C81       1.0  0.73394  0.7122899999999999  0.16475000000000004  1.0000
  C   C82       1.0  0.66666  0.6786299999999998  0.15593000000000004  1.0000
  C   C83       1.0  0.5703099999999999  0.68633  0.19028000000000003  1.0000
  C   C84       1.0  0.5082399999999998  0.65408  0.18176  1.0000
  C   C85       1.0  0.5410799999999999  0.6140699999999999  0.13913  1.0000
  C   C86       1.0  0.6393599999999998  0.60506  0.10542000000000003  1.0000
  C   C87       1.0  0.7015499999999997  0.63745  0.11404000000000002  1.0000
  C   C88       1.0  0.4066700000000001  0.6626899999999999  0.22025000000000006  1.0000
  C   C89       1.0  0.6297399999999999  0.53328  0.0423  1.0000
  C   C90       1.0  0.6953100000000001  0.4926799999999999  0.99667  1.0000
  C   C91       1.0  0.6501300000000001  0.48521  0.95746  1.0000
  C   C92       1.0  0.70687  0.44758  0.91421  1.0000
  C   C93       1.0  0.8086999999999996  0.41522  0.91052  1.0000
  C   C94       1.0  0.8535199999999995  0.42171  0.9503  1.0000
  C   C95       1.0  0.7977800000000002  0.4608599999999999  0.9927000000000001  1.0000
  C   C96       1.0  0.8686100000000001  0.3722199999999999  0.86559  1.0000
  C   C97       1.0  0.11046000000000006  0.7883699999999999  0.33633  1.0000
  C   C98       1.0  0.0008299999999999235  0.82214  0.34476000000000007  1.0000
  C   C99       1.0  0.9468599999999997  0.8144199999999998  0.31016000000000005  1.0000
  C   C100      1.0  0.8440999999999996  0.8466299999999998  0.31831  1.0000
  C   C101      1.0  0.7940599999999998  0.88655  0.3609300000000001  1.0000
  C   C102      1.0  0.8491799999999999  0.8956499999999998  0.3948600000000001  1.0000
  C   C103      1.0  0.9523500000000001  0.8633799999999998  0.38662  1.0000
  C   C104      1.0  0.78946  0.8381  0.27986  1.0000
  C   C105      1.0  0.7040499999999998  0.96789  0.45740000000000003  1.0000
  C   C106      1.0  0.68341  0.00801  0.50331  1.0000
  C   C107      1.0  0.59187  0.015289999999999996  0.5426800000000002  1.0000
  C   C108      1.0  0.5688199999999997  0.05241  0.5861700000000001  1.0000
  C   C109      1.0  0.6352499999999998  0.08436  0.58981  1.0000
  C   C110      1.0  0.72567  0.07829  0.54975  1.0000
  C   C111      1.0  0.75047  0.03959  0.50717  1.0000
  C   C112      1.0  0.60886  0.12666  0.635  1.0000
  C   C113      1.0  0.55382  0.7121899999999999  0.33625  1.0000
  C   C114      1.0  0.655  0.6784099999999998  0.3445800000000001  1.0000
  C   C115      1.0  0.7435299999999996  0.68624  0.31015000000000004  1.0000
  C   C116      1.0  0.83794  0.6540499999999999  0.31859000000000004  1.0000
  C   C117      1.0  0.8450699999999999  0.6137899999999998  0.36105  1.0000
  C   C118      1.0  0.7559500000000001  0.6046399999999998  0.39476  1.0000
  C   C119      1.0  0.6613099999999998  0.63705  0.38635  1.0000
  C   C120      1.0  0.93088  0.6631  0.28043000000000007  1.0000
  C   C121      1.0  0.8382699999999996  0.5319399999999999  0.4570500000000001  1.0000
  C   C122      1.0  0.81271  0.49202  0.50304  1.0000
  C   C123      1.0  0.86523  0.48463999999999996  0.54227  1.0000
  C   C124      1.0  0.8457299999999994  0.44714  0.58558  1.0000
  C   C125      1.0  0.77593  0.4149799999999999  0.58918  1.0000
  C   C126      1.0  0.7246500000000005  0.4214399999999999  0.54939  1.0000
  C   C127      1.0  0.7417099999999999  0.46046999999999993  0.50698  1.0000
  C   C128      1.0  0.7581900000000001  0.3721099999999999  0.63403  1.0000
  N   N1        1.0  0.74366  0.06324  0.93681  1.0000
  N   N2        1.0  0.31935000000000024  0.4361799999999999  0.9368  1.0000
  N   N3        1.0  0.19298999999999997  0.06323  0.56301  1.0000
  N   N4        1.0  0.24454000000000015  0.4362999999999999  0.56324  1.0000
  N   N5        1.0  0.25677000000000016  0.9367799999999997  0.06317  1.0000
  N   N6        1.0  0.6801000000000001  0.56368  0.06318  1.0000
  N   N7        1.0  0.8056399999999995  0.93694  0.4371400000000001  1.0000
  N   N8        1.0  0.75697  0.5633099999999999  0.437  1.0000
  O   O1        1.0  0.9590599999999999  0.19972  0.8645700000000001  1.0000
  O   O2        1.0  0.8979099999999998  0.25422999999999996  0.80001  1.0000
  O   O3        1.0  0.6537199999999999  0.18736  0.7364100000000001  1.0000
  O   O4        1.0  0.5455200000000001  0.14495  0.79324  1.0000
  O   O5        1.0  0.5976699999999998  0.03916  0.94074  1.0000
  O   O6        1.0  0.66223  0.88005  0.17719000000000001  1.0000
  O   O7        1.0  0.8195099999999997  0.8305899999999999  0.12737  1.0000
  O   O8        1.0  0.17675999999999997  0.29992  0.8620300000000001  1.0000
  O   O9        1.0  0.30660999999999977  0.24341  0.8001900000000002  1.0000
  O   O10       1.0  0.60879  0.3144  0.73535  1.0000
  O   O11       1.0  0.6616499999999998  0.35480999999999996  0.79283  1.0000
  O   O12       1.0  0.46110999999999996  0.46073  0.9406  1.0000
  O   O13       1.0  0.16191  0.62012  0.17740000000000003  1.0000
  O   O14       1.0  0.05458999999999998  0.66922  0.12738000000000002  1.0000
  O   O15       1.0  0.8390399999999997  0.19736  0.6367800000000001  1.0000
  O   O16       1.0  0.8474300000000002  0.25440999999999997  0.69899  1.0000
  O   O17       1.0  0.15869999999999995  0.18817999999999993  0.7633100000000002  1.0000
  O   O18       1.0  0.30882999999999994  0.14503999999999997  0.70625  1.0000
  O   O19       1.0  0.36265  0.03722  0.56074  1.0000
  O   O20       1.0  0.4568300000000002  0.8801299999999999  0.3227  1.0000
  O   O21       1.0  0.35200999999999977  0.82938  0.37366000000000005  1.0000
  O   O22       1.0  0.5234499999999999  0.30012  0.63675  1.0000
  O   O23       1.0  0.4521299999999999  0.24305999999999994  0.6986800000000001  1.0000
  O   O24       1.0  0.07549999999999989  0.31455  0.7645200000000002  1.0000
  O   O25       1.0  0.9840999999999999  0.35453999999999997  0.70613  1.0000
  O   O26       1.0  0.0770600000000001  0.46304  0.561  1.0000
  O   O27       1.0  0.21930000000000002  0.62006  0.32253  1.0000
  O   O28       1.0  0.2735100000000001  0.6705499999999999  0.37359  1.0000
  O   O29       1.0  0.03764000000000006  0.8028599999999999  0.13534  1.0000
  O   O30       1.0  0.09752000000000004  0.74772  0.1999  1.0000
  O   O31       1.0  0.3430699999999999  0.8131599999999999  0.26447  1.0000
  O   O32       1.0  0.45372000000000007  0.85414  0.20753  1.0000
  O   O33       1.0  0.40273999999999993  0.9607699999999998  0.059480000000000005  1.0000
  O   O34       1.0  0.3367999999999999  0.11748999999999998  0.8223600000000002  1.0000
  O   O35       1.0  0.18003000000000002  0.16861  0.87193  1.0000
  O   O36       1.0  0.8264  0.6974  0.13775  1.0000
  O   O37       1.0  0.6987499999999998  0.7542  0.20004000000000005  1.0000
  O   O38       1.0  0.3934800000000001  0.6856699999999998  0.26497  1.0000
  O   O39       1.0  0.33774  0.64772  0.20711  1.0000
  O   O40       1.0  0.53794  0.5394999999999999  0.05947  1.0000
  O   O41       1.0  0.83841  0.38022999999999996  0.82297  1.0000
  O   O42       1.0  0.9452599999999999  0.3304099999999999  0.8729300000000001  1.0000
  O   O43       1.0  0.1609400000000001  0.8029299999999998  0.36358  1.0000
  O   O44       1.0  0.15278000000000003  0.7463499999999998  0.30112  1.0000
  O   O45       1.0  0.84396  0.81421  0.23553000000000004  1.0000
  O   O46       1.0  0.69237  0.85423  0.29271  1.0000
  O   O47       1.0  0.6356899999999998  0.9626999999999999  0.43957  1.0000
  O   O48       1.0  0.54646  0.11728  0.67813  1.0000
  O   O49       1.0  0.6499200000000002  0.16898  0.62736  1.0000
  O   O50       1.0  0.4764999999999999  0.69721  0.36358  1.0000
  O   O51       1.0  0.54649  0.7542799999999998  0.30112  1.0000
  O   O52       1.0  0.92104  0.68612  0.23573000000000005  1.0000
  O   O53       1.0  0.014469999999999988  0.64852  0.29377  1.0000
  O   O54       1.0  0.9246899999999998  0.5366499999999998  0.43898000000000004  1.0000
  O   O55       1.0  0.7803899999999997  0.38004  0.67672  1.0000
  O   O56       1.0  0.7225499999999999  0.3307  0.62649  1.0000
