data_image0
_chemical_formula_structural       Cu8H144C120N80
_chemical_formula_sum              "Cu8 H144 C120 N80"
_cell_length_a       10.69361
_cell_length_b       20.998709999999996
_cell_length_c       22.072760000000002
_cell_angle_alpha    111.40738
_cell_angle_beta     90.00363
_cell_angle_gamma    89.98135

_symmetry_space_group_name_H-M    'P 1'
_symmetry_Int_Tables_number       1

loop_
  _symmetry_equiv_pos_as_xyz
  'x,y,z'

loop_
  _atom_site_type_symbol
  _atom_site_label
  _atom_site_symmetry_multiplicity
  _atom_site_fract_x
  _atom_site_fract_y
  _atom_site_fract_z
  _atom_site_occupancy
  Cu  Cu1       1.0  0.35071  0.44264999999999993  0.7249299999999999  1.0000
  Cu  Cu2       1.0  0.32124  0.62686  0.7823599999999999  1.0000
  Cu  Cu3       1.0  0.85148  0.05742  0.27525  1.0000
  Cu  Cu4       1.0  0.82248  0.87344  0.21708  1.0000
  Cu  Cu5       1.0  0.6492  0.55742  0.27412  1.0000
  Cu  Cu6       1.0  0.67879  0.37299  0.21741  1.0000
  Cu  Cu7       1.0  0.14835  0.9426699999999999  0.72554  1.0000
  Cu  Cu8       1.0  0.17769  0.12689999999999996  0.7830499999999999  1.0000
  H   H1        1.0  0.56692  0.44340999999999986  0.8264499999999999  1.0000
  H   H2        1.0  0.53222  0.65896  0.8862999999999999  1.0000
  H   H3        1.0  0.80606  0.49624  0.82202  1.0000
  H   H4        1.0  0.8051999999999999  0.58405  0.83252  1.0000
  H   H5        1.0  0.9480800000000001  0.6671799999999999  0.91519  1.0000
  H   H6        1.0  0.047290000000000006  0.6390499999999999  0.96501  1.0000
  H   H7        1.0  0.64833  0.64343  0.99665  1.0000
  H   H8        1.0  0.70706  0.6716399999999999  0.93519  1.0000
  H   H9        1.0  0.65239  0.52004  0.98211  1.0000
  H   H10       1.0  0.7233000000000002  0.45888  0.91199  1.0000
  H   H11       1.0  0.9380000000000001  0.45530999999999994  0.89634  1.0000
  H   H12       1.0  0.04049  0.51366  0.95465  1.0000
  H   H13       1.0  0.9543400000000001  0.59915  0.049499999999999995  1.0000
  H   H14       1.0  0.78857  0.6024299999999999  0.06305  1.0000
  H   H15       1.0  0.04644  0.6351  0.82313  1.0000
  H   H16       1.0  0.11629000000000002  0.4404299999999999  0.8323899999999999  1.0000
  H   H17       1.0  0.83774  0.70982  0.13544  1.0000
  H   H18       1.0  0.84925  0.77596  0.97509  1.0000
  H   H19       1.0  0.24316  0.36277999999999994  0.58027  1.0000
  H   H20       1.0  0.31965  0.53892  0.53576  1.0000
  H   H21       1.0  0.18493  0.30612999999999996  0.47756  1.0000
  H   H22       1.0  0.05367  0.36214  0.49125  1.0000
  H   H23       1.0  0.17913  0.2534  0.29545  1.0000
  H   H24       1.0  0.25584  0.23963999999999994  0.36084  1.0000
  H   H25       1.0  0.40426999999999996  0.41661999999999993  0.42715999999999993  1.0000
  H   H26       1.0  0.39159  0.33807  0.44014  1.0000
  H   H27       1.0  0.07192  0.4721999999999998  0.46941999999999995  1.0000
  H   H28       1.0  0.21635000000000001  0.49449999999999983  0.44125999999999993  1.0000
  H   H29       1.0  0.99578  0.3362299999999999  0.31741  1.0000
  H   H30       1.0  0.94862  0.38142999999999994  0.39876  1.0000
  H   H31       1.0  0.28493  0.4329099999999999  0.33135  1.0000
  H   H32       1.0  0.19427000000000003  0.36401  0.27937  1.0000
  H   H33       1.0  0.8753300000000002  0.23396  0.30649  1.0000
  H   H34       1.0  0.11877  0.20705  0.4483  1.0000
  H   H35       1.0  0.50929  0.4123  0.32927999999999996  1.0000
  H   H36       1.0  0.40214  0.20293  0.26811  1.0000
  H   H37       1.0  0.0659  0.05655  0.17313  1.0000
  H   H38       1.0  0.0316  0.84109  0.11362999999999998  1.0000
  H   H39       1.0  0.30543  0.004029999999999996  0.17816999999999997  1.0000
  H   H40       1.0  0.30495  0.91604  0.16742  1.0000
  H   H41       1.0  0.44737  0.83336  0.08532999999999999  1.0000
  H   H42       1.0  0.54714  0.86126  0.03559  1.0000
  H   H43       1.0  0.14843  0.8568899999999999  0.00335  1.0000
  H   H44       1.0  0.20654  0.8285399999999999  0.06475  1.0000
  H   H45       1.0  0.15207  0.9802199999999998  0.01793  1.0000
  H   H46       1.0  0.22286  0.04146  0.08797  1.0000
  H   H47       1.0  0.43739999999999996  0.04512  0.10371  1.0000
  H   H48       1.0  0.54009  0.98672  0.04558  1.0000
  H   H49       1.0  0.45474  0.90107  0.95092  1.0000
  H   H50       1.0  0.28932  0.89754  0.93693  1.0000
  H   H51       1.0  0.5463  0.8648699999999999  0.17658  1.0000
  H   H52       1.0  0.6169  0.060129999999999996  0.16812  1.0000
  H   H53       1.0  0.338  0.79037  0.86465  1.0000
  H   H54       1.0  0.34853  0.72385  0.02512  1.0000
  H   H55       1.0  0.74372  0.1374  0.42001  1.0000
  H   H56       1.0  0.8182500000000001  0.96068  0.46399999999999997  1.0000
  H   H57       1.0  0.68434  0.19371999999999998  0.52222  1.0000
  H   H58       1.0  0.55341  0.13767  0.50888  1.0000
  H   H59       1.0  0.67904  0.24655  0.70457  1.0000
  H   H60       1.0  0.75592  0.26014  0.63913  1.0000
  H   H61       1.0  0.90389  0.08317  0.57303  1.0000
  H   H62       1.0  0.89148  0.16178  0.56004  1.0000
  H   H63       1.0  0.57166  0.027929999999999983  0.53055  1.0000
  H   H64       1.0  0.71575  0.0053699999999999425  0.5587699999999999  1.0000
  H   H65       1.0  0.49561  0.16384  0.68261  1.0000
  H   H66       1.0  0.44849999999999995  0.11875999999999999  0.60117  1.0000
  H   H67       1.0  0.78469  0.06691  0.66852  1.0000
  H   H68       1.0  0.69423  0.1358199999999999  0.7207099999999999  1.0000
  H   H69       1.0  0.37617  0.26632  0.69394  1.0000
  H   H70       1.0  0.61771  0.29281  0.55124  1.0000
  H   H71       1.0  0.00894  0.08747999999999999  0.67034  1.0000
  H   H72       1.0  0.90191  0.29679  0.73168  1.0000
  H   H73       1.0  0.43257000000000007  0.5566  0.17403  1.0000
  H   H74       1.0  0.46771000000000007  0.34101999999999993  0.11331  1.0000
  H   H75       1.0  0.19407  0.50375  0.17805  1.0000
  H   H76       1.0  0.19486  0.4159  0.16745  1.0000
  H   H77       1.0  0.05174  0.3328999999999999  0.08491  1.0000
  H   H78       1.0  0.9525800000000001  0.36106  0.03514  1.0000
  H   H79       1.0  0.35144  0.35661  0.00336  1.0000
  H   H80       1.0  0.29292  0.32841  0.06482  1.0000
  H   H81       1.0  0.34742  0.48003  0.01792  1.0000
  H   H82       1.0  0.27658  0.54119  0.08808  1.0000
  H   H83       1.0  0.06208  0.5447799999999999  0.10378  1.0000
  H   H84       1.0  0.9594100000000001  0.4864299999999999  0.04551  1.0000
  H   H85       1.0  0.04547  0.40085  0.9506  1.0000
  H   H86       1.0  0.21128000000000002  0.3975899999999999  0.9370599999999999  1.0000
  H   H87       1.0  0.95351  0.36496  0.17684  1.0000
  H   H88       1.0  0.88377  0.55963  0.16775  1.0000
  H   H89       1.0  0.16238  0.2902299999999999  0.8646099999999999  1.0000
  H   H90       1.0  0.15044  0.22394  0.024909999999999998  1.0000
  H   H91       1.0  0.75645  0.63763  0.42019  1.0000
  H   H92       1.0  0.6808  0.4610399999999999  0.4641  1.0000
  H   H93       1.0  0.81535  0.6939300000000002  0.52267  1.0000
  H   H94       1.0  0.94665  0.6379199999999999  0.50889  1.0000
  H   H95       1.0  0.82119  0.7466  0.70464  1.0000
  H   H96       1.0  0.74431  0.76027  0.63919  1.0000
  H   H97       1.0  0.59607  0.58338  0.57295  1.0000
  H   H98       1.0  0.60877  0.6619499999999999  0.5600099999999999  1.0000
  H   H99       1.0  0.92841  0.52778  0.53073  1.0000
  H   H100      1.0  0.7839600000000001  0.50551  0.55887  1.0000
  H   H101      1.0  0.00448  0.66376  0.68274  1.0000
  H   H102      1.0  0.05158  0.6185299999999999  0.60133  1.0000
  H   H103      1.0  0.71539  0.5671  0.66881  1.0000
  H   H104      1.0  0.8060200000000001  0.63604  0.72075  1.0000
  H   H105      1.0  0.12448  0.7661  0.6939299999999999  1.0000
  H   H106      1.0  0.88223  0.79316  0.55196  1.0000
  H   H107      1.0  0.49116  0.5876699999999999  0.6706799999999999  1.0000
  H   H108      1.0  0.59766  0.79707  0.73176  1.0000
  H   H109      1.0  0.9331300000000001  0.94349  0.82629  1.0000
  H   H110      1.0  0.96826  0.15906  0.8867599999999999  1.0000
  H   H111      1.0  0.69446  0.99603  0.82177  1.0000
  H   H112      1.0  0.69494  0.08407  0.83257  1.0000
  H   H113      1.0  0.55247  0.16671999999999995  0.91461  1.0000
  H   H114      1.0  0.45269000000000004  0.13880999999999996  0.9643699999999998  1.0000
  H   H115      1.0  0.8514400000000001  0.14316999999999994  0.99665  1.0000
  H   H116      1.0  0.79337  0.17152  0.93524  1.0000
  H   H117      1.0  0.8477300000000001  0.01986  0.98204  1.0000
  H   H118      1.0  0.77704  0.95859  0.9119799999999999  1.0000
  H   H119      1.0  0.56251  0.9549399999999999  0.89619  1.0000
  H   H120      1.0  0.45974000000000004  0.013339999999999984  0.95433  1.0000
  H   H121      1.0  0.54506  0.09902  0.04902  1.0000
  H   H122      1.0  0.71053  0.10254  0.06302  1.0000
  H   H123      1.0  0.45352  0.13518999999999998  0.8233999999999999  1.0000
  H   H124      1.0  0.38321  0.9400099999999998  0.83186  1.0000
  H   H125      1.0  0.66221  0.20976999999999998  0.13533  1.0000
  H   H126      1.0  0.65098  0.27626  0.97486  1.0000
  H   H127      1.0  0.25567  0.86233  0.57961  1.0000
  H   H128      1.0  0.18228  0.03939999999999996  0.53608  1.0000
  H   H129      1.0  0.31582  0.80621  0.47756999999999994  1.0000
  H   H130      1.0  0.44679  0.86225  0.49105999999999994  1.0000
  H   H131      1.0  0.32106  0.75342  0.29534  1.0000
  H   H132      1.0  0.24406  0.7400199999999999  0.36087  1.0000
  H   H133      1.0  0.09634  0.91686  0.4268799999999999  1.0000
  H   H134      1.0  0.10877  0.83826  0.43984  1.0000
  H   H135      1.0  0.4286  0.9721099999999998  0.46932  1.0000
  H   H136      1.0  0.28447  0.9946999999999999  0.4411399999999999  1.0000
  H   H137      1.0  0.50469  0.8362199999999999  0.31733  1.0000
  H   H138      1.0  0.55172  0.88128  0.39873  1.0000
  H   H139      1.0  0.21557000000000004  0.9330999999999998  0.33133  1.0000
  H   H140      1.0  0.30597  0.8641699999999999  0.2792  1.0000
  H   H141      1.0  0.62371  0.7336099999999998  0.30548  1.0000
  H   H142      1.0  0.3831300000000001  0.70689  0.44849  1.0000
  H   H143      1.0  0.99174  0.91273  0.32974  1.0000
  H   H144      1.0  0.09769  0.70326  0.26853  1.0000
  C   C1        1.0  0.5503  0.49437999999999993  0.82707  1.0000
  C   C2        1.0  0.54572  0.6064099999999999  0.85455  1.0000
  C   C3        1.0  0.71021  0.5618199999999999  0.9091199999999999  1.0000
  C   C4        1.0  0.8157599999999999  0.5483299999999999  0.85826  1.0000
  C   C5        1.0  0.9436  0.55702  0.89174  1.0000
  C   C6        1.0  0.9554400000000001  0.63142  0.9410299999999999  1.0000
  C   C7        1.0  0.8498200000000001  0.64574  0.99189  1.0000
  C   C8        1.0  0.72105  0.63462  0.95909  1.0000
  C   C9        1.0  0.7266  0.51249  0.94565  1.0000
  C   C10       1.0  0.95008  0.50866  0.92957  1.0000
  C   C11       1.0  0.86215  0.5939999999999999  0.02603  1.0000
  C   C12       1.0  0.08623  0.58555  0.81441  1.0000
  C   C13       1.0  0.12317  0.48527  0.81958  1.0000
  C   C14       1.0  0.8239100000000001  0.7388799999999999  0.10440999999999999  1.0000
  C   C15       1.0  0.83209  0.77433  0.02272  1.0000
  C   C16       1.0  0.26885  0.41361  0.58398  1.0000
  C   C17       1.0  0.31011  0.50393  0.56124  1.0000
  C   C18       1.0  0.22483000000000003  0.40218  0.46579  1.0000
  C   C19       1.0  0.13678  0.34283  0.46068  1.0000
  C   C20       1.0  0.09529  0.30644  0.38949  1.0000
  C   C21       1.0  0.21153  0.27883  0.3459  1.0000
  C   C22       1.0  0.29999  0.33787999999999996  0.35165  1.0000
  C   C23       1.0  0.34097  0.3740399999999999  0.42314  1.0000
  C   C24       1.0  0.15542  0.45161  0.43941  1.0000
  C   C25       1.0  0.029860000000000005  0.35969  0.36763  1.0000
  C   C26       1.0  0.22598  0.38956999999999997  0.32987  1.0000
  C   C27       1.0  0.94231  0.21105  0.32939  1.0000
  C   C28       1.0  0.06024  0.19707999999999995  0.4058899999999999  1.0000
  C   C29       1.0  0.5062  0.35680999999999996  0.30574  1.0000
  C   C30       1.0  0.45293000000000005  0.24929999999999997  0.27359  1.0000
  C   C31       1.0  0.050010000000000006  0.005690000000000002  0.17296  1.0000
  C   C32       1.0  0.04586  0.89357  0.14547  1.0000
  C   C33       1.0  0.20984  0.93845  0.09098  1.0000
  C   C34       1.0  0.31534  0.9519799999999998  0.14188  1.0000
  C   C35       1.0  0.44314  0.9434199999999999  0.10840999999999999  1.0000
  C   C36       1.0  0.45511000000000007  0.86899  0.05938  1.0000
  C   C37       1.0  0.34986  0.8546299999999999  0.00844  1.0000
  C   C38       1.0  0.22089  0.86568  0.041  1.0000
  C   C39       1.0  0.22619  0.98779  0.054419999999999996  1.0000
  C   C40       1.0  0.44956000000000007  0.9917499999999999  0.07055  1.0000
  C   C41       1.0  0.36236  0.90627  0.97422  1.0000
  C   C42       1.0  0.58582  0.91461  0.18547  1.0000
  C   C43       1.0  0.62351  0.014870000000000003  0.18037  1.0000
  C   C44       1.0  0.32367  0.7617299999999999  0.89598  1.0000
  C   C45       1.0  0.33239  0.7260299999999998  0.9775899999999997  1.0000
  C   C46       1.0  0.7689800000000001  0.08641  0.41616  1.0000
  C   C47       1.0  0.80922  0.99587  0.43867  1.0000
  C   C48       1.0  0.72485  0.09776999999999998  0.5342799999999999  1.0000
  C   C49       1.0  0.63667  0.15705000000000002  0.5393  1.0000
  C   C50       1.0  0.59537  0.19351  0.61051  1.0000
  C   C51       1.0  0.71149  0.22106  0.65413  1.0000
  C   C52       1.0  0.7998  0.16200999999999993  0.64842  1.0000
  C   C53       1.0  0.8407900000000001  0.12582999999999994  0.57701  1.0000
  C   C54       1.0  0.65516  0.04838  0.5606  1.0000
  C   C55       1.0  0.52971  0.14036  0.63239  1.0000
  C   C56       1.0  0.72578  0.11033999999999994  0.67017  1.0000
  C   C57       1.0  0.44327  0.28904  0.67101  1.0000
  C   C58       1.0  0.5599  0.30284  0.59392  1.0000
  C   C59       1.0  0.00587  0.14293999999999998  0.6941  1.0000
  C   C60       1.0  0.95276  0.25046  0.7264  1.0000
  C   C61       1.0  0.44917  0.50556  0.17317  1.0000
  C   C62       1.0  0.4546700000000001  0.39354999999999996  0.14511  1.0000
  C   C63       1.0  0.28965  0.4382  0.09085  1.0000
  C   C64       1.0  0.18426  0.4516899999999999  0.14178  1.0000
  C   C65       1.0  0.05637000000000001  0.4430599999999999  0.10836999999999998  1.0000
  C   C66       1.0  0.04443  0.36868  0.05911  1.0000
  C   C67       1.0  0.14996  0.3543  0.00821  1.0000
  C   C68       1.0  0.27875  0.36542  0.040929999999999994  1.0000
  C   C69       1.0  0.27325  0.48758  0.05438  1.0000
  C   C70       1.0  0.049870000000000005  0.49143  0.07054  1.0000
  C   C71       1.0  0.13766  0.40604  0.97407  1.0000
  C   C72       1.0  0.91389  0.41456  0.18577  1.0000
  C   C73       1.0  0.8767800000000001  0.51477  0.18051  1.0000
  C   C74       1.0  0.1766  0.26133999999999996  0.8957499999999999  1.0000
  C   C75       1.0  0.16795  0.22574  0.97741  1.0000
  C   C76       1.0  0.73101  0.58671  0.41632  1.0000
  C   C77       1.0  0.68985  0.4962599999999999  0.43886  1.0000
  C   C78       1.0  0.77551  0.5978499999999998  0.53436  1.0000
  C   C79       1.0  0.86357  0.6572  0.53947  1.0000
  C   C80       1.0  0.90503  0.6935799999999999  0.6106499999999999  1.0000
  C   C81       1.0  0.78877  0.72117  0.6542  1.0000
  C   C82       1.0  0.70036  0.6620999999999999  0.64848  1.0000
  C   C83       1.0  0.65938  0.62598  0.57702  1.0000
  C   C84       1.0  0.84488  0.54839  0.5607  1.0000
  C   C85       1.0  0.9704200000000001  0.64032  0.63251  1.0000
  C   C86       1.0  0.77437  0.61042  0.67025  1.0000
  C   C87       1.0  0.05706  0.78902  0.67133  1.0000
  C   C88       1.0  0.94027  0.80311  0.59451  1.0000
  C   C89       1.0  0.49413000000000007  0.64315  0.69426  1.0000
  C   C90       1.0  0.54716  0.75065  0.72646  1.0000
  C   C91       1.0  0.94948  0.99444  0.82687  1.0000
  C   C92       1.0  0.9544700000000002  0.10659  0.85486  1.0000
  C   C93       1.0  0.78999  0.06163999999999996  0.9090399999999998  1.0000
  C   C94       1.0  0.68458  0.04808999999999997  0.85806  1.0000
  C   C95       1.0  0.55672  0.05663999999999994  0.8914899999999999  1.0000
  C   C96       1.0  0.54468  0.13106000000000004  0.94053  1.0000
  C   C97       1.0  0.64994  0.14543999999999999  0.99151  1.0000
  C   C98       1.0  0.77893  0.13439999999999994  0.959  1.0000
  C   C99       1.0  0.77361  0.012259999999999967  0.9455499999999999  1.0000
  C   C100      1.0  0.55027  0.008309999999999955  0.9293599999999999  1.0000
  C   C101      1.0  0.63745  0.0938  0.02573  1.0000
  C   C102      1.0  0.41406  0.08549999999999996  0.8144299999999999  1.0000
  C   C103      1.0  0.37656000000000006  0.9851099999999999  0.81947  1.0000
  C   C104      1.0  0.67679  0.23828  0.1039  1.0000
  C   C105      1.0  0.66762  0.27402  0.02229  1.0000
  C   C106      1.0  0.23070000000000002  0.91339  0.5836  1.0000
  C   C107      1.0  0.19079  0.00406000000000003  0.56126  1.0000
  C   C108      1.0  0.27546  0.9022499999999999  0.4656  1.0000
  C   C109      1.0  0.36358  0.84292  0.46059  1.0000
  C   C110      1.0  0.4048900000000001  0.80649  0.38938  1.0000
  C   C111      1.0  0.28867  0.77898  0.34578  1.0000
  C   C112      1.0  0.20036  0.83804  0.3514399999999999  1.0000
  C   C113      1.0  0.15946  0.8742  0.42286999999999997  1.0000
  C   C114      1.0  0.34508  0.95167  0.43928999999999996  1.0000
  C   C115      1.0  0.47050000000000003  0.85967  0.36753  1.0000
  C   C116      1.0  0.27445  0.88969  0.32974  1.0000
  C   C117      1.0  0.55609  0.71096  0.32824  1.0000
  C   C118      1.0  0.44050000000000006  0.6969799999999999  0.40566  1.0000
  C   C119      1.0  0.9943  0.85723  0.30585  1.0000
  C   C120      1.0  0.04712  0.74963  0.27354  1.0000
  N   N1        1.0  0.48536  0.5078799999999999  0.78193  1.0000
  N   N2        1.0  0.47885  0.5776  0.79918  1.0000
  N   N3        1.0  0.58606  0.55483  0.87778  1.0000
  N   N4        1.0  0.20508  0.4942  0.77793  1.0000
  N   N5        1.0  0.18405  0.55891  0.77589  1.0000
  N   N6        1.0  0.04624000000000001  0.5418999999999999  0.8440099999999999  1.0000
  N   N7        1.0  0.78499  0.8040299999999999  0.12529  1.0000
  N   N8        1.0  0.78979  0.82622  0.07334  1.0000
  N   N9        1.0  0.85662  0.7171699999999999  0.03889  1.0000
  N   N10       1.0  0.84959  0.5238899999999999  0.97812  1.0000
  N   N11       1.0  0.31229000000000007  0.46155  0.63745  1.0000
  N   N12       1.0  0.33865  0.51865  0.62319  1.0000
  N   N13       1.0  0.26316  0.43832999999999994  0.53409  1.0000
  N   N14       1.0  0.94194  0.14401  0.32275  1.0000
  N   N15       1.0  0.01827  0.13592  0.36946  1.0000
  N   N16       1.0  0.01022  0.24979999999999994  0.38693  1.0000
  N   N17       1.0  0.59521  0.32049  0.26645  1.0000
  N   N18       1.0  0.56214  0.25157  0.24607  1.0000
  N   N19       1.0  0.41324  0.31446  0.31117  1.0000
  N   N20       1.0  0.11647  0.41570999999999997  0.37178  1.0000
  N   N21       1.0  0.9849500000000001  0.99215  0.218  1.0000
  N   N22       1.0  0.97901  0.92247  0.20091  1.0000
  N   N23       1.0  0.0858  0.9452499999999999  0.12226  1.0000
  N   N24       1.0  0.70523  0.00565  0.22191  1.0000
  N   N25       1.0  0.68357  0.9410599999999998  0.22401  1.0000
  N   N26       1.0  0.54603  0.9584199999999999  0.15597  1.0000
  N   N27       1.0  0.28422  0.69664  0.87511  1.0000
  N   N28       1.0  0.28939  0.67438  0.9269599999999999  1.0000
  N   N29       1.0  0.35728  0.7832699999999999  0.9614699999999999  1.0000
  N   N30       1.0  0.34923000000000004  0.97643  0.021939999999999998  1.0000
  N   N31       1.0  0.8123100000000001  0.03850999999999999  0.36266999999999994  1.0000
  N   N32       1.0  0.83783  0.9811799999999999  0.37675999999999993  1.0000
  N   N33       1.0  0.76358  0.06172000000000001  0.46606  1.0000
  N   N34       1.0  0.44208  0.35606999999999994  0.67735  1.0000
  N   N35       1.0  0.51815  0.36404999999999993  0.63052  1.0000
  N   N36       1.0  0.51039  0.25017  0.61313  1.0000
  N   N37       1.0  0.09499000000000002  0.17911  0.73333  1.0000
  N   N38       1.0  0.06198000000000001  0.24805  0.75384  1.0000
  N   N39       1.0  0.91307  0.18537999999999996  0.6887599999999999  1.0000
  N   N40       1.0  0.61622  0.08428999999999999  0.62825  1.0000
  N   N41       1.0  0.51416  0.49187  0.21821999999999997  1.0000
  N   N42       1.0  0.52108  0.42212999999999995  0.20058  1.0000
  N   N43       1.0  0.41386  0.44521999999999995  0.12221  1.0000
  N   N44       1.0  0.7948600000000001  0.50587  0.22216  1.0000
  N   N45       1.0  0.81591  0.44113  0.22424999999999998  1.0000
  N   N46       1.0  0.9538000000000001  0.45823  0.15615999999999997  1.0000
  N   N47       1.0  0.21579000000000004  0.19620999999999988  0.8748999999999999  1.0000
  N   N48       1.0  0.21089  0.17395999999999995  0.92678  1.0000
  N   N49       1.0  0.14272  0.28289999999999993  0.9611799999999999  1.0000
  N   N50       1.0  0.15024  0.47618999999999995  0.02193  1.0000
  N   N51       1.0  0.68673  0.5390699999999999  0.36291  1.0000
  N   N52       1.0  0.66035  0.48188  0.37707  1.0000
  N   N53       1.0  0.73719  0.56176  0.46605  1.0000
  N   N54       1.0  0.056220000000000006  0.8563399999999999  0.6786699999999999  1.0000
  N   N55       1.0  0.9803900000000001  0.8644199999999999  0.6317499999999999  1.0000
  N   N56       1.0  0.9902400000000001  0.75034  0.61335  1.0000
  N   N57       1.0  0.4048  0.6793899999999999  0.73332  1.0000
  N   N58       1.0  0.43769  0.74833  0.75373  1.0000
  N   N59       1.0  0.58727  0.6854900000000002  0.68908  1.0000
  N   N60       1.0  0.8838300000000001  0.58429  0.62834  1.0000
  N   N61       1.0  0.01469  0.00817000000000001  0.78191  1.0000
  N   N62       1.0  0.02098  0.07788999999999995  0.7993499999999999  1.0000
  N   N63       1.0  0.9141200000000002  0.054810000000000005  0.87779  1.0000
  N   N64       1.0  0.29468  0.99431  0.77791  1.0000
  N   N65       1.0  0.31622  0.05899999999999999  0.77583  1.0000
  N   N66       1.0  0.4539  0.04158999999999994  0.8438299999999999  1.0000
  N   N67       1.0  0.71653  0.3033199999999999  0.12470999999999999  1.0000
  N   N68       1.0  0.7113  0.32558999999999994  0.07288  1.0000
  N   N69       1.0  0.64224  0.21681  0.0385  1.0000
  N   N70       1.0  0.65056  0.023600000000000013  0.97802  1.0000
  N   N71       1.0  0.1867  0.96108  0.63706  1.0000
  N   N72       1.0  0.16129  0.01848999999999998  0.62303  1.0000
  N   N73       1.0  0.23684  0.93832  0.53387  1.0000
  N   N74       1.0  0.55587  0.64366  0.32115  1.0000
  N   N75       1.0  0.48031000000000007  0.63563  0.36816  1.0000
  N   N76       1.0  0.49012  0.74974  0.3866  1.0000
  N   N77       1.0  0.9048200000000001  0.8211299999999999  0.2669  1.0000
  N   N78       1.0  0.9375500000000001  0.75213  0.24641  1.0000
  N   N79       1.0  0.0872  0.81475  0.31099  1.0000
  N   N80       1.0  0.38399  0.9157299999999999  0.3716499999999999  1.0000
