data_image0
_chemical_formula_structural       Zn12H56C104N16O48
_chemical_formula_sum              "Zn12 H56 C104 N16 O48"
_cell_length_a       15.33853
_cell_length_b       15.338560000000001
_cell_length_c       22.8861
_cell_angle_alpha    90.0
_cell_angle_beta     90.0
_cell_angle_gamma    90.10229

_space_group_name_H-M_alt    "P 1"
_space_group_IT_number       1

loop_
  _space_group_symop_operation_xyz
  'x, y, z'

loop_
  _atom_site_type_symbol
  _atom_site_label
  _atom_site_symmetry_multiplicity
  _atom_site_fract_x
  _atom_site_fract_y
  _atom_site_fract_z
  _atom_site_occupancy
  Zn  Zn1       1.0  0.7581199999999998  0.66846  0.8562300000000002  1.0000
  Zn  Zn2       1.0  0.24188  0.33154  0.35623000000000005  1.0000
  Zn  Zn3       1.0  0.83295  0.25996  0.60703  1.0000
  Zn  Zn4       1.0  0.16705  0.74004  0.10703  1.0000
  Zn  Zn5       1.0  0.74004  0.16705  0.8929700000000002  1.0000
  Zn  Zn6       1.0  0.25996  0.83295  0.39297  1.0000
  Zn  Zn7       1.0  0.6684599999999998  0.75812  0.14377  1.0000
  Zn  Zn8       1.0  0.3315399999999999  0.24188  0.64377  1.0000
  Zn  Zn9       1.0  0.72212  0.72212  0.0  1.0000
  Zn  Zn10      1.0  0.27788  0.27788  0.5  1.0000
  Zn  Zn11      1.0  0.77934  0.22066  0.75  1.0000
  Zn  Zn12      1.0  0.22066  0.7793400000000003  0.25  1.0000
  H   H1        1.0  0.9893699999999997  0.7437  0.04289  1.0000
  H   H2        1.0  0.03308  0.63235  0.8731599999999999  1.0000
  H   H3        1.0  0.19259  0.62578  0.89711  1.0000
  H   H4        1.0  0.32234  0.63239  0.91924  1.0000
  H   H5        1.0  0.47601  0.64806  0.95336  1.0000
  H   H6        1.0  0.3770999999999999  0.73914  0.1185  1.0000
  H   H7        1.0  0.5643899999999998  0.7926  0.9110800000000001  1.0000
  H   H8        1.0  0.01063  0.2563  0.54289  1.0000
  H   H9        1.0  0.96692  0.36765  0.37316  1.0000
  H   H10       1.0  0.80741  0.37422  0.39710999999999996  1.0000
  H   H11       1.0  0.67766  0.36761  0.41924  1.0000
  H   H12       1.0  0.52399  0.35194  0.45336  1.0000
  H   H13       1.0  0.6228999999999998  0.26085  0.6185  1.0000
  H   H14       1.0  0.43561  0.2074  0.41109  1.0000
  H   H15       1.0  0.75609  0.4896  0.79284  1.0000
  H   H16       1.0  0.86803  0.53332  0.62317  1.0000
  H   H17       1.0  0.8744199999999998  0.6929600000000002  0.64689  1.0000
  H   H18       1.0  0.86781  0.82258  0.66893  1.0000
  H   H19       1.0  0.8521199999999998  0.9762  0.7032800000000001  1.0000
  H   H20       1.0  0.76084  0.87647  0.86824  1.0000
  H   H21       1.0  0.7074799999999998  0.06409  0.66089  1.0000
  H   H22       1.0  0.24391  0.5104  0.29284  1.0000
  H   H23       1.0  0.13197  0.46668  0.12317  1.0000
  H   H24       1.0  0.12558  0.30703  0.14689  1.0000
  H   H25       1.0  0.13219  0.17742  0.16893  1.0000
  H   H26       1.0  0.14788  0.02379  0.20328  1.0000
  H   H27       1.0  0.23916  0.12353  0.36824000000000007  1.0000
  H   H28       1.0  0.2925199999999999  0.93591  0.16089  1.0000
  H   H29       1.0  0.5104  0.24391  0.70716  1.0000
  H   H30       1.0  0.46668  0.13197  0.87682  1.0000
  H   H31       1.0  0.3070299999999999  0.12557  0.8531100000000001  1.0000
  H   H32       1.0  0.17742  0.13218  0.83107  1.0000
  H   H33       1.0  0.02379  0.14788  0.7967199999999999  1.0000
  H   H34       1.0  0.12353  0.23916  0.63176  1.0000
  H   H35       1.0  0.93591  0.29251  0.8391000000000001  1.0000
  H   H36       1.0  0.4896  0.7560900000000002  0.20716  1.0000
  H   H37       1.0  0.53332  0.86803  0.37683  1.0000
  H   H38       1.0  0.6929699999999998  0.87442  0.35311000000000003  1.0000
  H   H39       1.0  0.82258  0.86781  0.33107  1.0000
  H   H40       1.0  0.9762099999999998  0.8521100000000003  0.29672  1.0000
  H   H41       1.0  0.87647  0.76084  0.13176  1.0000
  H   H42       1.0  0.06409  0.70748  0.33911  1.0000
  H   H43       1.0  0.7437  0.98937  0.9570999999999998  1.0000
  H   H44       1.0  0.63235  0.03308  0.12684  1.0000
  H   H45       1.0  0.62578  0.19259  0.10289  1.0000
  H   H46       1.0  0.63239  0.32234  0.08076  1.0000
  H   H47       1.0  0.64806  0.47601  0.046630000000000005  1.0000
  H   H48       1.0  0.73915  0.3771  0.8815  1.0000
  H   H49       1.0  0.7926  0.56439  0.08892  1.0000
  H   H50       1.0  0.2563  0.01062  0.45711000000000007  1.0000
  H   H51       1.0  0.36765  0.96691  0.62683  1.0000
  H   H52       1.0  0.37422  0.80741  0.60289  1.0000
  H   H53       1.0  0.36761  0.67766  0.58076  1.0000
  H   H54       1.0  0.35194  0.52399  0.54663  1.0000
  H   H55       1.0  0.26085  0.6229  0.3815  1.0000
  H   H56       1.0  0.2074  0.43561  0.58891  1.0000
  C   C1        1.0  0.0324  0.71713  0.0096  1.0000
  C   C2        1.0  0.99934  0.68889  0.95583  1.0000
  C   C3        1.0  0.058049999999999984  0.65522  0.91496  1.0000
  C   C4        1.0  0.14637  0.6516300000000002  0.92859  1.0000
  C   C5        1.0  0.17503  0.6813  0.98323  1.0000
  C   C6        1.0  0.26814  0.6814  0.00064  1.0000
  C   C7        1.0  0.3358  0.65642  0.9629900000000001  1.0000
  C   C8        1.0  0.42163  0.66463  0.98182  1.0000
  C   C9        1.0  0.43902  0.69596  0.03814  1.0000
  C   C10       1.0  0.36781  0.71592  0.07397  1.0000
  C   C11       1.0  0.90302  0.69392  0.9429000000000001  1.0000
  C   C12       1.0  0.53221  0.7113  0.05705  1.0000
  C   C13       1.0  0.61219  0.75283  0.8870100000000001  1.0000
  C   C14       1.0  0.9676  0.28287  0.50959  1.0000
  C   C15       1.0  0.00066  0.31111  0.45582999999999996  1.0000
  C   C16       1.0  0.94195  0.34478  0.41496000000000005  1.0000
  C   C17       1.0  0.85363  0.34837  0.4285900000000001  1.0000
  C   C18       1.0  0.82497  0.3187  0.48323000000000005  1.0000
  C   C19       1.0  0.73186  0.3186  0.50064  1.0000
  C   C20       1.0  0.6642  0.34357  0.46299  1.0000
  C   C21       1.0  0.57837  0.33537  0.48183000000000004  1.0000
  C   C22       1.0  0.56098  0.30404  0.53814  1.0000
  C   C23       1.0  0.63219  0.28407  0.57397  1.0000
  C   C24       1.0  0.09698  0.30607  0.4429  1.0000
  C   C25       1.0  0.46779  0.2887  0.55705  1.0000
  C   C26       1.0  0.3878  0.24716  0.38701  1.0000
  C   C27       1.0  0.78272  0.53262  0.7594900000000001  1.0000
  C   C28       1.0  0.81116  0.49965  0.7058200000000001  1.0000
  C   C29       1.0  0.8450099999999998  0.55833  0.66489  1.0000
  C   C30       1.0  0.84854  0.64665  0.67837  1.0000
  C   C31       1.0  0.8186699999999998  0.67519  0.7329200000000001  1.0000
  C   C32       1.0  0.81873  0.76821  0.7502600000000001  1.0000
  C   C33       1.0  0.8439  0.83598  0.7127  1.0000
  C   C34       1.0  0.83565  0.9217  0.73169  1.0000
  C   C35       1.0  0.8041  0.9385600000000001  0.78801  1.0000
  C   C36       1.0  0.7842  0.86734  0.8237500000000001  1.0000
  C   C37       1.0  0.80611  0.4035  0.69267  1.0000
  C   C38       1.0  0.78724  0.03099  0.80727  1.0000
  C   C39       1.0  0.74807  0.11095  0.63645  1.0000
  C   C40       1.0  0.21727999999999995  0.46738  0.25949  1.0000
  C   C41       1.0  0.18884  0.50035  0.20582  1.0000
  C   C42       1.0  0.15499  0.44167  0.16489  1.0000
  C   C43       1.0  0.15146  0.35334  0.17837  1.0000
  C   C44       1.0  0.18133  0.3248  0.23292  1.0000
  C   C45       1.0  0.18126999999999996  0.23179  0.25026  1.0000
  C   C46       1.0  0.1561  0.16401  0.21270000000000003  1.0000
  C   C47       1.0  0.16435  0.0783  0.2317  1.0000
  C   C48       1.0  0.19589999999999994  0.06144  0.28801  1.0000
  C   C49       1.0  0.2158  0.13266  0.32375  1.0000
  C   C50       1.0  0.19389  0.5965  0.19267000000000004  1.0000
  C   C51       1.0  0.21276  0.96901  0.30727  1.0000
  C   C52       1.0  0.25193  0.88905  0.13645  1.0000
  C   C53       1.0  0.4673799999999999  0.21728  0.7405  1.0000
  C   C54       1.0  0.50035  0.18884  0.79418  1.0000
  C   C55       1.0  0.44167  0.15499  0.83511  1.0000
  C   C56       1.0  0.35335  0.15146  0.82163  1.0000
  C   C57       1.0  0.3248  0.18132  0.7670700000000001  1.0000
  C   C58       1.0  0.23179  0.18127  0.74974  1.0000
  C   C59       1.0  0.16401  0.1561  0.78729  1.0000
  C   C60       1.0  0.0783  0.16435  0.7683000000000001  1.0000
  C   C61       1.0  0.06144  0.1959  0.7119799999999998  1.0000
  C   C62       1.0  0.13265999999999994  0.2158  0.67625  1.0000
  C   C63       1.0  0.5965  0.19389  0.8073300000000001  1.0000
  C   C64       1.0  0.96901  0.21275000000000002  0.69272  1.0000
  C   C65       1.0  0.88905  0.25193  0.8635400000000001  1.0000
  C   C66       1.0  0.53262  0.78272  0.24051000000000003  1.0000
  C   C67       1.0  0.49965  0.81115  0.29418  1.0000
  C   C68       1.0  0.5583299999999998  0.8450100000000003  0.33511  1.0000
  C   C69       1.0  0.6466499999999997  0.84854  0.32163  1.0000
  C   C70       1.0  0.6751999999999998  0.81867  0.26708  1.0000
  C   C71       1.0  0.7682099999999997  0.8187200000000002  0.24974  1.0000
  C   C72       1.0  0.8359899999999999  0.8439000000000001  0.2873  1.0000
  C   C73       1.0  0.9216999999999997  0.83565  0.2683  1.0000
  C   C74       1.0  0.93856  0.8040900000000001  0.21199  1.0000
  C   C75       1.0  0.86734  0.7842  0.17625  1.0000
  C   C76       1.0  0.4035  0.80611  0.30733  1.0000
  C   C77       1.0  0.030989999999999993  0.78724  0.19272  1.0000
  C   C78       1.0  0.11094999999999998  0.74807  0.36354  1.0000
  C   C79       1.0  0.71713  0.0324  0.9904  1.0000
  C   C80       1.0  0.68889  0.99934  0.04417  1.0000
  C   C81       1.0  0.65522  0.05805  0.08504  1.0000
  C   C82       1.0  0.65163  0.14637  0.07141  1.0000
  C   C83       1.0  0.6813  0.17503  0.01677  1.0000
  C   C84       1.0  0.6814  0.26814  0.9993600000000001  1.0000
  C   C85       1.0  0.65642  0.3358  0.03701  1.0000
  C   C86       1.0  0.6646299999999998  0.42163  0.01817  1.0000
  C   C87       1.0  0.6959599999999998  0.43901  0.96186  1.0000
  C   C88       1.0  0.7159299999999997  0.36781  0.92603  1.0000
  C   C89       1.0  0.6939299999999998  0.90301  0.057089999999999995  1.0000
  C   C90       1.0  0.7113  0.53221  0.94295  1.0000
  C   C91       1.0  0.75283  0.61219  0.11299  1.0000
  C   C92       1.0  0.28287  0.9676  0.4904  1.0000
  C   C93       1.0  0.31111  0.00066  0.54417  1.0000
  C   C94       1.0  0.34478  0.94195  0.58504  1.0000
  C   C95       1.0  0.34837  0.85363  0.57141  1.0000
  C   C96       1.0  0.3187  0.82497  0.51677  1.0000
  C   C97       1.0  0.3186  0.73186  0.49935  1.0000
  C   C98       1.0  0.34358  0.6642  0.53701  1.0000
  C   C99       1.0  0.33537  0.57837  0.51817  1.0000
  C   C100      1.0  0.30404  0.56098  0.46186  1.0000
  C   C101      1.0  0.28407  0.6321900000000001  0.42603  1.0000
  C   C102      1.0  0.3060699999999999  0.09698  0.55709  1.0000
  C   C103      1.0  0.2887  0.46779  0.44295000000000007  1.0000
  C   C104      1.0  0.24716999999999995  0.3878  0.61299  1.0000
  N   N1        1.0  0.11757  0.71305  0.02297  1.0000
  N   N2        1.0  0.2850699999999999  0.70953  0.05541  1.0000
  N   N3        1.0  0.88243  0.28694  0.52297  1.0000
  N   N4        1.0  0.71493  0.29047  0.55541  1.0000
  N   N5        1.0  0.78673  0.61782  0.7727  1.0000
  N   N6        1.0  0.79057  0.78485  0.805  1.0000
  N   N7        1.0  0.21326999999999993  0.38218  0.2727  1.0000
  N   N8        1.0  0.20942999999999998  0.21514  0.305  1.0000
  N   N9        1.0  0.38218  0.21327  0.7273  1.0000
  N   N10       1.0  0.21514  0.20943  0.695  1.0000
  N   N11       1.0  0.6178199999999998  0.78673  0.2273  1.0000
  N   N12       1.0  0.7848599999999999  0.7905700000000001  0.19499999999999998  1.0000
  N   N13       1.0  0.7130599999999998  0.11757  0.9770300000000001  1.0000
  N   N14       1.0  0.70953  0.28507  0.94459  1.0000
  N   N15       1.0  0.28694  0.88243  0.47703  1.0000
  N   N16       1.0  0.29047  0.71493  0.44459  1.0000
  O   O1        1.0  0.8555799999999998  0.72483  0.98302  1.0000
  O   O2        1.0  0.88016  0.66638  0.8925600000000001  1.0000
  O   O3        1.0  0.5863999999999999  0.71529  0.01544  1.0000
  O   O4        1.0  0.5466899999999998  0.72004  0.11162  1.0000
  O   O5        1.0  0.68915  0.74673  0.9118200000000001  1.0000
  O   O6        1.0  0.5950299999999997  0.71773  0.8396800000000001  1.0000
  O   O7        1.0  0.14442  0.27516  0.48302000000000006  1.0000
  O   O8        1.0  0.11983999999999999  0.33361  0.39256  1.0000
  O   O9        1.0  0.4136  0.28471  0.51544  1.0000
  O   O10       1.0  0.4533099999999999  0.27996  0.61162  1.0000
  O   O11       1.0  0.31085  0.25327  0.41182  1.0000
  O   O12       1.0  0.4049699999999999  0.28225  0.33968  1.0000
  O   O13       1.0  0.77338  0.3553  0.73173  1.0000
  O   O14       1.0  0.8356799999999998  0.38164  0.64262  1.0000
  O   O15       1.0  0.7823399999999998  0.08524  0.76575  1.0000
  O   O16       1.0  0.77789  0.04479  0.8618799999999999  1.0000
  O   O17       1.0  0.75594  0.18769000000000002  0.66167  1.0000
  O   O18       1.0  0.7819699999999998  0.09313  0.58892  1.0000
  O   O19       1.0  0.22662  0.6447  0.23173000000000002  1.0000
  O   O20       1.0  0.16432  0.61836  0.14262  1.0000
  O   O21       1.0  0.21766  0.91476  0.26575  1.0000
  O   O22       1.0  0.22210999999999995  0.9552100000000001  0.36188  1.0000
  O   O23       1.0  0.24406  0.81231  0.16167  1.0000
  O   O24       1.0  0.21802999999999995  0.90686  0.08892  1.0000
  O   O25       1.0  0.6447  0.22662  0.76827  1.0000
  O   O26       1.0  0.61836  0.16432  0.85738  1.0000
  O   O27       1.0  0.91476  0.21766  0.73425  1.0000
  O   O28       1.0  0.95521  0.22211  0.63812  1.0000
  O   O29       1.0  0.81231  0.24405  0.83833  1.0000
  O   O30       1.0  0.90686  0.21803  0.9110800000000001  1.0000
  O   O31       1.0  0.3553  0.77338  0.26827  1.0000
  O   O32       1.0  0.38164  0.83568  0.35738  1.0000
  O   O33       1.0  0.08523999999999997  0.78234  0.23424999999999999  1.0000
  O   O34       1.0  0.04479  0.7778900000000001  0.13812  1.0000
  O   O35       1.0  0.18769  0.75594  0.33833  1.0000
  O   O36       1.0  0.09314  0.78197  0.41108  1.0000
  O   O37       1.0  0.72483  0.85558  0.01698  1.0000
  O   O38       1.0  0.66639  0.88016  0.10744000000000001  1.0000
  O   O39       1.0  0.71529  0.58639  0.98455  1.0000
  O   O40       1.0  0.72004  0.54669  0.8883799999999998  1.0000
  O   O41       1.0  0.74673  0.68915  0.08818  1.0000
  O   O42       1.0  0.71774  0.59503  0.16032  1.0000
  O   O43       1.0  0.27517  0.14442  0.51698  1.0000
  O   O44       1.0  0.3336099999999999  0.11984  0.60743  1.0000
  O   O45       1.0  0.28471  0.4136  0.48456000000000005  1.0000
  O   O46       1.0  0.27996  0.4533100000000001  0.38838000000000006  1.0000
  O   O47       1.0  0.25327  0.31085  0.58818  1.0000
  O   O48       1.0  0.28227  0.40497  0.66032  1.0000
