data_image0
_chemical_formula_structural       Zn8H104C192N16O32
_chemical_formula_sum              "Zn8 H104 C192 N16 O32"
_cell_length_a       17.2126
_cell_length_b       17.214869999999998
_cell_length_c       32.70420000000001
_cell_angle_alpha    88.00084
_cell_angle_beta     87.9859
_cell_angle_gamma    70.95651

_symmetry_space_group_name_H-M    'P 1'
_symmetry_Int_Tables_number       1

loop_
  _symmetry_equiv_pos_as_xyz
  'x,y,z'

loop_
  _atom_site_type_symbol
  _atom_site_label
  _atom_site_symmetry_multiplicity
  _atom_site_fract_x
  _atom_site_fract_y
  _atom_site_fract_z
  _atom_site_occupancy
  Zn  Zn1       1.0  0.15849000000000002  0.68151  0.55627  1.0000
  Zn  Zn2       1.0  0.20465999999999998  0.13073  0.81507  1.0000
  Zn  Zn3       1.0  0.68134  0.15866  0.05576  1.0000
  Zn  Zn4       1.0  0.13066  0.20415  0.31462  1.0000
  Zn  Zn5       1.0  0.31864999999999993  0.84135  0.94424  1.0000
  Zn  Zn6       1.0  0.86933  0.79585  0.68538  1.0000
  Zn  Zn7       1.0  0.8415099999999999  0.3185  0.44373  1.0000
  Zn  Zn8       1.0  0.7953299999999996  0.86928  0.18493  1.0000
  H   H1        1.0  0.21704999999999997  0.71399  0.71107  1.0000
  H   H2        1.0  0.21680999999999997  0.55835  0.70674  1.0000
  H   H3        1.0  0.17842999999999998  0.37179  0.58646  1.0000
  H   H4        1.0  0.15029  0.39573  0.50576  1.0000
  H   H5        1.0  0.11299  0.64577  0.39949  1.0000
  H   H6        1.0  0.11211000000000004  0.80227  0.40458  1.0000
  H   H7        1.0  0.16175999999999996  0.9829600000000001  0.52241  1.0000
  H   H8        1.0  0.18880999999999998  0.9605600000000001  0.60352  1.0000
  H   H9        1.0  0.07987999999999992  0.92295  0.67533  1.0000
  H   H10       1.0  0.11106000000000002  0.008700000000000001  0.72889  1.0000
  H   H11       1.0  0.36815999999999993  0.87138  0.71691  1.0000
  H   H12       1.0  0.3374399999999999  0.7866300000000003  0.66306  1.0000
  H   H13       1.0  0.3458499999999999  0.005  0.79567  1.0000
  H   H14       1.0  0.08632999999999998  0.50512  0.68807  1.0000
  H   H15       1.0  0.10379000000000002  0.39074  0.73754  1.0000
  H   H16       1.0  0.33211000000000007  0.25445  0.67674  1.0000
  H   H17       1.0  0.31415999999999994  0.37226  0.6269  1.0000
  H   H18       1.0  0.12725  0.29049  0.76628  1.0000
  H   H19       1.0  0.9977199999999999  0.57112  0.43934  1.0000
  H   H20       1.0  0.9797999999999999  0.48575999999999997  0.38283  1.0000
  H   H21       1.0  0.23678999999999997  0.34608  0.38496  1.0000
  H   H22       1.0  0.25554  0.43239  0.44134  1.0000
  H   H23       1.0  0.0033500000000000092  0.97259  0.46572  1.0000
  H   H24       1.0  0.9984299999999999  0.08605  0.41497  1.0000
  H   H25       1.0  0.25557  0.97399  0.38716  1.0000
  H   H26       1.0  0.26189  0.8619  0.43959  1.0000
  H   H27       1.0  0.71398  0.21697000000000005  0.21084  1.0000
  H   H28       1.0  0.5582599999999998  0.21692  0.2065  1.0000
  H   H29       1.0  0.37167  0.17835  0.08636  1.0000
  H   H30       1.0  0.3955799999999999  0.15015  0.00561  1.0000
  H   H31       1.0  0.6456199999999997  0.11293  0.89925  1.0000
  H   H32       1.0  0.8021799999999998  0.11201000000000001  0.90439  1.0000
  H   H33       1.0  0.9828499999999999  0.16166  0.02221  1.0000
  H   H34       1.0  0.96048  0.18863  0.10336  1.0000
  H   H35       1.0  0.9232400000000001  0.08017  0.17543999999999998  1.0000
  H   H36       1.0  0.008449999999999987  0.11173  0.22897  1.0000
  H   H37       1.0  0.8711999999999999  0.36867999999999995  0.21665  1.0000
  H   H38       1.0  0.7864499999999998  0.33749  0.16298  1.0000
  H   H39       1.0  0.007840000000000003  0.34645  0.29499  1.0000
  H   H40       1.0  0.50513  0.08658  0.18799999999999997  1.0000
  H   H41       1.0  0.39098  0.10367  0.23749  1.0000
  H   H42       1.0  0.25443999999999994  0.33234  0.17706  1.0000
  H   H43       1.0  0.37178  0.31441  0.12707  1.0000
  H   H44       1.0  0.28953  0.12528  0.26542  1.0000
  H   H45       1.0  0.5707200000000001  0.99778  0.93919  1.0000
  H   H46       1.0  0.48548  0.98022  0.88251  1.0000
  H   H47       1.0  0.3461199999999998  0.23710999999999996  0.88469  1.0000
  H   H48       1.0  0.43202999999999986  0.25568  0.94132  1.0000
  H   H49       1.0  0.9725199999999999  0.0034599999999999982  0.96556  1.0000
  H   H50       1.0  0.08627000000000004  0.99859  0.91508  1.0000
  H   H51       1.0  0.97383  0.25578  0.88716  1.0000
  H   H52       1.0  0.8619000000000001  0.26202  0.93951  1.0000
  H   H53       1.0  0.28600999999999993  0.78303  0.78917  1.0000
  H   H54       1.0  0.44173  0.78309  0.79351  1.0000
  H   H55       1.0  0.62833  0.82165  0.91364  1.0000
  H   H56       1.0  0.60441  0.84985  0.9943900000000001  1.0000
  H   H57       1.0  0.35437  0.88707  0.10075  1.0000
  H   H58       1.0  0.19781000000000004  0.888  0.09561  1.0000
  H   H59       1.0  0.01714000000000002  0.83835  0.97779  1.0000
  H   H60       1.0  0.03952000000000002  0.81138  0.89664  1.0000
  H   H61       1.0  0.07675  0.91984  0.82457  1.0000
  H   H62       1.0  0.9915399999999999  0.88828  0.77103  1.0000
  H   H63       1.0  0.1287999999999999  0.6313200000000002  0.78335  1.0000
  H   H64       1.0  0.21354  0.66251  0.83703  1.0000
  H   H65       1.0  0.99215  0.65356  0.70501  1.0000
  H   H66       1.0  0.49485999999999997  0.91343  0.81201  1.0000
  H   H67       1.0  0.60901  0.89634  0.76252  1.0000
  H   H68       1.0  0.7455499999999997  0.66766  0.82294  1.0000
  H   H69       1.0  0.62821  0.68559  0.87294  1.0000
  H   H70       1.0  0.71046  0.87473  0.73459  1.0000
  H   H71       1.0  0.42928  0.0022299999999999998  0.06081  1.0000
  H   H72       1.0  0.51452  0.019790000000000002  0.11749  1.0000
  H   H73       1.0  0.65388  0.7629  0.11531  1.0000
  H   H74       1.0  0.5679599999999999  0.74433  0.05869  1.0000
  H   H75       1.0  0.027469999999999974  0.99654  0.03445  1.0000
  H   H76       1.0  0.91372  0.00142  0.08492  1.0000
  H   H77       1.0  0.026159999999999992  0.74423  0.11284  1.0000
  H   H78       1.0  0.1381  0.73799  0.06049  1.0000
  H   H79       1.0  0.78295  0.28602  0.28893  1.0000
  H   H80       1.0  0.78319  0.44165  0.29326  1.0000
  H   H81       1.0  0.8215599999999996  0.62821  0.41354  1.0000
  H   H82       1.0  0.84971  0.60427  0.49424999999999997  1.0000
  H   H83       1.0  0.887  0.35424000000000005  0.6005099999999999  1.0000
  H   H84       1.0  0.8878900000000001  0.19773  0.59542  1.0000
  H   H85       1.0  0.83824  0.01705  0.47759  1.0000
  H   H86       1.0  0.8111799999999998  0.03945  0.39648  1.0000
  H   H87       1.0  0.9201099999999995  0.07705  0.32468  1.0000
  H   H88       1.0  0.8889400000000001  0.9913099999999999  0.27111  1.0000
  H   H89       1.0  0.63183  0.12863  0.2831  1.0000
  H   H90       1.0  0.6625500000000001  0.21337  0.33695  1.0000
  H   H91       1.0  0.65414  0.9950100000000001  0.20434  1.0000
  H   H92       1.0  0.9136699999999999  0.49488  0.31193  1.0000
  H   H93       1.0  0.8962099999999998  0.60927  0.26247  1.0000
  H   H94       1.0  0.6678899999999997  0.74555  0.32327  1.0000
  H   H95       1.0  0.68584  0.62774  0.37311  1.0000
  H   H96       1.0  0.8727399999999996  0.70952  0.23372  1.0000
  H   H97       1.0  0.00227000000000003  0.42889  0.56066  1.0000
  H   H98       1.0  0.020200000000000006  0.51424  0.61717  1.0000
  H   H99       1.0  0.7631999999999999  0.65392  0.61505  1.0000
  H   H100      1.0  0.7444499999999998  0.56762  0.55866  1.0000
  H   H101      1.0  0.99664  0.02742  0.53428  1.0000
  H   H102      1.0  0.0015599999999999904  0.91396  0.58504  1.0000
  H   H103      1.0  0.7444199999999999  0.026009999999999995  0.61284  1.0000
  H   H104      1.0  0.7381  0.13811  0.56042  1.0000
  C   C1        1.0  0.17542000000000005  0.83673  0.59359  1.0000
  C   C2        1.0  0.18956  0.80003  0.63292  1.0000
  C   C3        1.0  0.19218999999999997  0.7195  0.6437  1.0000
  C   C4        1.0  0.20744999999999994  0.68306  0.68437  1.0000
  C   C5        1.0  0.2068  0.60409  0.68219  1.0000
  C   C6        1.0  0.1906299999999999  0.5917  0.64019  1.0000
  C   C7        1.0  0.18855000000000002  0.51705  0.62471  1.0000
  C   C8        1.0  0.17733999999999997  0.50314  0.58342  1.0000
  C   C9        1.0  0.17277000000000006  0.42689000000000005  0.56815  1.0000
  C   C10       1.0  0.15841  0.43894  0.52715  1.0000
  C   C11       1.0  0.15398999999999996  0.52262  0.51696  1.0000
  C   C12       1.0  0.13816999999999996  0.55947  0.4777  1.0000
  C   C13       1.0  0.13090999999999997  0.64162  0.46753  1.0000
  C   C14       1.0  0.11903999999999994  0.6775600000000003  0.42658  1.0000
  C   C15       1.0  0.11882999999999999  0.75677  0.42911  1.0000
  C   C16       1.0  0.13089999999999996  0.76966  0.47157  1.0000
  C   C17       1.0  0.13780000000000003  0.84258  0.48649  1.0000
  C   C18       1.0  0.15247999999999984  0.85563  0.52723  1.0000
  C   C19       1.0  0.16348999999999997  0.92978  0.54155  1.0000
  C   C20       1.0  0.17747000000000002  0.91823  0.58261  1.0000
  C   C21       1.0  0.20678999999999995  0.85002  0.66563  1.0000
  C   C22       1.0  0.14284000000000002  0.91267  0.68432  1.0000
  C   C23       1.0  0.16011999999999998  0.96032  0.71407  1.0000
  C   C24       1.0  0.24154999999999996  0.94567  0.72568  1.0000
  C   C25       1.0  0.30548  0.88237  0.70747  1.0000
  C   C26       1.0  0.28806  0.83514  0.67764  1.0000
  C   C27       1.0  0.25956000000000007  0.99653  0.75723  1.0000
  C   C28       1.0  0.19929999999999992  0.44681  0.65435  1.0000
  C   C29       1.0  0.14059000000000002  0.45056  0.68592  1.0000
  C   C30       1.0  0.15096999999999997  0.38457  0.71354  1.0000
  C   C31       1.0  0.21999999999999997  0.31333  0.71028  1.0000
  C   C32       1.0  0.27867000000000003  0.3096499999999999  0.67872  1.0000
  C   C33       1.0  0.26833  0.37536  0.65113  1.0000
  C   C34       1.0  0.23589  0.24049  0.73822  1.0000
  C   C35       1.0  0.12796  0.50777  0.44395  1.0000
  C   C36       1.0  0.05036999999999997  0.52274  0.42706  1.0000
  C   C37       1.0  0.04009999999999998  0.47508  0.39545  1.0000
  C   C38       1.0  0.10737000000000001  0.4112  0.38017  1.0000
  C   C39       1.0  0.18506  0.3957899999999999  0.39698  1.0000
  C   C40       1.0  0.19524000000000002  0.4438  0.42851  1.0000
  C   C41       1.0  0.09534999999999998  0.35852  0.3474  1.0000
  C   C42       1.0  0.13323000000000002  0.91041  0.456  1.0000
  C   C43       1.0  0.05880000000000007  0.9734199999999998  0.44901  1.0000
  C   C44       1.0  0.055609999999999986  0.036469999999999995  0.42052  1.0000
  C   C45       1.0  0.12664999999999998  0.03625  0.3982  1.0000
  C   C46       1.0  0.20121  0.9731299999999999  0.4049  1.0000
  C   C47       1.0  0.20443000000000003  0.91095  0.43387  1.0000
  C   C48       1.0  0.12233999999999999  0.10271  0.36729  1.0000
  C   C49       1.0  0.8366499999999998  0.17538  0.09344  1.0000
  C   C50       1.0  0.80002  0.18961  0.13279  1.0000
  C   C51       1.0  0.71942  0.19225  0.14346  1.0000
  C   C52       1.0  0.68295  0.20757  0.18413  1.0000
  C   C53       1.0  0.6039699999999998  0.20701  0.18194  1.0000
  C   C54       1.0  0.59157  0.19084  0.13994  1.0000
  C   C55       1.0  0.51681  0.18881  0.12452999999999999  1.0000
  C   C56       1.0  0.5029  0.17749  0.08325  1.0000
  C   C57       1.0  0.42669999999999997  0.17278  0.068  1.0000
  C   C58       1.0  0.43874  0.1584  0.027  1.0000
  C   C59       1.0  0.52239  0.15411  0.01679  1.0000
  C   C60       1.0  0.55923  0.13822  0.97752  1.0000
  C   C61       1.0  0.6414  0.13091  0.9673  1.0000
  C   C62       1.0  0.67739  0.11898  0.92636  1.0000
  C   C63       1.0  0.75662  0.11877999999999998  0.9289  1.0000
  C   C64       1.0  0.76951  0.13089  0.97134  1.0000
  C   C65       1.0  0.8423799999999997  0.13785  0.98631  1.0000
  C   C66       1.0  0.8554399999999998  0.15253  0.02705  1.0000
  C   C67       1.0  0.9296599999999999  0.16343  0.04135  1.0000
  C   C68       1.0  0.91816  0.17735  0.08243  1.0000
  C   C69       1.0  0.8499299999999997  0.20699  0.16555  1.0000
  C   C70       1.0  0.9125599999999996  0.14322  0.18436  1.0000
  C   C71       1.0  0.96004  0.16067  0.21412  1.0000
  C   C72       1.0  0.9455599999999998  0.24211999999999997  0.22563999999999998  1.0000
  C   C73       1.0  0.8822700000000001  0.30591  0.20737  1.0000
  C   C74       1.0  0.83501  0.28826  0.17759  1.0000
  C   C75       1.0  0.99701  0.25968  0.25706  1.0000
  C   C76       1.0  0.44664999999999994  0.19952  0.15429  1.0000
  C   C77       1.0  0.45054  0.1408  0.18586  1.0000
  C   C78       1.0  0.38461  0.15093  0.21353  1.0000
  C   C79       1.0  0.31319999999999987  0.21987  0.21042  1.0000
  C   C80       1.0  0.3095399999999999  0.27879  0.17899  1.0000
  C   C81       1.0  0.37512  0.26854  0.15128  1.0000
  C   C82       1.0  0.24020999999999995  0.23507  0.23826  1.0000
  C   C83       1.0  0.50753  0.12806000000000003  0.9438  1.0000
  C   C84       1.0  0.52252  0.05050999999999999  0.92687  1.0000
  C   C85       1.0  0.47496999999999995  0.04043  0.89518  1.0000
  C   C86       1.0  0.41135000000000005  0.10783  0.87988  1.0000
  C   C87       1.0  0.3958199999999998  0.18544  0.89675  1.0000
  C   C88       1.0  0.44364  0.19544  0.92839  1.0000
  C   C89       1.0  0.3589  0.09587  0.84705  1.0000
  C   C90       1.0  0.91029  0.13330000000000009  0.95586  1.0000
  C   C91       1.0  0.97338  0.05891999999999999  0.94886  1.0000
  C   C92       1.0  0.03658  0.055810000000000005  0.92045  1.0000
  C   C93       1.0  0.03622000000000001  0.12693999999999997  0.89813  1.0000
  C   C94       1.0  0.9729599999999999  0.20135  0.90481  1.0000
  C   C95       1.0  0.9108299999999998  0.20451000000000003  0.93379  1.0000
  C   C96       1.0  0.10266  0.12315  0.86733  1.0000
  C   C97       1.0  0.16334000000000004  0.82463  0.90657  1.0000
  C   C98       1.0  0.19997000000000004  0.8104  0.8672199999999999  1.0000
  C   C99       1.0  0.28057  0.80775  0.85654  1.0000
  C   C100      1.0  0.31704  0.79243  0.81587  1.0000
  C   C101      1.0  0.39602  0.79299  0.81807  1.0000
  C   C102      1.0  0.40841999999999995  0.80916  0.86007  1.0000
  C   C103      1.0  0.48317999999999983  0.81119  0.87547  1.0000
  C   C104      1.0  0.4970899999999999  0.82251  0.91675  1.0000
  C   C105      1.0  0.5733  0.82722  0.932  1.0000
  C   C106      1.0  0.56125  0.8416100000000002  0.97301  1.0000
  C   C107      1.0  0.47759999999999997  0.84589  0.98321  1.0000
  C   C108      1.0  0.4407599999999998  0.86179  0.02248  1.0000
  C   C109      1.0  0.35858999999999996  0.86909  0.0327  1.0000
  C   C110      1.0  0.32261  0.88102  0.07365  1.0000
  C   C111      1.0  0.24337  0.88123  0.07111  1.0000
  C   C112      1.0  0.23049  0.86911  0.02866  1.0000
  C   C113      1.0  0.15760999999999997  0.86216  0.01369  1.0000
  C   C114      1.0  0.14455  0.84748  0.97295  1.0000
  C   C115      1.0  0.07034  0.83658  0.95865  1.0000
  C   C116      1.0  0.08182999999999999  0.82266  0.91757  1.0000
  C   C117      1.0  0.15006000000000003  0.79301  0.83445  1.0000
  C   C118      1.0  0.0874399999999999  0.8567900000000003  0.81565  1.0000
  C   C119      1.0  0.039950000000000055  0.8393299999999999  0.78588  1.0000
  C   C120      1.0  0.05442999999999999  0.75788  0.77436  1.0000
  C   C121      1.0  0.11771999999999994  0.6941  0.79264  1.0000
  C   C122      1.0  0.16498000000000002  0.71175  0.82241  1.0000
  C   C123      1.0  0.0029799999999999657  0.74032  0.74294  1.0000
  C   C124      1.0  0.55334  0.80048  0.84572  1.0000
  C   C125      1.0  0.54945  0.8592  0.81414  1.0000
  C   C126      1.0  0.61538  0.8490800000000001  0.78647  1.0000
  C   C127      1.0  0.6867900000000001  0.78014  0.78958  1.0000
  C   C128      1.0  0.6904499999999999  0.72121  0.82101  1.0000
  C   C129      1.0  0.6248799999999999  0.73147  0.84872  1.0000
  C   C130      1.0  0.75979  0.76493  0.76174  1.0000
  C   C131      1.0  0.49247  0.87194  0.0562  1.0000
  C   C132      1.0  0.4774699999999999  0.9495  0.07314  1.0000
  C   C133      1.0  0.5250199999999999  0.95958  0.10482  1.0000
  C   C134      1.0  0.5886399999999999  0.89217  0.12012  1.0000
  C   C135      1.0  0.60417  0.81457  0.10325  1.0000
  C   C136      1.0  0.55635  0.80456  0.07161  1.0000
  C   C137      1.0  0.6410900000000002  0.90413  0.15295  1.0000
  C   C138      1.0  0.08971000000000001  0.8667  0.04415  1.0000
  C   C139      1.0  0.026619999999999998  0.94109  0.05114  1.0000
  C   C140      1.0  0.9634099999999999  0.9442  0.07955  1.0000
  C   C141      1.0  0.9637699999999999  0.87307  0.10187  1.0000
  C   C142      1.0  0.02703  0.79865  0.09519  1.0000
  C   C143      1.0  0.08916000000000004  0.7955  0.06621  1.0000
  C   C144      1.0  0.8973299999999998  0.87685  0.13267  1.0000
  C   C145      1.0  0.82457  0.16327  0.40641  1.0000
  C   C146      1.0  0.8104299999999998  0.19997000000000004  0.36708  1.0000
  C   C147      1.0  0.80781  0.2805  0.35631  1.0000
  C   C148      1.0  0.7925399999999999  0.31695  0.31563  1.0000
  C   C149      1.0  0.7932000000000001  0.39591  0.31781  1.0000
  C   C150      1.0  0.8093699999999999  0.40831  0.35981  1.0000
  C   C151      1.0  0.8114399999999999  0.48295999999999994  0.3753  1.0000
  C   C152      1.0  0.8226500000000001  0.49687  0.41659  1.0000
  C   C153      1.0  0.82722  0.5731200000000001  0.43186  1.0000
  C   C154      1.0  0.8415900000000001  0.56106  0.47286  1.0000
  C   C155      1.0  0.8460099999999999  0.47739  0.48304  1.0000
  C   C156      1.0  0.8618299999999999  0.44054  0.52231  1.0000
  C   C157      1.0  0.8690799999999999  0.35838  0.53247  1.0000
  C   C158      1.0  0.88095  0.32244  0.57342  1.0000
  C   C159      1.0  0.8811600000000002  0.24323  0.57089  1.0000
  C   C160      1.0  0.8691000000000001  0.23033999999999996  0.52843  1.0000
  C   C161      1.0  0.86219  0.15742  0.51352  1.0000
  C   C162      1.0  0.8475099999999999  0.14437  0.47277  1.0000
  C   C163      1.0  0.8365  0.07023  0.45846  1.0000
  C   C164      1.0  0.8225199999999998  0.08177  0.41739  1.0000
  C   C165      1.0  0.7932  0.14998  0.33438  1.0000
  C   C166      1.0  0.8571499999999996  0.08734  0.31569  1.0000
  C   C167      1.0  0.8398699999999998  0.03969  0.28593  1.0000
  C   C168      1.0  0.75844  0.05433  0.27433  1.0000
  C   C169      1.0  0.69451  0.11764  0.29253  1.0000
  C   C170      1.0  0.7119299999999998  0.16487  0.32236  1.0000
  C   C171      1.0  0.74044  0.0034799999999999996  0.24277  1.0000
  C   C172      1.0  0.8007000000000001  0.55319  0.34566  1.0000
  C   C173      1.0  0.8593999999999999  0.54944  0.31409  1.0000
  C   C174      1.0  0.8490199999999997  0.61543  0.28646  1.0000
  C   C175      1.0  0.7799900000000001  0.68668  0.28972  1.0000
  C   C176      1.0  0.72132  0.69035  0.32128  1.0000
  C   C177      1.0  0.7316599999999999  0.62465  0.34887  1.0000
  C   C178      1.0  0.7641099999999998  0.75951  0.26179  1.0000
  C   C179      1.0  0.8720399999999999  0.49223  0.55605  1.0000
  C   C180      1.0  0.94963  0.47727  0.57295  1.0000
  C   C181      1.0  0.9598999999999999  0.52493  0.60456  1.0000
  C   C182      1.0  0.89262  0.58881  0.61983  1.0000
  C   C183      1.0  0.81493  0.60421  0.60302  1.0000
  C   C184      1.0  0.8047499999999997  0.5562  0.5715  1.0000
  C   C185      1.0  0.90465  0.64148  0.6526  1.0000
  C   C186      1.0  0.86676  0.08959  0.54401  1.0000
  C   C187      1.0  0.9411899999999999  0.026590000000000003  0.551  1.0000
  C   C188      1.0  0.94439  0.9635399999999998  0.57948  1.0000
  C   C189      1.0  0.87334  0.9637599999999998  0.60181  1.0000
  C   C190      1.0  0.79879  0.02688  0.59511  1.0000
  C   C191      1.0  0.79556  0.08905  0.56613  1.0000
  C   C192      1.0  0.8776599999999996  0.8973  0.63271  1.0000
  N   N1        1.0  0.18171000000000004  0.66289  0.61736  1.0000
  N   N2        1.0  0.16564  0.5606  0.55172  1.0000
  N   N3        1.0  0.13747999999999996  0.69897  0.49451  1.0000
  N   N4        1.0  0.16010000000000002  0.79976  0.55942  1.0000
  N   N5        1.0  0.6627999999999997  0.18185  0.11708  1.0000
  N   N6        1.0  0.5603499999999998  0.16586  0.05153  1.0000
  N   N7        1.0  0.6987699999999998  0.13748  0.9942400000000001  1.0000
  N   N8        1.0  0.79958  0.16015  0.05926  1.0000
  N   N9        1.0  0.33719999999999994  0.8181600000000001  0.88292  1.0000
  N   N10       1.0  0.43964000000000003  0.83415  0.94848  1.0000
  N   N11       1.0  0.30121999999999993  0.8625200000000001  0.00576  1.0000
  N   N12       1.0  0.20041  0.83985  0.94075  1.0000
  N   N13       1.0  0.81828  0.33712  0.38265  1.0000
  N   N14       1.0  0.8343499999999997  0.43941  0.44829  1.0000
  N   N15       1.0  0.8625099999999996  0.30103  0.5055  1.0000
  N   N16       1.0  0.8399  0.20025  0.44059  1.0000
  O   O1        1.0  0.33486999999999995  0.9729900000000001  0.76966  1.0000
  O   O2        1.0  0.20204999999999998  0.05816999999999999  0.77011  1.0000
  O   O3        1.0  0.29692999999999986  0.1799  0.7373  1.0000
  O   O4        1.0  0.17582  0.24164000000000002  0.76795  1.0000
  O   O5        1.0  0.15605999999999998  0.29325  0.33933  1.0000
  O   O6        1.0  0.026359999999999998  0.37974  0.32998  1.0000
  O   O7        1.0  0.18524000000000002  0.09416  0.34264  1.0000
  O   O8        1.0  0.05884000000000005  0.16601  0.36501  1.0000
  O   O9        1.0  0.9768499999999999  0.33553  0.26833  1.0000
  O   O10       1.0  0.05620000000000001  0.20058  0.27092  1.0000
  O   O11       1.0  0.18011  0.29666  0.23818  1.0000
  O   O12       1.0  0.24007  0.17329000000000003  0.26683  1.0000
  O   O13       1.0  0.29453  0.15713  0.83836  1.0000
  O   O14       1.0  0.37932999999999995  0.026300000000000007  0.83029  1.0000
  O   O15       1.0  0.09303999999999998  0.18447  0.84155  1.0000
  O   O16       1.0  0.16759999999999992  0.06114  0.86623  1.0000
  O   O17       1.0  0.023140000000000015  0.66448  0.73167  1.0000
  O   O18       1.0  0.9438  0.79943  0.72909  1.0000
  O   O19       1.0  0.8198799999999999  0.70335  0.76182  1.0000
  O   O20       1.0  0.7599199999999999  0.82671  0.73318  1.0000
  O   O21       1.0  0.7054599999999999  0.8428800000000002  0.16165  1.0000
  O   O22       1.0  0.6206599999999999  0.97371  0.16972  1.0000
  O   O23       1.0  0.90695  0.81554  0.15845  1.0000
  O   O24       1.0  0.83239  0.93886  0.13378  1.0000
  O   O25       1.0  0.66513  0.027010000000000003  0.23035  1.0000
  O   O26       1.0  0.79794  0.94184  0.22989  1.0000
  O   O27       1.0  0.7030599999999999  0.8201  0.2627  1.0000
  O   O28       1.0  0.8241700000000002  0.75836  0.23204999999999998  1.0000
  O   O29       1.0  0.8439299999999998  0.7067500000000001  0.66067  1.0000
  O   O30       1.0  0.9736299999999999  0.62026  0.67002  1.0000
  O   O31       1.0  0.81475  0.90584  0.65736  1.0000
  O   O32       1.0  0.9411600000000001  0.83399  0.63499  1.0000
