data_image0
_chemical_formula_structural       Zn8H136C208O40
_chemical_formula_sum              "Zn8 H136 C208 O40"
_cell_length_a       12.76185
_cell_length_b       26.89348
_cell_length_c       26.90277
_cell_angle_alpha    66.90668
_cell_angle_beta     76.33223
_cell_angle_gamma    76.36779

_space_group_name_H-M_alt    "P 1"
_space_group_IT_number       1

loop_
  _space_group_symop_operation_xyz
  'x, y, z'

loop_
  _atom_site_type_symbol
  _atom_site_label
  _atom_site_symmetry_multiplicity
  _atom_site_fract_x
  _atom_site_fract_y
  _atom_site_fract_z
  _atom_site_occupancy
  Zn  Zn1       1.0  0.17217000000000018  0.48764999999999986  0.36001  1.0000
  Zn  Zn2       1.0  0.007710000000000079  0.5573799999999998  0.29094  1.0000
  Zn  Zn3       1.0  0.98107  0.8622999999999997  0.9855100000000002  1.0000
  Zn  Zn4       1.0  0.1408300000000001  0.7923899999999999  0.05707  1.0000
  Zn  Zn5       1.0  0.32645000000000013  0.6399799999999998  0.51216  1.0000
  Zn  Zn6       1.0  0.49400999999999995  0.70809  0.4428900000000001  1.0000
  Zn  Zn7       1.0  0.52022  0.012819999999999998  0.13944  1.0000
  Zn  Zn8       1.0  0.35653999999999986  0.94316  0.20765000000000006  1.0000
  H   H1        1.0  0.03383999999999996  0.26505  0.3763  1.0000
  H   H2        1.0  0.08430999999999998  0.35148999999999997  0.3703500000000001  1.0000
  H   H3        1.0  0.84058  0.44510999999999995  0.26780000000000004  1.0000
  H   H4        1.0  0.7897300000000002  0.3593  0.27411  1.0000
  H   H5        1.0  0.02930999999999995  0.20758999999999997  0.32227000000000006  1.0000
  H   H6        1.0  0.70035  0.2909899999999999  0.34544  1.0000
  H   H7        1.0  0.95998  0.12399999999999999  0.33647  1.0000
  H   H8        1.0  0.55926  0.30975999999999976  0.28661  1.0000
  H   H9        1.0  0.42724  0.38897  0.30313  1.0000
  H   H10       1.0  0.3251200000000001  0.2870599999999999  0.4681  1.0000
  H   H11       1.0  0.4603400000000001  0.20765999999999998  0.45303000000000004  1.0000
  H   H12       1.0  0.4746100000000001  0.15895999999999996  0.37803  1.0000
  H   H13       1.0  0.8260000000000001  0.95411  0.09458  1.0000
  H   H14       1.0  0.77648  0.9975099999999999  0.1647  1.0000
  H   H15       1.0  0.0981599999999999  0.93382  0.2091  1.0000
  H   H16       1.0  0.14528000000000002  0.8884799999999998  0.14048000000000002  1.0000
  H   H17       1.0  0.7968  0.06246999999999999  0.19361  1.0000
  H   H18       1.0  0.75013  0.10093  0.26704  1.0000
  H   H19       1.0  0.0024000000000000067  0.92464  0.29083  1.0000
  H   H20       1.0  0.96235  0.95404  0.4588200000000001  1.0000
  H   H21       1.0  0.16582000000000002  0.9413  0.31619  1.0000
  H   H22       1.0  0.95278  0.86023  0.4617700000000001  1.0000
  H   H23       1.0  0.30952999999999997  0.85904  0.33789  1.0000
  H   H24       1.0  0.09322000000000007  0.77643  0.48097  1.0000
  H   H25       1.0  0.48393  0.02016999999999997  0.3874600000000001  1.0000
  H   H26       1.0  0.43277999999999994  0.08326999999999996  0.3976800000000001  1.0000
  H   H27       1.0  0.39257000000000003  0.08863000000000001  0.30796  1.0000
  H   H28       1.0  0.4869200000000003  0.13326  0.29436  1.0000
  H   H29       1.0  0.5337100000000002  0.06830000000000001  0.28708  1.0000
  H   H30       1.0  0.87132  0.9801  0.52047  1.0000
  H   H31       1.0  0.81522  0.042020000000000016  0.53187  1.0000
  H   H32       1.0  0.01559000000000001  0.02245999999999998  0.53463  1.0000
  H   H33       1.0  0.04555999999999998  0.019469999999999998  0.46780000000000005  1.0000
  H   H34       1.0  0.9847000000000001  0.08243999999999996  0.47725  1.0000
  H   H35       1.0  0.3250699999999999  0.87608  0.7636600000000001  1.0000
  H   H36       1.0  0.1931299999999998  0.8709  0.8494900000000001  1.0000
  H   H37       1.0  0.44335  0.76839  0.94464  1.0000
  H   H38       1.0  0.5750600000000001  0.77459  0.8594900000000001  1.0000
  H   H39       1.0  0.44124  0.8218799999999999  0.7070400000000002  1.0000
  H   H40       1.0  0.6630700000000002  0.8457799999999995  0.7905000000000002  1.0000
  H   H41       1.0  0.5793599999999998  0.8366  0.62343  1.0000
  H   H42       1.0  0.8448399999999996  0.78551  0.8079200000000001  1.0000
  H   H43       1.0  0.8800200000000001  0.7998799999999999  0.8886300000000003  1.0000
  H   H44       1.0  0.91787  0.9660699999999997  0.7901800000000001  1.0000
  H   H45       1.0  0.8784399999999998  0.95291  0.7094100000000001  1.0000
  H   H46       1.0  0.9882900000000001  0.8780899999999998  0.6588  1.0000
  H   H47       1.0  0.12318000000000001  0.59468  0.4535600000000001  1.0000
  H   H48       1.0  0.0603800000000001  0.6648399999999998  0.49695  1.0000
  H   H49       1.0  0.7576499999999998  0.70959  0.43344  1.0000
  H   H50       1.0  0.82344  0.64104  0.38797  1.0000
  H   H51       1.0  0.9468700000000003  0.6943699999999998  0.5618  1.0000
  H   H52       1.0  0.8820500000000001  0.7678999999999999  0.60009  1.0000
  H   H53       1.0  0.78234  0.7914699999999998  0.42374000000000006  1.0000
  H   H54       1.0  0.6222700000000002  0.95888  0.4537200000000001  1.0000
  H   H55       1.0  0.57534  0.81648  0.44156000000000006  1.0000
  H   H56       1.0  0.72553  0.96155  0.35847000000000007  1.0000
  H   H57       1.0  0.49101999999999996  0.83737  0.35972000000000004  1.0000
  H   H58       1.0  0.6479799999999999  0.98001  0.27519  1.0000
  H   H59       1.0  0.10886000000000004  0.88726  0.52041  1.0000
  H   H60       1.0  0.08658000000000003  0.89759  0.58346  1.0000
  H   H61       1.0  0.21054000000000014  0.8077399999999998  0.5888800000000001  1.0000
  H   H62       1.0  0.08531000000000012  0.7943099999999998  0.63358  1.0000
  H   H63       1.0  0.11012999999999995  0.7868599999999999  0.5687200000000001  1.0000
  H   H64       1.0  0.6252800000000001  0.02035999999999998  0.47990000000000005  1.0000
  H   H65       1.0  0.6073900000000001  0.03199999999999995  0.54173  1.0000
  H   H66       1.0  0.42435  0.035260000000000014  0.52139  1.0000
  H   H67       1.0  0.46324  0.9683199999999998  0.5186  1.0000
  H   H68       1.0  0.4511799999999998  0.97788  0.58156  1.0000
  H   H69       1.0  0.46553000000000017  0.6234799999999998  0.73561  1.0000
  H   H70       1.0  0.41466  0.62887  0.64949  1.0000
  H   H71       1.0  0.65787  0.7317499999999999  0.55515  1.0000
  H   H72       1.0  0.7092300000000002  0.72582  0.64065  1.0000
  H   H73       1.0  0.47027000000000013  0.6777299999999998  0.7925000000000001  1.0000
  H   H74       1.0  0.7991500000000001  0.6544899999999999  0.7090200000000002  1.0000
  H   H75       1.0  0.5395900000000001  0.66359  0.87604  1.0000
  H   H76       1.0  0.9394299999999999  0.71373  0.69081  1.0000
  H   H77       1.0  0.07029000000000005  0.6980599999999998  0.6109100000000001  1.0000
  H   H78       1.0  0.17404000000000008  0.5327199999999997  0.71144  1.0000
  H   H79       1.0  0.04035999999999997  0.54706  0.79155  1.0000
  H   H80       1.0  0.024869999999999972  0.6219299999999999  0.8411600000000002  1.0000
  H   H81       1.0  0.67219  0.90559  0.04612  1.0000
  H   H82       1.0  0.7226700000000003  0.8354999999999998  0.0026200000000000004  1.0000
  H   H83       1.0  0.4011799999999999  0.7905  0.06592  1.0000
  H   H84       1.0  0.35320999999999997  0.85908  0.11135000000000002  1.0000
  H   H85       1.0  0.7032400000000001  0.8062599999999999  0.9375800000000001  1.0000
  H   H86       1.0  0.7497500000000001  0.7328299999999996  0.8990900000000001  1.0000
  H   H87       1.0  0.49811  0.70883  0.07558000000000001  1.0000
  H   H88       1.0  0.53614  0.5412  0.04592  1.0000
  H   H89       1.0  0.33483  0.68397  0.05900000000000001  1.0000
  H   H90       1.0  0.54758  0.5382  0.13982  1.0000
  H   H91       1.0  0.19152999999999998  0.66252  0.14162000000000002  1.0000
  H   H92       1.0  0.4072200000000001  0.51899  0.22373000000000004  1.0000
  H   H93       1.0  0.01432999999999999  0.61255  0.98021  1.0000
  H   H94       1.0  0.06619999999999986  0.60197  0.9173200000000001  1.0000
  H   H95       1.0  0.10688999999999996  0.69173  0.91153  1.0000
  H   H96       1.0  0.012489999999999939  0.7053699999999999  0.8669700000000002  1.0000
  H   H97       1.0  0.9658600000000002  0.71285  0.9318300000000002  1.0000
  H   H98       1.0  0.62685  0.47968  0.019930000000000003  1.0000
  H   H99       1.0  0.6827  0.46801  0.9581600000000001  1.0000
  H   H100      1.0  0.4825900000000002  0.4647800000000001  0.97807  1.0000
  H   H101      1.0  0.45209  0.5317  0.9809200000000001  1.0000
  H   H102      1.0  0.5127599999999999  0.5221799999999998  0.9179800000000002  1.0000
  H   H103      1.0  0.17521999999999996  0.23651999999999995  0.12395000000000003  1.0000
  H   H104      1.0  0.3071  0.15059  0.12943  1.0000
  H   H105      1.0  0.05588999999999998  0.05555999999999997  0.23120000000000004  1.0000
  H   H106      1.0  0.92445  0.1408399999999999  0.22512000000000004  1.0000
  H   H107      1.0  0.05881999999999999  0.29312  0.17792  1.0000
  H   H108      1.0  0.83722  0.20942  0.15408  1.0000
  H   H109      1.0  0.92035  0.37662  0.16348  1.0000
  H   H110      1.0  0.65476  0.19182  0.21446000000000004  1.0000
  H   H111      1.0  0.6191299999999998  0.11123999999999998  0.19991000000000006  1.0000
  H   H112      1.0  0.5821900000000001  0.20983  0.03381000000000001  1.0000
  H   H113      1.0  0.6217200000000002  0.29056  0.04710000000000002  1.0000
  H   H114      1.0  0.51183  0.34097  0.12187000000000002  1.0000
  H   H115      1.0  0.37764000000000003  0.5467  0.40549  1.0000
  H   H116      1.0  0.43924999999999986  0.50322  0.33539  1.0000
  H   H117      1.0  0.7429800000000001  0.5661499999999999  0.29007  1.0000
  H   H118      1.0  0.6783499999999999  0.6116600000000001  0.35858  1.0000
  H   H119      1.0  0.5528499999999998  0.43795999999999996  0.30577  1.0000
  H   H120      1.0  0.6178400000000001  0.39961  0.23228000000000004  1.0000
  H   H121      1.0  0.7170400000000002  0.5762599999999999  0.20842000000000005  1.0000
  H   H122      1.0  0.8757600000000001  0.54662  0.04074  1.0000
  H   H123      1.0  0.92345  0.55829  0.18363000000000002  1.0000
  H   H124      1.0  0.77505  0.64182  0.03812  1.0000
  H   H125      1.0  0.007550000000000102  0.6401699999999998  0.1633  1.0000
  H   H126      1.0  0.85284  0.72495  0.020170000000000004  1.0000
  H   H127      1.0  0.39186  0.47966  0.11265000000000001  1.0000
  H   H128      1.0  0.4137000000000001  0.41662  0.10232  1.0000
  H   H129      1.0  0.28986  0.41114999999999985  0.19218000000000002  1.0000
  H   H130      1.0  0.4150200000000001  0.3664699999999999  0.20558  1.0000
  H   H131      1.0  0.3902800000000001  0.43134  0.21302  1.0000
  H   H132      1.0  0.8734000000000001  0.5201199999999998  0.97937  1.0000
  H   H133      1.0  0.8909899999999997  0.4581599999999999  0.9679500000000002  1.0000
  H   H134      1.0  0.07427000000000004  0.4781299999999999  0.9652700000000002  1.0000
  H   H135      1.0  0.03428  0.48116  0.03209  1.0000
  H   H136      1.0  0.04612000000000006  0.4181299999999999  0.02267  1.0000
  C   C1        1.0  0.9069000000000002  0.30593  0.32617000000000007  1.0000
  C   C2        1.0  0.9924400000000001  0.3043799999999999  0.35195  1.0000
  C   C3        1.0  0.020960000000000013  0.35255999999999993  0.34886  1.0000
  C   C4        1.0  0.9657999999999999  0.40366  0.31870000000000004  1.0000
  C   C5        1.0  0.8826800000000001  0.40568  0.29144000000000003  1.0000
  C   C6        1.0  0.85389  0.3574  0.29539  1.0000
  C   C7        1.0  0.86853  0.25562  0.33272  1.0000
  C   C8        1.0  0.94171  0.20723000000000003  0.33084  1.0000
  C   C9        1.0  0.75698  0.25488999999999995  0.34208000000000005  1.0000
  C   C10       1.0  0.71438  0.20779  0.34984  1.0000
  C   C11       1.0  0.9030799999999999  0.16052  0.33857  1.0000
  C   C12       1.0  0.78899  0.15884999999999994  0.34877000000000014  1.0000
  C   C13       1.0  0.59946  0.20628999999999997  0.36165  1.0000
  C   C14       1.0  0.5191300000000002  0.2535999999999999  0.369  1.0000
  C   C15       1.0  0.50929  0.30496  0.3266  1.0000
  C   C16       1.0  0.4359199999999999  0.3491099999999999  0.33564000000000005  1.0000
  C   C17       1.0  0.37032999999999994  0.34274999999999994  0.38691  1.0000
  C   C18       1.0  0.37765  0.29131  0.42886  1.0000
  C   C19       1.0  0.45191  0.24729  0.42004000000000014  1.0000
  C   C20       1.0  0.5621599999999999  0.15893  0.36951  1.0000
  C   C21       1.0  0.6358000000000001  0.11114  0.36761000000000005  1.0000
  C   C22       1.0  0.7482100000000002  0.11027  0.35858  1.0000
  C   C23       1.0  0.88507  0.9494899999999997  0.11999000000000003  1.0000
  C   C24       1.0  0.9883800000000001  0.9176199999999998  0.11358  1.0000
  C   C25       1.0  0.8577200000000001  0.9739499999999999  0.15943  1.0000
  C   C26       1.0  0.9330400000000001  0.9673299999999998  0.19328000000000006  1.0000
  C   C27       1.0  0.037680000000000075  0.9369799999999999  0.18504000000000007  1.0000
  C   C28       1.0  0.06473000000000004  0.91211  0.14631  1.0000
  C   C29       1.0  0.90505  0.99077  0.23686000000000001  1.0000
  C   C30       1.0  0.8317699999999999  0.04086000000000001  0.2311  1.0000
  C   C31       1.0  0.80618  0.06255000000000001  0.2719  1.0000
  C   C32       1.0  0.9500300000000003  0.9640999999999997  0.28478  1.0000
  C   C33       1.0  0.9261400000000001  0.9854099999999998  0.3274  1.0000
  C   C34       1.0  0.85169  0.036000000000000004  0.32114  1.0000
  C   C35       1.0  0.82282  0.05768999999999995  0.36381000000000013  1.0000
  C   C36       1.0  0.8617  0.02764  0.41333  1.0000
  C   C37       1.0  0.9327800000000002  0.97728  0.42017000000000004  1.0000
  C   C38       1.0  0.9676999999999998  0.9568799999999998  0.3779800000000001  1.0000
  C   C39       1.0  0.04917999999999995  0.90614  0.38733  1.0000
  C   C40       1.0  0.1498300000000001  0.9049499999999998  0.35198  1.0000
  C   C41       1.0  0.02995000000000005  0.8595099999999999  0.4341100000000001  1.0000
  C   C42       1.0  0.23030000000000003  0.85885  0.36402000000000007  1.0000
  C   C43       1.0  0.10872000000000007  0.81271  0.4452  1.0000
  C   C44       1.0  0.21008000000000007  0.8123799999999999  0.41062  1.0000
  C   C45       1.0  0.4922000000000001  0.06361999999999998  0.37131  1.0000
  C   C46       1.0  0.47556999999999994  0.09018999999999994  0.31171000000000004  1.0000
  C   C47       1.0  0.87276  0.02431999999999999  0.50356  1.0000
  C   C48       1.0  0.9864400000000002  0.03794999999999995  0.49511000000000005  1.0000
  C   C49       1.0  0.29636  0.76403  0.42601  1.0000
  C   C50       1.0  0.018160000000000065  0.8880299999999998  0.07481  1.0000
  C   C51       1.0  0.9945199999999997  0.45476  0.31622  1.0000
  C   C52       1.0  0.28957000000000005  0.3897  0.39639  1.0000
  C   C53       1.0  0.46043999999999996  0.82631  0.80528  1.0000
  C   C54       1.0  0.35083999999999993  0.8520299999999997  0.8032000000000002  1.0000
  C   C55       1.0  0.2766500000000001  0.8493199999999999  0.8510700000000001  1.0000
  C   C56       1.0  0.30961999999999995  0.81939  0.90251  1.0000
  C   C57       1.0  0.41767  0.79196  0.90504  1.0000
  C   C58       1.0  0.49165000000000003  0.79578  0.85706  1.0000
  C   C59       1.0  0.54304  0.83278  0.75513  1.0000
  C   C60       1.0  0.5203399999999998  0.83081  0.7066700000000002  1.0000
  C   C61       1.0  0.6457900000000001  0.8424  0.75439  1.0000
  C   C62       1.0  0.7275899999999997  0.85034  0.7072500000000002  1.0000
  C   C63       1.0  0.5977100000000001  0.83881  0.65992  1.0000
  C   C64       1.0  0.70304  0.84933  0.65824  1.0000
  C   C65       1.0  0.8322900000000001  0.8620199999999998  0.7058500000000001  1.0000
  C   C66       1.0  0.85818  0.86853  0.75358  1.0000
  C   C67       1.0  0.8592699999999999  0.8252199999999998  0.8043000000000002  1.0000
  C   C68       1.0  0.8787400000000002  0.8331099999999998  0.8492400000000002  1.0000
  C   C69       1.0  0.8985900000000001  0.8841399999999998  0.84432  1.0000
  C   C70       1.0  0.9009700000000005  0.927  0.79344  1.0000
  C   C71       1.0  0.8802100000000002  0.9192699999999999  0.7486000000000002  1.0000
  C   C72       1.0  0.9091100000000001  0.86985  0.6586  1.0000
  C   C73       1.0  0.8852000000000001  0.868  0.61072  1.0000
  C   C74       1.0  0.78248  0.8592299999999998  0.60965  1.0000
  C   C75       1.0  0.04351000000000007  0.6202199999999998  0.44900000000000007  1.0000
  C   C76       1.0  0.97823  0.61401  0.41704  1.0000
  C   C77       1.0  0.007660000000000008  0.6597399999999999  0.47337  1.0000
  C   C78       1.0  0.90545  0.69377  0.46669  1.0000
  C   C79       1.0  0.8389600000000002  0.68555  0.43643  1.0000
  C   C80       1.0  0.8748600000000001  0.6468  0.41157000000000005  1.0000
  C   C81       1.0  0.8671600000000002  0.7374699999999998  0.49000000000000005  1.0000
  C   C82       1.0  0.89619  0.7318499999999999  0.54008  1.0000
  C   C83       1.0  0.8594300000000001  0.7727099999999999  0.56172  1.0000
  C   C84       1.0  0.8012399999999998  0.78543  0.46324000000000004  1.0000
  C   C85       1.0  0.7610800000000001  0.8280299999999999  0.48456  1.0000
  C   C86       1.0  0.7910700000000002  0.8218799999999999  0.5352  1.0000
  C   C87       1.0  0.7548999999999999  0.8644200000000001  0.55707  1.0000
  C   C88       1.0  0.6951  0.91361  0.52731  1.0000
  C   C89       1.0  0.6680399999999997  0.9204299999999999  0.47678  1.0000
  C   C90       1.0  0.6969800000000002  0.87842  0.45609  1.0000
  C   C91       1.0  0.6568000000000004  0.8874399999999998  0.40539000000000003  1.0000
  C   C92       1.0  0.592  0.8519399999999998  0.40488  1.0000
  C   C93       1.0  0.67609  0.93381  0.35831  1.0000
  C   C94       1.0  0.54501  0.86347  0.35905  1.0000
  C   C95       1.0  0.6321500000000001  0.9444699999999999  0.31179000000000007  1.0000
  C   C96       1.0  0.5649300000000003  0.9097699999999997  0.31221000000000004  1.0000
  C   C97       1.0  0.07302999999999994  0.8712099999999999  0.5638000000000001  1.0000
  C   C98       1.0  0.12220999999999997  0.81156  0.5905  1.0000
  C   C99       1.0  0.59582  0.0036399999999999775  0.5240300000000001  1.0000
  C   C100      1.0  0.47681  0.9955699999999998  0.53713  1.0000
  C   C101      1.0  0.50997  0.9246199999999999  0.26452  1.0000
  C   C102      1.0  0.016980000000000075  0.5758199999999998  0.38681  1.0000
  C   C103      1.0  0.23121000000000025  0.8176499999999999  0.95322  1.0000
  C   C104      1.0  0.92153  0.8918400000000001  0.89248  1.0000
  C   C105      1.0  0.5923800000000004  0.6736099999999999  0.6943300000000002  1.0000
  C   C106      1.0  0.5067899999999999  0.6477  0.6961400000000002  1.0000
  C   C107      1.0  0.47808  0.6505  0.6481200000000001  1.0000
  C   C108      1.0  0.5330799999999999  0.6805900000000001  0.59691  1.0000
  C   C109      1.0  0.6160300000000001  0.7081099999999998  0.5946700000000001  1.0000
  C   C110      1.0  0.6450999999999998  0.7043799999999999  0.6427700000000001  1.0000
  C   C111      1.0  0.6310200000000001  0.6671699999999998  0.7445100000000001  1.0000
  C   C112      1.0  0.5578499999999998  0.66912  0.7928700000000001  1.0000
  C   C113      1.0  0.7425799999999999  0.6577999999999998  0.74517  1.0000
  C   C114      1.0  0.7852200000000006  0.65002  0.79225  1.0000
  C   C115      1.0  0.5964700000000001  0.66141  0.83954  1.0000
  C   C116      1.0  0.71055  0.65111  0.8411700000000002  1.0000
  C   C117      1.0  0.90015  0.63819  0.79378  1.0000
  C   C118      1.0  0.98037  0.6311399999999998  0.7463000000000002  1.0000
  C   C119      1.0  0.98947  0.6738500000000001  0.69514  1.0000
  C   C120      1.0  0.06218000000000009  0.6653  0.65062  1.0000
  C   C121      1.0  0.12789000000000003  0.6141699999999995  0.6563600000000003  1.0000
  C   C122      1.0  0.12146999999999995  0.57188  0.7076200000000001  1.0000
  C   C123      1.0  0.04789000000000006  0.5802699999999997  0.7520500000000001  1.0000
  C   C124      1.0  0.93733  0.63036  0.84115  1.0000
  C   C125      1.0  0.8635299999999998  0.63224  0.88892  1.0000
  C   C126      1.0  0.7511600000000002  0.6412299999999999  0.8897600000000001  1.0000
  C   C127      1.0  0.61343  0.8800599999999998  0.05055000000000001  1.0000
  C   C128      1.0  0.51002  0.88616  0.08239  1.0000
  C   C129      1.0  0.6413  0.8406199999999998  0.0261  1.0000
  C   C130      1.0  0.5663500000000001  0.8066  0.03264  1.0000
  C   C131      1.0  0.4614300000000002  0.8146599999999999  0.06285000000000002  1.0000
  C   C132      1.0  0.43388  0.85336  0.08776000000000002  1.0000
  C   C133      1.0  0.5949500000000002  0.7629799999999998  0.00928  1.0000
  C   C134      1.0  0.6682599999999999  0.76874  0.9591900000000002  1.0000
  C   C135      1.0  0.6937400000000001  0.72795  0.93748  1.0000
  C   C136      1.0  0.55024  0.71497  0.03605  1.0000
  C   C137      1.0  0.5739  0.67242  0.014680000000000002  1.0000
  C   C138      1.0  0.6480600000000001  0.6787099999999998  0.9640100000000003  1.0000
  C   C139      1.0  0.67637  0.63607  0.94229  1.0000
  C   C140      1.0  0.6368699999999996  0.58663  0.97225  1.0000
  C   C141      1.0  0.5661200000000001  0.5797699999999999  0.022700000000000005  1.0000
  C   C142      1.0  0.53213  0.62189  0.0432  1.0000
  C   C143      1.0  0.4511400000000001  0.6126399999999999  0.09406  1.0000
  C   C144      1.0  0.35084000000000015  0.6481999999999998  0.09535  1.0000
  C   C145      1.0  0.4705  0.5658899999999998  0.14066  1.0000
  C   C146      1.0  0.2706399999999999  0.63633  0.14157  1.0000
  C   C147      1.0  0.3918399999999999  0.55484  0.18751000000000004  1.0000
  C   C148      1.0  0.2907700000000001  0.5895699999999998  0.18793  1.0000
  C   C149      1.0  0.006689999999999858  0.62853  0.9367000000000001  1.0000
  C   C150      1.0  0.02378999999999995  0.68808  0.91003  1.0000
  C   C151      1.0  0.62511  0.49637  0.97577  1.0000
  C   C152      1.0  0.5113499999999999  0.5044499999999998  0.9624400000000002  1.0000
  C   C153      1.0  0.20390000000000003  0.5741299999999998  0.23588  1.0000
  C   C154      1.0  0.48039999999999994  0.92433  0.11261  1.0000
  C   C155      1.0  0.5048800000000001  0.6829399999999998  0.54575  1.0000
  C   C156      1.0  0.20775000000000005  0.60545  0.60887  1.0000
  C   C157      1.0  0.039559999999999984  0.19488999999999995  0.17350000000000004  1.0000
  C   C158      1.0  0.14928  0.19695999999999997  0.14793000000000003  1.0000
  C   C159      1.0  0.22341  0.14905999999999994  0.15082  1.0000
  C   C160      1.0  0.18998000000000004  0.09767000000000002  0.18068  1.0000
  C   C161      1.0  0.08172000000000003  0.09517  0.20782  1.0000
  C   C162      1.0  0.00795  0.14317  0.20397  1.0000
  C   C163      1.0  0.95702  0.24499  0.16704  1.0000
  C   C164      1.0  0.97968  0.29343  0.16908  1.0000
  C   C165      1.0  0.8543  0.24556999999999998  0.15751000000000004  1.0000
  C   C166      1.0  0.7724000000000001  0.2926299999999999  0.14970000000000003  1.0000
  C   C167      1.0  0.9021900000000002  0.3400899999999999  0.16123  1.0000
  C   C168      1.0  0.79689  0.34163  0.15079  1.0000
  C   C169      1.0  0.66774  0.29398  0.13801  1.0000
  C   C170      1.0  0.6418299999999999  0.24628  0.13144  1.0000
  C   C171      1.0  0.6404500000000001  0.19553999999999996  0.17472000000000001  1.0000
  C   C172      1.0  0.62067  0.15067999999999998  0.16679000000000002  1.0000
  C   C173      1.0  0.601  0.15565999999999994  0.11575  1.0000
  C   C174      1.0  0.59894  0.20654  0.07290000000000002  1.0000
  C   C175      1.0  0.61983  0.25134  0.08069  1.0000
  C   C176      1.0  0.5909399999999999  0.34122  0.13015  1.0000
  C   C177      1.0  0.61489  0.38908  0.13201  1.0000
  C   C178      1.0  0.7174099999999998  0.39014  0.14093  1.0000
  C   C179      1.0  0.4572900000000001  0.55103  0.37985000000000013  1.0000
  C   C180      1.0  0.5232499999999999  0.58277  0.38593  1.0000
  C   C181      1.0  0.49251  0.5266299999999998  0.3403600000000001  1.0000
  C   C182      1.0  0.5946800000000001  0.53314  0.30622  1.0000
  C   C183      1.0  0.6617900000000001  0.56324  0.31427000000000005  1.0000
  C   C184      1.0  0.62652  0.58812  0.35301000000000005  1.0000
  C   C185      1.0  0.6325100000000001  0.50986  0.26252000000000003  1.0000
  C   C186      1.0  0.6034800000000002  0.4597099999999999  0.26825  1.0000
  C   C187      1.0  0.64041  0.43803  0.22744000000000006  1.0000
  C   C188      1.0  0.69831  0.5366899999999998  0.21451000000000003  1.0000
  C   C189      1.0  0.7385500000000002  0.51536  0.17194  1.0000
  C   C190      1.0  0.7087  0.46462  0.17824000000000007  1.0000
  C   C191      1.0  0.74468  0.4428  0.13568  1.0000
  C   C192      1.0  0.8035  0.47279999999999994  0.08627  1.0000
  C   C193      1.0  0.8305400000000001  0.52341  0.07933  1.0000
  C   C194      1.0  0.8023  0.54397  0.12143000000000001  1.0000
  C   C195      1.0  0.8427399999999999  0.59463  0.11247000000000001  1.0000
  C   C196      1.0  0.9071200000000001  0.59504  0.14819  1.0000
  C   C197      1.0  0.8240900000000002  0.6418099999999998  0.0661  1.0000
  C   C198      1.0  0.95392  0.64086  0.13703  1.0000
  C   C199      1.0  0.86806  0.68828  0.055730000000000016  1.0000
  C   C200      1.0  0.9345300000000002  0.68783  0.09075  1.0000
  C   C201      1.0  0.4274200000000001  0.43622999999999995  0.12869  1.0000
  C   C202      1.0  0.37818  0.40956  0.18834  1.0000
  C   C203      1.0  0.9023699999999998  0.4759499999999999  0.9962700000000002  1.0000
  C   C204      1.0  0.021099999999999976  0.4626  0.00477  1.0000
  C   C205      1.0  0.9898200000000001  0.7354  0.0762  1.0000
  C   C206      1.0  0.4849200000000001  0.6129799999999999  0.42413  1.0000
  C   C207      1.0  0.26789  0.04680999999999998  0.18271000000000007  1.0000
  C   C208      1.0  0.5782000000000002  0.10744  0.10803  1.0000
  O   O1        1.0  0.8255700000000001  0.049599999999999984  0.45357000000000003  1.0000
  O   O2        1.0  0.60257  0.06243999999999998  0.37766  1.0000
  O   O3        1.0  0.39642  0.76974  0.4024  1.0000
  O   O4        1.0  0.27027000000000007  0.7198999999999999  0.4627800000000001  1.0000
  O   O5        1.0  0.9477400000000001  0.50113  0.2844  1.0000
  O   O6        1.0  0.06320000000000013  0.4522799999999998  0.34496000000000004  1.0000
  O   O7        1.0  0.9526399999999999  0.8951499999999999  0.04224  1.0000
  O   O8        1.0  0.11082  0.85538  0.07718  1.0000
  O   O9        1.0  0.3068800000000001  0.43808  0.35977  1.0000
  O   O10       1.0  0.21122000000000005  0.38268  0.43461  1.0000
  O   O11       1.0  0.66685  0.9535199999999997  0.5497500000000001  1.0000
  O   O12       1.0  0.9576099999999999  0.87772  0.56231  1.0000
  O   O13       1.0  0.42958000000000013  0.8997999999999998  0.27029  1.0000
  O   O14       1.0  0.5394800000000002  0.9625199999999998  0.22041000000000005  1.0000
  O   O15       1.0  0.25938  0.78359  0.99979  1.0000
  O   O16       1.0  0.13981  0.84953  0.94977  1.0000
  O   O17       1.0  0.10604000000000004  0.54207  0.39511  1.0000
  O   O18       1.0  0.9568900000000001  0.57996  0.35242  1.0000
  O   O19       1.0  0.894  0.8542199999999998  0.94012  1.0000
  O   O20       1.0  0.9678900000000003  0.92988  0.88768  1.0000
  O   O21       1.0  0.6719699999999998  0.5465100000000002  0.95015  1.0000
  O   O22       1.0  0.8964299999999997  0.6222700000000001  0.93764  1.0000
  O   O23       1.0  0.10489  0.59968  0.23042  1.0000
  O   O24       1.0  0.22762  0.53531  0.27937  1.0000
  O   O25       1.0  0.5503900000000002  0.7156799999999999  0.49964  1.0000
  O   O26       1.0  0.43852999999999975  0.6532  0.5477600000000001  1.0000
  O   O27       1.0  0.5444800000000002  0.9577899999999998  0.10485  1.0000
  O   O28       1.0  0.38935999999999993  0.92028  0.14651  1.0000
  O   O29       1.0  0.19043999999999997  0.64258  0.56077  1.0000
  O   O30       1.0  0.2863  0.5672999999999999  0.6150000000000001  1.0000
  O   O31       1.0  0.83068  0.45051  0.04627  1.0000
  O   O32       1.0  0.5428800000000001  0.4376099999999999  0.12214000000000003  1.0000
  O   O33       1.0  0.06808  0.72978  0.10234  1.0000
  O   O34       1.0  0.9635800000000002  0.7793299999999999  0.03726  1.0000
  O   O35       1.0  0.23771999999999993  0.00027999999999999564  0.21572000000000002  1.0000
  O   O36       1.0  0.36078  0.04993  0.15224  1.0000
  O   O37       1.0  0.39575999999999995  0.60494  0.45777000000000007  1.0000
  O   O38       1.0  0.5456599999999998  0.64719  0.4199600000000001  1.0000
  O   O39       1.0  0.6037900000000002  0.06004000000000001  0.14647  1.0000
  O   O40       1.0  0.5343300000000001  0.11211999999999997  0.06933000000000002  1.0000
