data_image0
_chemical_formula_structural       Cu8H64C128O40
_chemical_formula_sum              "Cu8 H64 C128 O40"
_cell_length_a       21.65038
_cell_length_b       21.64706
_cell_length_c       32.5775
_cell_angle_alpha    109.17875
_cell_angle_beta     109.20099999999998
_cell_angle_gamma    90.14522

_space_group_name_H-M_alt    "P 1"
_space_group_IT_number       1

loop_
  _space_group_symop_operation_xyz
  'x, y, z'

loop_
  _atom_site_type_symbol
  _atom_site_label
  _atom_site_symmetry_multiplicity
  _atom_site_fract_x
  _atom_site_fract_y
  _atom_site_fract_z
  _atom_site_occupancy
  Cu  Cu1       1.0  0.8267  0.9051799999999998  0.7186899999999998  1.0000
  Cu  Cu2       1.0  0.89184  0.8130400000000001  0.7185499999999998  1.0000
  Cu  Cu3       1.0  0.65539  0.1428  0.21864999999999996  1.0000
  Cu  Cu4       1.0  0.56345  0.07721  0.21878  1.0000
  Cu  Cu5       1.0  0.9227999999999998  0.4365499999999999  0.7812199999999998  1.0000
  Cu  Cu6       1.0  0.85723  0.34458999999999995  0.7813499999999998  1.0000
  Cu  Cu7       1.0  0.09484  0.17331  0.28129  1.0000
  Cu  Cu8       1.0  0.18695999999999993  0.10815999999999996  0.28144999999999987  1.0000
  H   H1        1.0  0.59741  0.67606  0.54077  1.0000
  H   H2        1.0  0.6563299999999999  0.7547700000000002  0.6155199999999997  1.0000
  H   H3        1.0  0.7771500000000001  0.5033200000000001  0.68376  1.0000
  H   H4        1.0  0.72658  0.57534  0.6472899999999998  1.0000
  H   H5        1.0  0.54068  0.40347  0.53654  1.0000
  H   H6        1.0  0.62483  0.3801800000000001  0.59979  1.0000
  H   H7        1.0  0.6939499999999998  0.37495999999999985  0.6655699999999998  1.0000
  H   H8        1.0  0.74761  0.64807  0.62532  1.0000
  H   H9        1.0  0.9426600000000002  0.8653900000000001  0.54104  1.0000
  H   H10       1.0  0.95963  0.86097  0.61512  1.0000
  H   H11       1.0  0.9064400000000001  0.18027999999999988  0.6840499999999998  1.0000
  H   H12       1.0  0.92029  0.07228999999999991  0.6477199999999997  1.0000
  H   H13       1.0  0.9960900000000001  0.13341999999999993  0.5364499999999998  1.0000
  H   H14       1.0  0.9751200000000002  0.21982999999999991  0.5997799999999998  1.0000
  H   H15       1.0  0.9715500000000001  0.29036  0.66567  1.0000
  H   H16       1.0  0.878  0.9773299999999999  0.6261999999999998  1.0000
  H   H17       1.0  0.42579000000000006  0.19213  0.0398  1.0000
  H   H18       1.0  0.505  0.20930000000000007  0.11507  1.0000
  H   H19       1.0  0.25342  0.15682  0.18391999999999994  1.0000
  H   H20       1.0  0.32548999999999995  0.17050000000000004  0.14718999999999996  1.0000
  H   H21       1.0  0.15385  0.24558  0.0359  1.0000
  H   H22       1.0  0.13069999999999998  0.22513  0.09963999999999998  1.0000
  H   H23       1.0  0.12527999999999995  0.22172  0.16541999999999996  1.0000
  H   H24       1.0  0.39814000000000005  0.12822  0.12557  1.0000
  H   H25       1.0  0.61554  0.84881  0.04065  1.0000
  H   H26       1.0  0.61088  0.9065600000000001  0.11557999999999997  1.0000
  H   H27       1.0  0.9301600000000001  0.027559999999999977  0.18386999999999995  1.0000
  H   H28       1.0  0.8226400000000001  0.9774  0.14761  1.0000
  H   H29       1.0  0.88353  0.7906500000000002  0.03701  1.0000
  H   H30       1.0  0.97011  0.87522  0.09999999999999998  1.0000
  H   H31       1.0  0.04069999999999997  0.9450200000000002  0.16597999999999993  1.0000
  H   H32       1.0  0.7281000000000001  0.99792  0.12603  1.0000
  H   H33       1.0  0.15113999999999986  0.3844499999999999  0.9593299999999998  1.0000
  H   H34       1.0  0.09345999999999989  0.3891299999999998  0.8844299999999998  1.0000
  H   H35       1.0  0.9724899999999999  0.06987999999999985  0.8160799999999998  1.0000
  H   H36       1.0  0.022569999999999906  0.17736999999999992  0.8523899999999998  1.0000
  H   H37       1.0  0.20936999999999992  0.11645999999999994  0.9629999999999997  1.0000
  H   H38       1.0  0.12482999999999995  0.02985999999999989  0.8999999999999998  1.0000
  H   H39       1.0  0.05495999999999986  0.9593100000000001  0.8340899999999998  1.0000
  H   H40       1.0  0.0020399999999998917  0.2719199999999999  0.8739499999999998  1.0000
  H   H41       1.0  0.8078500000000001  0.5741700000000001  0.96023  1.0000
  H   H42       1.0  0.79072  0.49495  0.88491  1.0000
  H   H43       1.0  0.84326  0.7466400000000001  0.81614  1.0000
  H   H44       1.0  0.8294700000000002  0.67452  0.85284  1.0000
  H   H45       1.0  0.7544300000000002  0.8461599999999998  0.9640799999999998  1.0000
  H   H46       1.0  0.77491  0.86931  0.90035  1.0000
  H   H47       1.0  0.7782100000000001  0.8746900000000001  0.83449  1.0000
  H   H48       1.0  0.87178  0.60192  0.87448  1.0000
  H   H49       1.0  0.324  0.40252  0.4591999999999999  1.0000
  H   H50       1.0  0.24524  0.34365000000000007  0.38448  1.0000
  H   H51       1.0  0.49662000000000006  0.22291000000000002  0.31623  1.0000
  H   H52       1.0  0.42466000000000004  0.2734  0.35271  1.0000
  H   H53       1.0  0.59654  0.45932  0.46345  1.0000
  H   H54       1.0  0.61983  0.37520000000000003  0.40022  1.0000
  H   H55       1.0  0.62507  0.30601  0.33446  1.0000
  H   H56       1.0  0.35191  0.25236  0.3746599999999999  1.0000
  H   H57       1.0  0.13463999999999995  0.05732999999999996  0.4589899999999999  1.0000
  H   H58       1.0  0.13900999999999994  0.040349999999999935  0.38490999999999986  1.0000
  H   H59       1.0  0.8196800000000002  0.09348000000000001  0.31587  1.0000
  H   H60       1.0  0.9277  0.07971999999999996  0.3522699999999999  1.0000
  H   H61       1.0  0.86665  0.0039099999999999534  0.46356999999999987  1.0000
  H   H62       1.0  0.7802200000000001  0.024870000000000034  0.40022  1.0000
  H   H63       1.0  0.7096399999999999  0.02854999999999997  0.3343999999999999  1.0000
  H   H64       1.0  0.022659999999999972  0.12198000000000002  0.37378  1.0000
  C   C1        1.0  0.79178  0.40771000000000013  0.71824  1.0000
  C   C2        1.0  0.6435999999999998  0.61686  0.5809099999999998  1.0000
  C   C3        1.0  0.59477  0.6293800000000002  0.5463399999999999  1.0000
  C   C4        1.0  0.53886  0.5809500000000001  0.51323  1.0000
  C   C5        1.0  0.53648  0.51587  0.51766  1.0000
  C   C6        1.0  0.5852  0.50292  0.55406  1.0000
  C   C7        1.0  0.6393099999999999  0.55279  0.5861899999999998  1.0000
  C   C8        1.0  0.76093  0.7772100000000001  0.65768  1.0000
  C   C9        1.0  0.70074  0.7316799999999999  0.62545  1.0000
  C   C10       1.0  0.7341999999999999  0.4658699999999999  0.6655099999999998  1.0000
  C   C11       1.0  0.6860100000000001  0.53812  0.62208  1.0000
  C   C12       1.0  0.68243  0.47670000000000007  0.62785  1.0000
  C   C13       1.0  0.58181  0.44089999999999996  0.5604899999999998  1.0000
  C   C14       1.0  0.6286399999999999  0.42805000000000004  0.5961099999999998  1.0000
  C   C15       1.0  0.7348599999999998  0.41412999999999983  0.6802799999999998  1.0000
  C   C16       1.0  0.70081  0.6658000000000001  0.6117699999999998  1.0000
  C   C17       1.0  0.9251400000000001  0.31037999999999993  0.7179199999999998  1.0000
  C   C18       1.0  0.9370099999999999  0.9646399999999999  0.5811299999999998  1.0000
  C   C19       1.0  0.95112  0.9175000000000001  0.54648  1.0000
  C   C20       1.0  0.97418  0.9327899999999998  0.5133299999999997  1.0000
  C   C21       1.0  0.98093  0.002249999999999862  0.5177999999999998  1.0000
  C   C22       1.0  0.9687300000000001  0.05163999999999994  0.5542099999999999  1.0000
  C   C23       1.0  0.94664  0.03392999999999996  0.5864799999999999  1.0000
  C   C24       1.0  0.8975900000000001  0.8797800000000002  0.6578399999999998  1.0000
  C   C25       1.0  0.9252000000000002  0.8937000000000003  0.62549  1.0000
  C   C26       1.0  0.9312599999999999  0.19965999999999987  0.6658099999999998  1.0000
  C   C27       1.0  0.9358500000000001  0.08430999999999991  0.6224299999999998  1.0000
  C   C28       1.0  0.94548  0.15139  0.62811  1.0000
  C   C29       1.0  0.97875  0.11997999999999996  0.56051  1.0000
  C   C30       1.0  0.9675600000000001  0.16833999999999993  0.5961799999999999  1.0000
  C   C31       1.0  0.94508  0.26602  0.6804  1.0000
  C   C32       1.0  0.9110100000000002  0.9462300000000001  0.61217  1.0000
  C   C33       1.0  0.15731  0.17583  0.21784  1.0000
  C   C34       1.0  0.36698  0.18714000000000003  0.08049999999999997  1.0000
  C   C35       1.0  0.3791800000000001  0.20053  0.04537  1.0000
  C   C36       1.0  0.33063  0.22289000000000003  0.011949999999999997  1.0000
  C   C37       1.0  0.26596  0.23029000000000005  0.01685  1.0000
  C   C38       1.0  0.25344  0.21925000000000003  0.053869999999999994  1.0000
  C   C39       1.0  0.30319  0.1971  0.08605999999999997  1.0000
  C   C40       1.0  0.52749  0.14743  0.15773999999999994  1.0000
  C   C41       1.0  0.48186  0.17503000000000005  0.12529  1.0000
  C   C42       1.0  0.21616  0.18155  0.16555  1.0000
  C   C43       1.0  0.28846  0.18620000000000003  0.12201999999999998  1.0000
  C   C44       1.0  0.22716000000000003  0.1958  0.12787  1.0000
  C   C45       1.0  0.19137  0.22895  0.06022  1.0000
  C   C46       1.0  0.17855999999999997  0.21781000000000006  0.09598999999999998  1.0000
  C   C47       1.0  0.16425  0.19540000000000002  0.18011  1.0000
  C   C48       1.0  0.41595  0.16118  0.11167999999999999  1.0000
  C   C49       1.0  0.060389999999999965  0.042959999999999984  0.21830999999999995  1.0000
  C   C50       1.0  0.71481  0.8939900000000002  0.08142  1.0000
  C   C51       1.0  0.66769  0.8456400000000001  0.046369999999999995  1.0000
  C   C52       1.0  0.68322  0.78966  0.01336  1.0000
  C   C53       1.0  0.7527200000000001  0.78671  0.018519999999999995  1.0000
  C   C54       1.0  0.80198  0.83484  0.05517  1.0000
  C   C55       1.0  0.78416  0.8893800000000001  0.08705999999999998  1.0000
  C   C56       1.0  0.63047  0.011269999999999974  0.15792999999999993  1.0000
  C   C57       1.0  0.64402  0.9510900000000002  0.12576  1.0000
  C   C58       1.0  0.94979  0.98479  0.16583999999999996  1.0000
  C   C59       1.0  0.83462  0.9363300000000001  0.12266  1.0000
  C   C60       1.0  0.9017  0.9326300000000006  0.12833  1.0000
  C   C61       1.0  0.87031  0.8316200000000002  0.06128  1.0000
  C   C62       1.0  0.91866  0.8787100000000001  0.09662  1.0000
  C   C63       1.0  0.01617999999999998  0.9858500000000001  0.18060999999999994  1.0000
  C   C64       1.0  0.6965500000000001  0.95119  0.11226  1.0000
  C   C65       1.0  0.95706  0.9396100000000001  0.7816799999999998  1.0000
  C   C66       1.0  0.10597999999999994  0.28518  0.91858  1.0000
  C   C67       1.0  0.15432999999999986  0.33229999999999993  0.9536199999999998  1.0000
  C   C68       1.0  0.2103199999999999  0.31672999999999996  0.9866199999999998  1.0000
  C   C69       1.0  0.21324999999999988  0.24723  0.9814699999999997  1.0000
  C   C70       1.0  0.16514999999999985  0.1979899999999999  0.9448199999999998  1.0000
  C   C71       1.0  0.11059999999999995  0.2158199999999999  0.9129199999999997  1.0000
  C   C72       1.0  0.9887500000000001  0.3695499999999999  0.8420699999999998  1.0000
  C   C73       1.0  0.04891999999999992  0.35600000000000004  0.8742399999999999  1.0000
  C   C74       1.0  0.015219999999999987  0.050229999999999976  0.83415  1.0000
  C   C75       1.0  0.06364999999999991  0.16537999999999992  0.8773399999999998  1.0000
  C   C76       1.0  0.06736000000000007  0.09827999999999999  0.87166  1.0000
  C   C77       1.0  0.16837999999999986  0.1296599999999999  0.9387199999999998  1.0000
  C   C78       1.0  0.12130999999999988  0.08130999999999992  0.9033699999999998  1.0000
  C   C79       1.0  0.014139999999999814  0.9838100000000001  0.8194099999999997  1.0000
  C   C80       1.0  0.04878999999999993  0.3034500000000001  0.88773  1.0000
  C   C81       1.0  0.82419  0.8427  0.7821499999999998  1.0000
  C   C82       1.0  0.81286  0.633  0.91951  1.0000
  C   C83       1.0  0.79947  0.6207699999999999  0.9546399999999998  1.0000
  C   C84       1.0  0.7770999999999999  0.66929  0.9880499999999998  1.0000
  C   C85       1.0  0.76969  0.7339899999999999  0.9831599999999998  1.0000
  C   C86       1.0  0.7807499999999999  0.74654  0.9461399999999999  1.0000
  C   C87       1.0  0.8028899999999999  0.69681  0.9139599999999998  1.0000
  C   C88       1.0  0.85259  0.4725100000000001  0.84225  1.0000
  C   C89       1.0  0.82499  0.51813  0.8747  1.0000
  C   C90       1.0  0.8184699999999998  0.7838699999999998  0.8344599999999998  1.0000
  C   C91       1.0  0.81379  0.71155  0.87799  1.0000
  C   C92       1.0  0.8042099999999999  0.7728500000000001  0.8721399999999998  1.0000
  C   C93       1.0  0.77106  0.8086299999999998  0.9397799999999997  1.0000
  C   C94       1.0  0.78221  0.8214500000000001  0.9040099999999998  1.0000
  C   C95       1.0  0.80457  0.83573  0.81984  1.0000
  C   C96       1.0  0.8388299999999999  0.5840400000000001  0.8883399999999998  1.0000
  C   C97       1.0  0.59226  0.2082  0.28178  1.0000
  C   C98       1.0  0.38317  0.35637  0.41906  1.0000
  C   C99       1.0  0.37066000000000004  0.40519  0.45362999999999987  1.0000
  C   C100      1.0  0.4190799999999999  0.4611299999999999  0.48670999999999986  1.0000
  C   C101      1.0  0.48414999999999997  0.46352000000000004  0.4822799999999999  1.0000
  C   C102      1.0  0.49708999999999987  0.41480000000000006  0.44590999999999986  1.0000
  C   C103      1.0  0.44723  0.36067000000000005  0.41377999999999987  1.0000
  C   C104      1.0  0.22279  0.23907000000000003  0.34231  1.0000
  C   C105      1.0  0.26833  0.29925  0.37454  1.0000
  C   C106      1.0  0.53412  0.26581999999999995  0.3344899999999999  1.0000
  C   C107      1.0  0.4618900000000001  0.3139799999999999  0.3779099999999999  1.0000
  C   C108      1.0  0.5233  0.31757  0.37214  1.0000
  C   C109      1.0  0.55911  0.41819000000000006  0.4394899999999999  1.0000
  C   C110      1.0  0.57196  0.37137000000000003  0.40389  1.0000
  C   C111      1.0  0.58587  0.26512  0.3197399999999999  1.0000
  C   C112      1.0  0.33421  0.29917  0.38821  1.0000
  C   C113      1.0  0.6896199999999999  0.07488000000000002  0.28209  1.0000
  C   C114      1.0  0.03538999999999997  0.06299999999999994  0.41887999999999986  1.0000
  C   C115      1.0  0.08253000000000002  0.04888999999999999  0.45355  1.0000
  C   C116      1.0  0.06727000000000001  0.025849999999999953  0.48671999999999993  1.0000
  C   C117      1.0  0.9978200000000002  0.01912999999999992  0.4822599999999999  1.0000
  C   C118      1.0  0.94842  0.03129999999999998  0.4458199999999999  1.0000
  C   C119      1.0  0.9661  0.05337999999999997  0.4135399999999999  1.0000
  C   C120      1.0  0.1202  0.10239  0.34216  1.0000
  C   C121      1.0  0.10628000000000001  0.07477999999999999  0.3745  1.0000
  C   C122      1.0  0.8003500000000001  0.06872000000000003  0.33418  1.0000
  C   C123      1.0  0.91571  0.06416  0.37758  1.0000
  C   C124      1.0  0.84862  0.054529999999999954  0.3718799999999999  1.0000
  C   C125      1.0  0.8800800000000001  0.02125999999999993  0.4395099999999999  1.0000
  C   C126      1.0  0.8317000000000001  0.03244  0.40382999999999997  1.0000
  C   C127      1.0  0.73398  0.05497  0.31962999999999997  1.0000
  C   C128      1.0  0.05376999999999995  0.08897999999999999  0.3878199999999999  1.0000
  O   O1        1.0  0.75262  0.83812  0.67276  1.0000
  O   O2        1.0  0.84326  0.4500899999999999  0.7352299999999998  1.0000
  O   O3        1.0  0.7845700000000001  0.35879  0.73103  1.0000
  O   O4        1.0  0.81559  0.75312  0.66874  1.0000
  O   O5        1.0  0.49669  0.5934  0.48081  1.0000
  O   O6        1.0  0.9216000000000001  0.83405  0.6729799999999998  1.0000
  O   O7        1.0  0.8908400000000001  0.28489000000000003  0.7351299999999998  1.0000
  O   O8        1.0  0.94395  0.37210999999999983  0.7299399999999998  1.0000
  O   O9        1.0  0.8536  0.91441  0.66875  1.0000
  O   O10       1.0  0.98426  0.88822  0.48087  1.0000
  O   O11       1.0  0.58829  0.17136000000000004  0.17281  1.0000
  O   O12       1.0  0.20006999999999997  0.14198000000000002  0.23520999999999995  1.0000
  O   O13       1.0  0.10761  0.19447000000000003  0.22992  1.0000
  O   O14       1.0  0.50343  0.10354000000000001  0.16883  1.0000
  O   O15       1.0  0.34297999999999995  0.23317999999999983  0.9794899999999997  1.0000
  O   O16       1.0  0.58424  0.0028999999999999677  0.17288999999999993  1.0000
  O   O17       1.0  0.03456999999999999  0.09391  0.23554999999999995  1.0000
  O   O18       1.0  0.1221  0.036560000000000016  0.23052  1.0000
  O   O19       1.0  0.66568  0.06593  0.169  1.0000
  O   O20       1.0  0.6390199999999999  0.7469799999999999  0.9808099999999997  1.0000
  O   O21       1.0  0.99711  0.41578000000000004  0.8271  1.0000
  O   O22       1.0  0.9061000000000001  0.96544  0.76444  1.0000
  O   O23       1.0  0.9634900000000002  0.8779099999999999  0.7694399999999998  1.0000
  O   O24       1.0  0.9340999999999999  0.33433999999999997  0.8310099999999998  1.0000
  O   O25       1.0  0.25303  0.36087  0.01918  1.0000
  O   O26       1.0  0.82867  0.41171  0.82718  1.0000
  O   O27       1.0  0.85806  0.7999699999999998  0.7647999999999998  1.0000
  O   O28       1.0  0.80559  0.8924400000000001  0.7700799999999998  1.0000
  O   O29       1.0  0.8964800000000002  0.49658  0.8311699999999997  1.0000
  O   O30       1.0  0.7668100000000002  0.6568500000000002  0.02047  1.0000
  O   O31       1.0  0.16188999999999998  0.24737999999999993  0.3272299999999999  1.0000
  O   O32       1.0  0.54989  0.15672  0.26479  1.0000
  O   O33       1.0  0.6411700000000001  0.21542000000000003  0.26898  1.0000
  O   O34       1.0  0.24686999999999998  0.18441  0.3312599999999999  1.0000
  O   O35       1.0  0.40661  0.50331  0.5191  1.0000
  O   O36       1.0  0.16592999999999994  0.07838999999999995  0.32701999999999987  1.0000
  O   O37       1.0  0.71509  0.10918000000000001  0.26487999999999995  1.0000
  O   O38       1.0  0.6278900000000001  0.05601999999999994  0.2700399999999999  1.0000
  O   O39       1.0  0.08559000000000003  0.14641  0.33125  1.0000
  O   O40       1.0  0.11186999999999993  0.01575999999999995  0.5191699999999999  1.0000
