data_image0
_chemical_formula_structural       Zn8H112C144N16O32
_chemical_formula_sum              "Zn8 H112 C144 N16 O32"
_cell_length_a       13.73388
_cell_length_b       14.0087
_cell_length_c       21.53456
_cell_angle_alpha    89.76854
_cell_angle_beta     89.96981
_cell_angle_gamma    90.23407999999999

_space_group_name_H-M_alt    "P 1"
_space_group_IT_number       1

loop_
  _space_group_symop_operation_xyz
  'x, y, z'

loop_
  _atom_site_type_symbol
  _atom_site_label
  _atom_site_symmetry_multiplicity
  _atom_site_fract_x
  _atom_site_fract_y
  _atom_site_fract_z
  _atom_site_occupancy
  Zn  Zn1       1.0  0.53114  0.10224  0.94249  1.0000
  Zn  Zn2       1.0  0.46945  0.60208  0.55743  1.0000
  Zn  Zn3       1.0  0.46886000000000005  0.89775  0.057510000000000006  1.0000
  Zn  Zn4       1.0  0.53055  0.39792  0.44257  1.0000
  Zn  Zn5       1.0  0.9689500000000001  0.8976  0.4426300000000001  1.0000
  Zn  Zn6       1.0  0.03072  0.3979099999999999  0.057260000000000005  1.0000
  Zn  Zn7       1.0  0.03105  0.10239  0.55737  1.0000
  Zn  Zn8       1.0  0.96928  0.60209  0.9427500000000001  1.0000
  H   H1        1.0  0.49587  0.38755  0.82262  1.0000
  H   H2        1.0  0.53615  0.21115999999999993  0.74236  1.0000
  H   H3        1.0  0.49033  0.42291  0.7057  1.0000
  H   H4        1.0  0.54898  0.24691  0.62884  1.0000
  H   H5        1.0  0.36423000000000005  0.031789999999999985  0.86466  1.0000
  H   H6        1.0  0.18316  0.025569999999999992  0.86316  1.0000
  H   H7        1.0  0.18631  0.17375  0.0388  1.0000
  H   H8        1.0  0.36825  0.17311  0.03271  1.0000
  H   H9        1.0  0.03787  0.13979  0.9986600000000001  1.0000
  H   H10       1.0  0.02055  0.030469999999999997  0.8749000000000001  1.0000
  H   H11       1.0  0.71334  0.15248999999999996  0.02308  1.0000
  H   H12       1.0  0.8938200000000001  0.14244  0.01654  1.0000
  H   H13       1.0  0.85612  0.010610000000000001  0.83646  1.0000
  H   H14       1.0  0.6763400000000002  0.02984  0.85087  1.0000
  H   H15       1.0  0.50313  0.8849699999999999  0.67596  1.0000
  H   H16       1.0  0.4629  0.71037  0.75929  1.0000
  H   H17       1.0  0.50916  0.92339  0.7923500000000001  1.0000
  H   H18       1.0  0.44962  0.7493299999999998  0.8719300000000001  1.0000
  H   H19       1.0  0.63669  0.53009  0.6364  1.0000
  H   H20       1.0  0.81775  0.52421  0.6374600000000001  1.0000
  H   H21       1.0  0.8146099999999998  0.67437  0.46174000000000004  1.0000
  H   H22       1.0  0.63276  0.6739099999999999  0.46848  1.0000
  H   H23       1.0  0.9630700000000001  0.6394199999999998  0.50121  1.0000
  H   H24       1.0  0.98015  0.53047  0.62564  1.0000
  H   H25       1.0  0.28861  0.6522  0.47693  1.0000
  H   H26       1.0  0.10794  0.64244  0.48331  1.0000
  H   H27       1.0  0.14391  0.51018  0.66401  1.0000
  H   H28       1.0  0.32399000000000006  0.52875  0.64958  1.0000
  H   H29       1.0  0.50413  0.61245  0.17739  1.0000
  H   H30       1.0  0.46386  0.7888399999999999  0.25764  1.0000
  H   H31       1.0  0.50967  0.57709  0.2943  1.0000
  H   H32       1.0  0.45102  0.7530899999999998  0.37116  1.0000
  H   H33       1.0  0.63577  0.9682  0.13534  1.0000
  H   H34       1.0  0.8168400000000001  0.97443  0.13684  1.0000
  H   H35       1.0  0.81369  0.8262399999999999  0.9612000000000002  1.0000
  H   H36       1.0  0.63175  0.8268799999999997  0.9672900000000001  1.0000
  H   H37       1.0  0.96214  0.8602  0.00134  1.0000
  H   H38       1.0  0.97945  0.96952  0.1251  1.0000
  H   H39       1.0  0.28666  0.8475099999999999  0.97692  1.0000
  H   H40       1.0  0.10618  0.8575499999999998  0.9834600000000001  1.0000
  H   H41       1.0  0.14388  0.9893799999999999  0.16354  1.0000
  H   H42       1.0  0.32366000000000006  0.97016  0.14913  1.0000
  H   H43       1.0  0.49687  0.11502999999999998  0.32404  1.0000
  H   H44       1.0  0.53711  0.28963  0.24071  1.0000
  H   H45       1.0  0.49085  0.07660999999999998  0.20765  1.0000
  H   H46       1.0  0.55038  0.25067  0.12807  1.0000
  H   H47       1.0  0.36331  0.4699099999999999  0.36361  1.0000
  H   H48       1.0  0.18226  0.47578999999999994  0.36254  1.0000
  H   H49       1.0  0.18539000000000003  0.32561999999999997  0.53826  1.0000
  H   H50       1.0  0.36724  0.32607999999999987  0.53153  1.0000
  H   H51       1.0  0.03693  0.36057  0.49879000000000007  1.0000
  H   H52       1.0  0.019850000000000003  0.46951999999999994  0.3743600000000001  1.0000
  H   H53       1.0  0.71139  0.34779999999999994  0.5230700000000001  1.0000
  H   H54       1.0  0.89206  0.3575499999999999  0.5166900000000001  1.0000
  H   H55       1.0  0.85609  0.48981  0.33599  1.0000
  H   H56       1.0  0.67601  0.47124  0.3504300000000001  1.0000
  H   H57       1.0  0.00314  0.61438  0.32478  1.0000
  H   H58       1.0  0.9639600000000002  0.7885799999999997  0.24138000000000004  1.0000
  H   H59       1.0  0.00919  0.57586  0.20769  1.0000
  H   H60       1.0  0.95178  0.7507  0.12855  1.0000
  H   H61       1.0  0.13601  0.96882  0.36398  1.0000
  H   H62       1.0  0.31711  0.9753199999999999  0.3629  1.0000
  H   H63       1.0  0.31294000000000005  0.8260999999999998  0.53897  1.0000
  H   H64       1.0  0.13115  0.82612  0.53229  1.0000
  H   H65       1.0  0.46182  0.86032  0.4988600000000001  1.0000
  H   H66       1.0  0.4792  0.97031  0.37476  1.0000
  H   H67       1.0  0.78669  0.84691  0.52267  1.0000
  H   H68       1.0  0.6062000000000001  0.85732  0.51644  1.0000
  H   H69       1.0  0.64364  0.98965  0.33576  1.0000
  H   H70       1.0  0.82343  0.96989  0.34986  1.0000
  H   H71       1.0  0.99628  0.11435999999999999  0.17603000000000002  1.0000
  H   H72       1.0  0.03662  0.28934  0.25792  1.0000
  H   H73       1.0  0.99013  0.07657  0.29293  1.0000
  H   H74       1.0  0.05047000000000001  0.25179  0.37058  1.0000
  H   H75       1.0  0.86347  0.4682399999999999  0.13587  1.0000
  H   H76       1.0  0.6824  0.47428999999999993  0.13711  1.0000
  H   H77       1.0  0.68527  0.32591000000000003  0.96157  1.0000
  H   H78       1.0  0.8672400000000001  0.32649  0.9679800000000001  1.0000
  H   H79       1.0  0.53699  0.3606199999999999  0.00115  1.0000
  H   H80       1.0  0.51972  0.46937999999999996  0.12507  1.0000
  H   H81       1.0  0.21217  0.34783  0.9763600000000001  1.0000
  H   H82       1.0  0.39281  0.35761  0.98308  1.0000
  H   H83       1.0  0.35563  0.48907  0.16325  1.0000
  H   H84       1.0  0.17566  0.47018  0.14858  1.0000
  H   H85       1.0  0.99686  0.38562  0.67522  1.0000
  H   H86       1.0  0.03604  0.21141999999999994  0.75863  1.0000
  H   H87       1.0  0.99081  0.42413  0.79231  1.0000
  H   H88       1.0  0.04823  0.24929999999999994  0.87145  1.0000
  H   H89       1.0  0.8639900000000001  0.03117  0.63602  1.0000
  H   H90       1.0  0.68289  0.024679999999999994  0.6371  1.0000
  H   H91       1.0  0.68706  0.17389  0.46103000000000005  1.0000
  H   H92       1.0  0.86885  0.17388  0.4677100000000001  1.0000
  H   H93       1.0  0.53818  0.13966999999999993  0.50114  1.0000
  H   H94       1.0  0.5208  0.02969  0.62524  1.0000
  H   H95       1.0  0.21331  0.15309  0.47733000000000003  1.0000
  H   H96       1.0  0.3938  0.14268  0.48356  1.0000
  H   H97       1.0  0.35637  0.010349999999999996  0.66425  1.0000
  H   H98       1.0  0.17657  0.03011  0.65014  1.0000
  H   H99       1.0  0.00372  0.88563  0.8239800000000002  1.0000
  H   H100      1.0  0.96338  0.71065  0.74208  1.0000
  H   H101      1.0  0.00987  0.92342  0.70707  1.0000
  H   H102      1.0  0.94953  0.7482099999999999  0.62942  1.0000
  H   H103      1.0  0.13653  0.53175  0.86413  1.0000
  H   H104      1.0  0.31761000000000006  0.5257  0.8629  1.0000
  H   H105      1.0  0.31473  0.67409  0.03843  1.0000
  H   H106      1.0  0.13276  0.67351  0.03202  1.0000
  H   H107      1.0  0.46302  0.63937  0.99885  1.0000
  H   H108      1.0  0.48029  0.53061  0.87493  1.0000
  H   H109      1.0  0.78783  0.6521599999999997  0.023640000000000005  1.0000
  H   H110      1.0  0.6071999999999999  0.64239  0.01692  1.0000
  H   H111      1.0  0.6443700000000001  0.51093  0.83676  1.0000
  H   H112      1.0  0.82435  0.52981  0.8514300000000002  1.0000
  C   C1        1.0  0.51983  0.24518999999999994  0.86318  1.0000
  C   C2        1.0  0.51043  0.31352  0.8107  1.0000
  C   C3        1.0  0.52058  0.28622  0.7508700000000001  1.0000
  C   C4        1.0  0.51124  0.34877  0.69811  1.0000
  C   C5        1.0  0.52649  0.31961  0.63905  1.0000
  C   C6        1.0  0.51439  0.38411  0.58492  1.0000
  C   C7        1.0  0.32157  0.06167999999999999  0.90241  1.0000
  C   C8        1.0  0.22056  0.059099999999999986  0.9019600000000001  1.0000
  C   C9        1.0  0.16849  0.09951999999999997  0.9517  1.0000
  C   C10       1.0  0.22358  0.14096  0.9996800000000001  1.0000
  C   C11       1.0  0.32452  0.14044  0.99654  1.0000
  C   C12       1.0  0.06301  0.10273  0.95723  1.0000
  C   C13       1.0  0.99689  0.06704000000000003  0.91687  1.0000
  C   C14       1.0  0.74877  0.12241  0.9825200000000001  1.0000
  C   C15       1.0  0.84933  0.11609  0.97834  1.0000
  C   C16       1.0  0.8919  0.07566  0.92505  1.0000
  C   C17       1.0  0.82784  0.04337  0.8785000000000001  1.0000
  C   C18       1.0  0.72789  0.05348  0.88598  1.0000
  C   C19       1.0  0.47999  0.74177  0.63718  1.0000
  C   C20       1.0  0.48876  0.81099  0.68894  1.0000
  C   C21       1.0  0.47848  0.78525  0.74925  1.0000
  C   C22       1.0  0.4879  0.8493599999999998  0.80104  1.0000
  C   C23       1.0  0.47256  0.8217799999999998  0.86061  1.0000
  C   C24       1.0  0.48516  0.8874099999999998  0.91384  1.0000
  C   C25       1.0  0.6793  0.56065  0.59857  1.0000
  C   C26       1.0  0.78035  0.5582  0.5987600000000001  1.0000
  C   C27       1.0  0.83244  0.59919  0.54884  1.0000
  C   C28       1.0  0.77736  0.6412  0.50101  1.0000
  C   C29       1.0  0.67646  0.6407  0.50449  1.0000
  C   C30       1.0  0.93792  0.6024099999999998  0.54293  1.0000
  C   C31       1.0  0.00396  0.56685  0.58338  1.0000
  C   C32       1.0  0.2527  0.6219099999999997  0.51751  1.0000
  C   C33       1.0  0.15207000000000004  0.61582  0.52164  1.0000
  C   C34       1.0  0.10901000000000001  0.5753599999999998  0.57509  1.0000
  C   C35       1.0  0.17267  0.54282  0.62182  1.0000
  C   C36       1.0  0.27274  0.55253  0.6143300000000002  1.0000
  C   C37       1.0  0.48017  0.7547999999999998  0.13683  1.0000
  C   C38       1.0  0.48957000000000006  0.6864799999999999  0.1893  1.0000
  C   C39       1.0  0.47942  0.7137799999999999  0.24913000000000002  1.0000
  C   C40       1.0  0.48876  0.65122  0.30189  1.0000
  C   C41       1.0  0.47351000000000004  0.68038  0.36095000000000005  1.0000
  C   C42       1.0  0.48561  0.61589  0.41508  1.0000
  C   C43       1.0  0.67843  0.93832  0.09759000000000001  1.0000
  C   C44       1.0  0.77944  0.9409  0.09804  1.0000
  C   C45       1.0  0.83152  0.90047  0.0483  1.0000
  C   C46       1.0  0.7764200000000001  0.85903  0.00032  1.0000
  C   C47       1.0  0.6754799999999999  0.85956  0.00347  1.0000
  C   C48       1.0  0.93699  0.89727  0.04277  1.0000
  C   C49       1.0  0.00311  0.93296  0.08313  1.0000
  C   C50       1.0  0.25123  0.8775899999999999  0.01748  1.0000
  C   C51       1.0  0.15067  0.88391  0.02166  1.0000
  C   C52       1.0  0.10811  0.9243299999999998  0.07495  1.0000
  C   C53       1.0  0.17216  0.95662  0.1215  1.0000
  C   C54       1.0  0.27212  0.94651  0.11403000000000002  1.0000
  C   C55       1.0  0.52001  0.25823  0.36282  1.0000
  C   C56       1.0  0.51124  0.189  0.31106  1.0000
  C   C57       1.0  0.52152  0.21474  0.25075  1.0000
  C   C58       1.0  0.5121  0.15064  0.19897  1.0000
  C   C59       1.0  0.52744  0.17821  0.13939  1.0000
  C   C60       1.0  0.51484  0.11258  0.08616  1.0000
  C   C61       1.0  0.32070000000000004  0.43935  0.4014400000000001  1.0000
  C   C62       1.0  0.21966000000000002  0.4418  0.40124000000000004  1.0000
  C   C63       1.0  0.16756  0.40081  0.45116  1.0000
  C   C64       1.0  0.22264  0.3588  0.49899  1.0000
  C   C65       1.0  0.32355  0.35928999999999994  0.49551000000000006  1.0000
  C   C66       1.0  0.06208  0.39758999999999994  0.45708  1.0000
  C   C67       1.0  0.99604  0.4331399999999999  0.41662  1.0000
  C   C68       1.0  0.7473  0.37809  0.48249  1.0000
  C   C69       1.0  0.84793  0.38417  0.47836  1.0000
  C   C70       1.0  0.89099  0.42463  0.42492  1.0000
  C   C71       1.0  0.82734  0.45717  0.37818000000000007  1.0000
  C   C72       1.0  0.72726  0.44746  0.38567  1.0000
  C   C73       1.0  0.98002  0.75784  0.36296000000000006  1.0000
  C   C74       1.0  0.98908  0.68817  0.3115  1.0000
  C   C75       1.0  0.9792900000000001  0.71371  0.25117  1.0000
  C   C76       1.0  0.9886300000000001  0.64999  0.19922  1.0000
  C   C77       1.0  0.97386  0.6780899999999999  0.13972  1.0000
  C   C78       1.0  0.9857200000000002  0.61269  0.0863  1.0000
  C   C79       1.0  0.17847  0.9387799999999997  0.40191  1.0000
  C   C80       1.0  0.27949  0.94151  0.40171000000000007  1.0000
  C   C81       1.0  0.33132  0.9008799999999999  0.45168000000000014  1.0000
  C   C82       1.0  0.27597  0.85902  0.49964000000000003  1.0000
  C   C83       1.0  0.17507  0.85926  0.49620000000000003  1.0000
  C   C84       1.0  0.43679  0.89769  0.45734  1.0000
  C   C85       1.0  0.50295  0.9335099999999998  0.41680000000000006  1.0000
  C   C86       1.0  0.75121  0.87727  0.48208  1.0000
  C   C87       1.0  0.65064  0.8838  0.47808  1.0000
  C   C88       1.0  0.60797  0.92458  0.42475  1.0000
  C   C89       1.0  0.67198  0.95678  0.3779100000000001  1.0000
  C   C90       1.0  0.77197  0.94643  0.38523  1.0000
  C   C91       1.0  0.01982  0.25787  0.13701  1.0000
  C   C92       1.0  0.010740000000000001  0.18822999999999995  0.18871  1.0000
  C   C93       1.0  0.021  0.2143  0.24877000000000005  1.0000
  C   C94       1.0  0.01158  0.15062  0.30109  1.0000
  C   C95       1.0  0.02726  0.17915999999999996  0.36029000000000005  1.0000
  C   C96       1.0  0.01498  0.11506  0.41469  1.0000
  C   C97       1.0  0.8208  0.43827  0.09807000000000002  1.0000
  C   C98       1.0  0.7197800000000001  0.44075  0.09838  1.0000
  C   C99       1.0  0.66764  0.40037  0.048540000000000014  1.0000
  C   C100      1.0  0.72264  0.3587399999999999  0.00072  1.0000
  C   C101      1.0  0.8235700000000001  0.3593  0.00403  1.0000
  C   C102      1.0  0.56219  0.39737999999999996  0.04272  1.0000
  C   C103      1.0  0.49609  0.43295  0.083  1.0000
  C   C104      1.0  0.24780000000000002  0.3778199999999999  0.01695  1.0000
  C   C105      1.0  0.3484  0.38396  0.02125  1.0000
  C   C106      1.0  0.39111  0.42429  0.07461  1.0000
  C   C107      1.0  0.32719  0.45652  0.12114000000000001  1.0000
  C   C108      1.0  0.22719  0.44664  0.11354000000000002  1.0000
  C   C109      1.0  0.01999  0.24215  0.63704  1.0000
  C   C110      1.0  0.01092  0.31182  0.6885  1.0000
  C   C111      1.0  0.020710000000000003  0.28628  0.74884  1.0000
  C   C112      1.0  0.01137  0.34999999999999987  0.8007800000000002  1.0000
  C   C113      1.0  0.02614  0.3218999999999999  0.86028  1.0000
  C   C114      1.0  0.01428  0.3873  0.9137  1.0000
  C   C115      1.0  0.82154  0.06121999999999998  0.59809  1.0000
  C   C116      1.0  0.72051  0.05848  0.59829  1.0000
  C   C117      1.0  0.66868  0.09910999999999999  0.54833  1.0000
  C   C118      1.0  0.72403  0.14098  0.50037  1.0000
  C   C119      1.0  0.82494  0.14073  0.5038  1.0000
  C   C120      1.0  0.56321  0.10231  0.54266  1.0000
  C   C121      1.0  0.49705  0.06649  0.5832  1.0000
  C   C122      1.0  0.2488  0.12272  0.51792  1.0000
  C   C123      1.0  0.34936  0.11619  0.52192  1.0000
  C   C124      1.0  0.39203  0.07541  0.57525  1.0000
  C   C125      1.0  0.32802  0.04320999999999999  0.62209  1.0000
  C   C126      1.0  0.22804000000000005  0.05356  0.6147700000000001  1.0000
  C   C127      1.0  0.98019  0.7421199999999999  0.8630000000000002  1.0000
  C   C128      1.0  0.98926  0.81177  0.8112900000000001  1.0000
  C   C129      1.0  0.979  0.7857  0.7512300000000001  1.0000
  C   C130      1.0  0.98843  0.84937  0.69891  1.0000
  C   C131      1.0  0.97274  0.82083  0.63971  1.0000
  C   C132      1.0  0.9850200000000001  0.88493  0.58531  1.0000
  C   C133      1.0  0.1792  0.56172  0.90193  1.0000
  C   C134      1.0  0.28023  0.55924  0.9016200000000001  1.0000
  C   C135      1.0  0.33237  0.59962  0.9514600000000002  1.0000
  C   C136      1.0  0.27736  0.64126  0.9992800000000001  1.0000
  C   C137      1.0  0.17643  0.64069  0.9959700000000001  1.0000
  C   C138      1.0  0.43782  0.6026099999999999  0.9572800000000001  1.0000
  C   C139      1.0  0.50391  0.5670400000000001  0.91701  1.0000
  C   C140      1.0  0.75221  0.62218  0.9830500000000001  1.0000
  C   C141      1.0  0.6516  0.61604  0.97875  1.0000
  C   C142      1.0  0.6089  0.5756999999999999  0.92539  1.0000
  C   C143      1.0  0.67281  0.54348  0.87887  1.0000
  C   C144      1.0  0.7728100000000001  0.55336  0.8864700000000001  1.0000
  N   N1        1.0  0.3738  0.10125999999999999  0.94901  1.0000
  N   N2        1.0  0.68805  0.09241  0.93722  1.0000
  N   N3        1.0  0.62712  0.60088  0.55211  1.0000
  N   N4        1.0  0.31301  0.59148  0.56293  1.0000
  N   N5        1.0  0.62621  0.89873  0.05099  1.0000
  N   N6        1.0  0.31195  0.9075799999999998  0.06278  1.0000
  N   N7        1.0  0.37288  0.39912  0.44789  1.0000
  N   N8        1.0  0.68699  0.40852  0.43707  1.0000
  N   N9        1.0  0.12605  0.8987  0.44849  1.0000
  N   N10       1.0  0.81189  0.90734  0.43659  1.0000
  N   N11       1.0  0.87296  0.39868  0.05154  1.0000
  N   N12       1.0  0.18723  0.40792  0.0622  1.0000
  N   N13       1.0  0.87396  0.10129  0.55151  1.0000
  N   N14       1.0  0.18811  0.09265  0.56342  1.0000
  N   N15       1.0  0.12705  0.6013199999999999  0.94846  1.0000
  N   N16       1.0  0.81277  0.59207  0.9378000000000002  1.0000
  O   O1        1.0  0.5241  0.15569  0.85057  1.0000
  O   O2        1.0  0.52319  0.27668  0.9184600000000002  1.0000
  O   O3        1.0  0.47152  0.46314  0.59347  1.0000
  O   O4        1.0  0.54725  0.35242999999999997  0.53331  1.0000
  O   O5        1.0  0.4761000000000001  0.6522199999999999  0.6502  1.0000
  O   O6        1.0  0.4769  0.77289  0.58159  1.0000
  O   O7        1.0  0.52832  0.9664799999999998  0.9038500000000002  1.0000
  O   O8        1.0  0.4523  0.8569099999999998  0.96596  1.0000
  O   O9        1.0  0.47591  0.8443099999999998  0.14943  1.0000
  O   O10       1.0  0.4768100000000001  0.72331  0.08154  1.0000
  O   O11       1.0  0.52848  0.53685  0.40654  1.0000
  O   O12       1.0  0.45275  0.64757  0.46670000000000006  1.0000
  O   O13       1.0  0.5239  0.34778  0.34981  1.0000
  O   O14       1.0  0.5231  0.22711  0.41842000000000007  1.0000
  O   O15       1.0  0.47168  0.03351  0.09615  1.0000
  O   O16       1.0  0.5477  0.14308  0.03404  1.0000
  O   O17       1.0  0.97605  0.8473  0.34975  1.0000
  O   O18       1.0  0.9767200000000001  0.7272  0.41869000000000006  1.0000
  O   O19       1.0  0.02852  0.53379  0.09605000000000001  1.0000
  O   O20       1.0  0.95248  0.64308  0.03432  1.0000
  O   O21       1.0  0.0239  0.34715  0.15011  1.0000
  O   O22       1.0  0.02308  0.22755  0.08134  1.0000
  O   O23       1.0  0.97162  0.03583  0.40646  1.0000
  O   O24       1.0  0.04776  0.14752999999999994  0.46619  1.0000
  O   O25       1.0  0.023950000000000003  0.15269999999999995  0.6502500000000001  1.0000
  O   O26       1.0  0.02329  0.27279  0.58131  1.0000
  O   O27       1.0  0.97148  0.46620999999999996  0.90395  1.0000
  O   O28       1.0  0.04752  0.35692  0.9656800000000001  1.0000
  O   O29       1.0  0.9761  0.65285  0.8498900000000001  1.0000
  O   O30       1.0  0.97693  0.77244  0.9186700000000001  1.0000
  O   O31       1.0  0.02838  0.96416  0.59354  1.0000
  O   O32       1.0  0.95224  0.8524699999999997  0.53381  1.0000
