data_image0
_chemical_formula_structural       Cu9H114C132N18O36
_chemical_formula_sum              "Cu9 H114 C132 N18 O36"
_cell_length_a       16.16463
_cell_length_b       16.17391
_cell_length_c       16.16828
_cell_angle_alpha    87.33913
_cell_angle_beta     87.37658
_cell_angle_gamma    87.332

_space_group_name_H-M_alt    "P 1"
_space_group_IT_number       1

loop_
  _space_group_symop_operation_xyz
  'x, y, z'

loop_
  _atom_site_type_symbol
  _atom_site_label
  _atom_site_symmetry_multiplicity
  _atom_site_fract_x
  _atom_site_fract_y
  _atom_site_fract_z
  _atom_site_occupancy
  Cu  Cu1       1.0  0.97885  0.91729  0.2671499999999999  1.0000
  Cu  Cu2       1.0  0.88344  0.49028  0.59867  1.0000
  Cu  Cu3       1.0  0.08301000000000001  0.10346  0.43264  1.0000
  Cu  Cu4       1.0  0.26652  0.97787  0.91668  1.0000
  Cu  Cu5       1.0  0.59867  0.88346  0.4902699999999999  1.0000
  Cu  Cu6       1.0  0.43264  0.0831  0.10345999999999997  1.0000
  Cu  Cu7       1.0  0.91719  0.26714  0.97885  1.0000
  Cu  Cu8       1.0  0.49035  0.59861  0.88341  1.0000
  Cu  Cu9       1.0  0.10353000000000001  0.43273  0.08312  1.0000
  H   H1        1.0  0.09856000000000001  0.65303  0.20794  1.0000
  H   H2        1.0  0.13176  0.68421  0.3037499999999999  1.0000
  H   H3        1.0  0.97509  0.58858  0.2806  1.0000
  H   H4        1.0  0.05735  0.62915  0.44031  1.0000
  H   H5        1.0  0.96574  0.67805  0.4020399999999999  1.0000
  H   H6        1.0  0.14356  0.52626  0.34529  1.0000
  H   H7        1.0  0.05138  0.46871  0.34896  1.0000
  H   H8        1.0  0.90298  0.84973  0.98727  1.0000
  H   H9        1.0  0.010289999999999999  0.84413  0.00972  1.0000
  H   H10       1.0  0.78006  0.75235  0.60014  1.0000
  H   H11       1.0  0.82966  0.76073  0.69521  1.0000
  H   H12       1.0  0.006330000000000005  0.80775  0.42177  1.0000
  H   H13       1.0  0.9387300000000001  0.79535  0.5654899999999998  1.0000
  H   H14       1.0  0.81984  0.89799  0.60119  1.0000
  H   H15       1.0  0.78045  0.007319999999999999  0.49863  1.0000
  H   H16       1.0  0.7759199999999998  0.11329  0.4127399999999999  1.0000
  H   H17       1.0  0.76171  0.21926  0.29654  1.0000
  H   H18       1.0  0.83778  0.19415  0.15961  1.0000
  H   H19       1.0  0.92276  0.06175  0.14594  1.0000
  H   H20       1.0  0.0467  0.40935  0.53405  1.0000
  H   H21       1.0  0.12563  0.27167  0.5638  1.0000
  H   H22       1.0  0.06896  0.17727  0.6769  1.0000
  H   H23       1.0  0.93517  0.2157  0.75147  1.0000
  H   H24       1.0  0.81777  0.25537  0.80382  1.0000
  H   H25       1.0  0.67631  0.30612  0.84505  1.0000
  H   H26       1.0  0.61644  0.43775  0.77795  1.0000
  H   H27       1.0  0.7056  0.51431  0.66993  1.0000
  H   H28       1.0  0.09215999999999999  0.021490000000000002  0.15807999999999994  1.0000
  H   H29       1.0  0.19504999999999995  0.024750000000000005  0.18843  1.0000
  H   H30       1.0  0.11220999999999998  0.9771400000000001  0.5729799999999998  1.0000
  H   H31       1.0  0.03972999999999998  0.94197  0.70984  1.0000
  H   H32       1.0  0.90226  0.017790000000000004  0.74485  1.0000
  H   H33       1.0  0.84604  0.12261999999999999  0.64386  1.0000
  H   H34       1.0  0.82093  0.22903999999999997  0.56163  1.0000
  H   H35       1.0  0.80893  0.35231  0.46303  1.0000
  H   H36       1.0  0.9127699999999997  0.36681  0.34417  1.0000
  H   H37       1.0  0.02419  0.25287  0.3265  1.0000
  H   H38       1.0  0.20812  0.10052000000000001  0.65097  1.0000
  H   H39       1.0  0.30371  0.132  0.68409  1.0000
  H   H40       1.0  0.28045000000000003  0.9766199999999999  0.58681  1.0000
  H   H41       1.0  0.44039  0.05771  0.62863  1.0000
  H   H42       1.0  0.40099  0.9665299999999999  0.6772699999999998  1.0000
  H   H43       1.0  0.34519  0.14507  0.52454  1.0000
  H   H44       1.0  0.3496699999999999  0.05276  0.46742  1.0000
  H   H45       1.0  0.9869399999999997  0.90295  0.84968  1.0000
  H   H46       1.0  0.00947  0.010190000000000001  0.8441  1.0000
  H   H47       1.0  0.60013  0.78014  0.7523299999999998  1.0000
  H   H48       1.0  0.69528  0.82956  0.76077  1.0000
  H   H49       1.0  0.42157  0.00615  0.80739  1.0000
  H   H50       1.0  0.56547  0.93872  0.79531  1.0000
  H   H51       1.0  0.6012  0.81988  0.89795  1.0000
  H   H52       1.0  0.4986999999999999  0.78059  0.00727  1.0000
  H   H53       1.0  0.41279  0.77596  0.11316  1.0000
  H   H54       1.0  0.2965899999999999  0.76166  0.21907  1.0000
  H   H55       1.0  0.15961  0.83784  0.19401  1.0000
  H   H56       1.0  0.14585  0.92288  0.06171  1.0000
  H   H57       1.0  0.53395  0.046720000000000005  0.4093599999999999  1.0000
  H   H58       1.0  0.56375  0.12565  0.27173  1.0000
  H   H59       1.0  0.67688  0.0689  0.17733  1.0000
  H   H60       1.0  0.75146  0.93514  0.2158  1.0000
  H   H61       1.0  0.80381  0.81776  0.25545  1.0000
  H   H62       1.0  0.84504  0.67632  0.3062  1.0000
  H   H63       1.0  0.77789  0.61653  0.4378099999999999  1.0000
  H   H64       1.0  0.66979  0.70576  0.51432  1.0000
  H   H65       1.0  0.15781  0.09218  0.021309999999999992  1.0000
  H   H66       1.0  0.18821  0.19494  0.02477  1.0000
  H   H67       1.0  0.57284  0.11204  0.97715  1.0000
  H   H68       1.0  0.7098399999999998  0.03955000000000001  0.94198  1.0000
  H   H69       1.0  0.74493  0.90219  0.01783  1.0000
  H   H70       1.0  0.6439799999999999  0.84602  0.12261  1.0000
  H   H71       1.0  0.56166  0.82096  0.22903  1.0000
  H   H72       1.0  0.46302000000000004  0.80895  0.35224  1.0000
  H   H73       1.0  0.34411  0.91281  0.3667399999999999  1.0000
  H   H74       1.0  0.32643  0.024240000000000005  0.25286  1.0000
  H   H75       1.0  0.65259  0.20719  0.09817  1.0000
  H   H76       1.0  0.68387  0.30275  0.13198  1.0000
  H   H77       1.0  0.58764  0.28037  0.97539  1.0000
  H   H78       1.0  0.62891  0.43994  0.05749  1.0000
  H   H79       1.0  0.67772  0.4015  0.96602  1.0000
  H   H80       1.0  0.52632  0.34455  0.14432  1.0000
  H   H81       1.0  0.46836999999999995  0.34932  0.0524  1.0000
  H   H82       1.0  0.84963  0.98734  0.90303  1.0000
  H   H83       1.0  0.84407  0.00969  0.01032  1.0000
  H   H84       1.0  0.75253  0.60023  0.7801  1.0000
  H   H85       1.0  0.7607399999999997  0.69533  0.82963  1.0000
  H   H86       1.0  0.80771  0.42179  0.006279999999999998  1.0000
  H   H87       1.0  0.79533  0.56551  0.93865  1.0000
  H   H88       1.0  0.89798  0.60119  0.81984  1.0000
  H   H89       1.0  0.0072800000000000035  0.49862  0.78046  1.0000
  H   H90       1.0  0.11323000000000001  0.41269  0.77595  1.0000
  H   H91       1.0  0.21922  0.29649  0.7616799999999998  1.0000
  H   H92       1.0  0.19402  0.15948  0.83761  1.0000
  H   H93       1.0  0.06178999999999997  0.14591  0.9227699999999998  1.0000
  H   H94       1.0  0.40981  0.53425  0.04657999999999999  1.0000
  H   H95       1.0  0.27224  0.56423  0.12569  1.0000
  H   H96       1.0  0.17755  0.677  0.06888  1.0000
  H   H97       1.0  0.21574999999999997  0.75143  0.93499  1.0000
  H   H98       1.0  0.25539  0.80384  0.81748  1.0000
  H   H99       1.0  0.30616  0.84504  0.6761  1.0000
  H   H100      1.0  0.4378699999999999  0.77789  0.61638  1.0000
  H   H101      1.0  0.5144  0.66978  0.70565  1.0000
  H   H102      1.0  0.021470000000000003  0.15841  0.09224  1.0000
  H   H103      1.0  0.02511  0.18858  0.19509  1.0000
  H   H104      1.0  0.9770000000000001  0.57301  0.11202  1.0000
  H   H105      1.0  0.94192  0.70999  0.03957  1.0000
  H   H106      1.0  0.017780000000000015  0.74501  0.9022499999999998  1.0000
  H   H107      1.0  0.12259  0.64401  0.8460899999999998  1.0000
  H   H108      1.0  0.22895  0.56168  0.82101  1.0000
  H   H109      1.0  0.35227  0.46304999999999996  0.8090299999999998  1.0000
  H   H110      1.0  0.36676  0.34414  0.91282  1.0000
  H   H111      1.0  0.25283  0.32647  0.0242  1.0000
  H   H112      1.0  0.0031899999999999997  0.00306  0.00309  1.0000
  H   H113      1.0  0.1821  0.18162  0.18166  1.0000
  H   H114      1.0  0.67044  0.67054  0.67043  1.0000
  C   C1        1.0  0.020870000000000007  0.749  0.26009  1.0000
  C   C2        1.0  0.07661  0.67073  0.27041  1.0000
  C   C3        1.0  0.03087  0.5986  0.3143999999999999  1.0000
  C   C4        1.0  0.003580000000000002  0.61959  0.40328  1.0000
  C   C5        1.0  0.9488500000000001  0.5558  0.44825  1.0000
  C   C6        1.0  0.08545000000000001  0.51772  0.31487  1.0000
  C   C7        1.0  0.10541999999999999  0.49113  0.22750999999999993  1.0000
  C   C8        1.0  0.9306  0.89646  0.1052  1.0000
  C   C9        1.0  0.9526099999999998  0.88261  0.014089999999999997  1.0000
  C   C10       1.0  0.84004  0.63979  0.64638  1.0000
  C   C11       1.0  0.79162  0.72107  0.66051  1.0000
  C   C12       1.0  0.95619  0.85013  0.44235999999999986  1.0000
  C   C13       1.0  0.91857  0.84442  0.52158  1.0000
  C   C14       1.0  0.8541899999999999  0.90134  0.5417899999999998  1.0000
  C   C15       1.0  0.8313  0.96349  0.48348  1.0000
  C   C16       1.0  0.87328  0.96714  0.40605  1.0000
  C   C17       1.0  0.85819  0.03238  0.34102  1.0000
  C   C18       1.0  0.8081  0.10398  0.35321  1.0000
  C   C19       1.0  0.80035  0.1631  0.2882  1.0000
  C   C20       1.0  0.84186  0.14931  0.21208  1.0000
  C   C21       1.0  0.8898  0.0759  0.20407  1.0000
  C   C22       1.0  0.02500999999999999  0.36375  0.58075  1.0000
  C   C23       1.0  0.06857  0.28906  0.59856  1.0000
  C   C24       1.0  0.03609  0.23571  0.66093  1.0000
  C   C25       1.0  0.96095  0.25661000000000006  0.7022399999999998  1.0000
  C   C26       1.0  0.9191599999999998  0.3311  0.67888  1.0000
  C   C27       1.0  0.83608  0.35685  0.71225  1.0000
  C   C28       1.0  0.7912899999999998  0.31150999999999995  0.77335  1.0000
  C   C29       1.0  0.71121  0.34044  0.7967899999999998  1.0000
  C   C30       1.0  0.6781199999999998  0.41341  0.75955  1.0000
  C   C31       1.0  0.7269099999999997  0.45624  0.70017  1.0000
  C   C32       1.0  0.10618  0.06366  0.2792  1.0000
  C   C33       1.0  0.13484  0.059590000000000004  0.1891  1.0000
  C   C34       1.0  0.05275000000000001  0.00670000000000001  0.5914399999999997  1.0000
  C   C35       1.0  0.011410000000000002  0.98753  0.66695  1.0000
  C   C36       1.0  0.9356999999999998  0.02906000000000001  0.6857399999999998  1.0000
  C   C37       1.0  0.90431  0.08903  0.62927  1.0000
  C   C38       1.0  0.95023  0.10759  0.5559899999999998  1.0000
  C   C39       1.0  0.9298699999999998  0.17713  0.49674999999999997  1.0000
  C   C40       1.0  0.8643299999999998  0.23562  0.50859  1.0000
  C   C41       1.0  0.85756  0.30439  0.45346  1.0000
  C   C42       1.0  0.91512  0.31267  0.38682  1.0000
  C   C43       1.0  0.97731  0.25066  0.37704  1.0000
  C   C44       1.0  0.25849  0.020689999999999997  0.74715  1.0000
  C   C45       1.0  0.27002  0.07747  0.6695799999999997  1.0000
  C   C46       1.0  0.31441  0.03213  0.59728  1.0000
  C   C47       1.0  0.4030299999999999  0.0043000000000000095  0.6188099999999997  1.0000
  C   C48       1.0  0.4481899999999999  0.9491  0.55557  1.0000
  C   C49       1.0  0.31516  0.08669  0.51631  1.0000
  C   C50       1.0  0.22776  0.10581999999999998  0.48925  1.0000
  C   C51       1.0  0.10488999999999998  0.93039  0.89641  1.0000
  C   C52       1.0  0.013820000000000002  0.9525199999999999  0.88256  1.0000
  C   C53       1.0  0.64638  0.84  0.6398  1.0000
  C   C54       1.0  0.6605299999999998  0.79161  0.72108  1.0000
  C   C55       1.0  0.44216999999999995  0.9561200000000001  0.84992  1.0000
  C   C56       1.0  0.5215  0.91862  0.84434  1.0000
  C   C57       1.0  0.54178  0.85427  0.90129  1.0000
  C   C58       1.0  0.48349  0.83143  0.96343  1.0000
  C   C59       1.0  0.4059899999999999  0.87335  0.96701  1.0000
  C   C60       1.0  0.34101  0.85828  0.03229  1.0000
  C   C61       1.0  0.35326  0.8082  0.10389  1.0000
  C   C62       1.0  0.28824  0.80041  0.16298  1.0000
  C   C63       1.0  0.21210000000000004  0.84195  0.14922  1.0000
  C   C64       1.0  0.20401999999999998  0.8899  0.07582  1.0000
  C   C65       1.0  0.58066  0.02503  0.36376  1.0000
  C   C66       1.0  0.5984999999999999  0.06857  0.28909  1.0000
  C   C67       1.0  0.66089  0.036070000000000005  0.23575999999999994  1.0000
  C   C68       1.0  0.70221  0.96094  0.25667  1.0000
  C   C69       1.0  0.67882  0.91917  0.33114  1.0000
  C   C70       1.0  0.71219  0.8361  0.35688  1.0000
  C   C71       1.0  0.77332  0.7913  0.3115599999999999  1.0000
  C   C72       1.0  0.79675  0.71124  0.34049  1.0000
  C   C73       1.0  0.7594799999999998  0.67818  0.4134499999999999  1.0000
  C   C74       1.0  0.70008  0.72699  0.45625  1.0000
  C   C75       1.0  0.27916  0.10609  0.06319  1.0000
  C   C76       1.0  0.18902  0.13468  0.05945  1.0000
  C   C77       1.0  0.59142  0.05263  0.00672  1.0000
  C   C78       1.0  0.66694  0.011300000000000011  0.9875399999999998  1.0000
  C   C79       1.0  0.68579  0.93562  0.02909  1.0000
  C   C80       1.0  0.62934  0.90428  0.08905  1.0000
  C   C81       1.0  0.55603  0.95021  0.10763  1.0000
  C   C82       1.0  0.49676  0.92991  0.17713999999999996  1.0000
  C   C83       1.0  0.5086  0.8643699999999999  0.23561  1.0000
  C   C84       1.0  0.45343999999999995  0.85759  0.30435  1.0000
  C   C85       1.0  0.38679  0.91516  0.31263  1.0000
  C   C86       1.0  0.37701  0.97737  0.25064  1.0000
  C   C87       1.0  0.74886  0.25986  0.02096  1.0000
  C   C88       1.0  0.6704  0.26975  0.07664  1.0000
  C   C89       1.0  0.5981  0.31402  0.031149999999999997  1.0000
  C   C90       1.0  0.61925  0.40287  0.00383  1.0000
  C   C91       1.0  0.55566  0.44809  0.94895  1.0000
  C   C92       1.0  0.51736  0.31461  0.08604  1.0000
  C   C93       1.0  0.48968000000000006  0.22754  0.10557  1.0000
  C   C94       1.0  0.89644  0.10520000000000002  0.93068  1.0000
  C   C95       1.0  0.88255  0.014110000000000011  0.9526799999999997  1.0000
  C   C96       1.0  0.63985  0.64637  0.84  1.0000
  C   C97       1.0  0.72114  0.66055  0.79161  1.0000
  C   C98       1.0  0.8501  0.44239  0.95617  1.0000
  C   C99       1.0  0.84441  0.5216  0.91854  1.0000
  C   C100      1.0  0.90134  0.54179  0.85419  1.0000
  C   C101      1.0  0.9634799999999997  0.4834800000000001  0.83134  1.0000
  C   C102      1.0  0.96714  0.40607  0.87335  1.0000
  C   C103      1.0  0.03239  0.34102  0.85829  1.0000
  C   C104      1.0  0.10396999999999999  0.35318  0.80816  1.0000
  C   C105      1.0  0.16308000000000003  0.28816  0.80037  1.0000
  C   C106      1.0  0.14929  0.21204  0.84184  1.0000
  C   C107      1.0  0.0759  0.20406  0.88985  1.0000
  C   C108      1.0  0.36411  0.58092  0.02493  1.0000
  C   C109      1.0  0.28949  0.5988  0.06853  1.0000
  C   C110      1.0  0.23597999999999988  0.66105  0.036  1.0000
  C   C111      1.0  0.25674  0.70228  0.9608  1.0000
  C   C112      1.0  0.3312199999999999  0.67893  0.91899  1.0000
  C   C113      1.0  0.35691999999999985  0.71227  0.83592  1.0000
  C   C114      1.0  0.31157  0.77337  0.79108  1.0000
  C   C115      1.0  0.3405  0.79677  0.71103  1.0000
  C   C116      1.0  0.4135  0.7595  0.67802  1.0000
  C   C117      1.0  0.45632  0.7001  0.72685  1.0000
  C   C118      1.0  0.06391  0.27932  0.10629999999999998  1.0000
  C   C119      1.0  0.05983  0.18922  0.13485999999999995  1.0000
  C   C120      1.0  0.006609999999999999  0.59154  0.05264  1.0000
  C   C121      1.0  0.9874799999999996  0.66707  0.01133  1.0000
  C   C122      1.0  0.029039999999999993  0.68588  0.93566  1.0000
  C   C123      1.0  0.08901000000000005  0.62941  0.90433  1.0000
  C   C124      1.0  0.10756000000000002  0.55611  0.95026  1.0000
  C   C125      1.0  0.17708999999999994  0.49684000000000006  0.92995  1.0000
  C   C126      1.0  0.23555999999999996  0.50864  0.86441  1.0000
  C   C127      1.0  0.30434000000000005  0.45348  0.85763  1.0000
  C   C128      1.0  0.31261999999999995  0.38682  0.91517  1.0000
  C   C129      1.0  0.25062  0.37706  0.9773599999999998  1.0000
  C   C130      1.0  0.96555  0.96559  0.96563  1.0000
  C   C131      1.0  0.14452  0.14427  0.1443  1.0000
  C   C132      1.0  0.70803  0.70804  0.708  1.0000
  N   N1        1.0  0.9330499999999999  0.90903  0.38595  1.0000
  N   N2        1.0  0.89836  0.01942  0.26699  1.0000
  N   N3        1.0  0.9522099999999999  0.38409  0.61992  1.0000
  N   N4        1.0  0.80397  0.42873  0.67709  1.0000
  N   N5        1.0  0.022839999999999996  0.06537  0.53782  1.0000
  N   N6        1.0  0.9843899999999999  0.18506  0.4308  1.0000
  N   N7        1.0  0.38572  0.93296  0.90875  1.0000
  N   N8        1.0  0.2669199999999999  0.89839  0.01931  1.0000
  N   N9        1.0  0.61984  0.95224  0.3841  1.0000
  N   N10       1.0  0.67701  0.80402  0.42873  1.0000
  N   N11       1.0  0.53783  0.02279  0.06542  1.0000
  N   N12       1.0  0.4308  0.9844600000000001  0.18506  1.0000
  N   N13       1.0  0.9090199999999998  0.38598  0.9330999999999998  1.0000
  N   N14       1.0  0.019440000000000002  0.26701  0.89849  1.0000
  N   N15       1.0  0.38427  0.62  0.95206  1.0000
  N   N16       1.0  0.4288  0.67706  0.80388  1.0000
  N   N17       1.0  0.0653  0.53793  0.02281  1.0000
  N   N18       1.0  0.1850499999999999  0.43089  0.98448  1.0000
  O   O1        1.0  0.05326  0.81681  0.28218  1.0000
  O   O2        1.0  0.9501599999999999  0.74529  0.23316  1.0000
  O   O3        1.0  0.96706  0.54109  0.5255  1.0000
  O   O4        1.0  0.89163  0.52444  0.41292  1.0000
  O   O5        1.0  0.17479  0.50355  0.19156999999999993  1.0000
  O   O6        1.0  0.045660000000000006  0.45828  0.19123  1.0000
  O   O7        1.0  0.9940999999999999  0.91644  0.14571  1.0000
  O   O8        1.0  0.8575400000000001  0.8916  0.13341  1.0000
  O   O9        1.0  0.8081  0.59151  0.59522  1.0000
  O   O10       1.0  0.90459  0.62087  0.68415  1.0000
  O   O11       1.0  0.07058  0.0037900000000000004  0.31651  1.0000
  O   O12       1.0  0.12096  0.12975999999999996  0.31673  1.0000
  O   O13       1.0  0.27904  0.05202999999999999  0.8161  1.0000
  O   O14       1.0  0.23249  0.94995  0.74144  1.0000
  O   O15       1.0  0.52552  0.96712  0.54107  1.0000
  O   O16       1.0  0.41296999999999995  0.89167  0.5245  1.0000
  O   O17       1.0  0.19158  0.17543  0.49976999999999994  1.0000
  O   O18       1.0  0.1913  0.04522999999999999  0.45813  1.0000
  O   O19       1.0  0.14539  0.9937500000000001  0.91656  1.0000
  O   O20       1.0  0.13336  0.85743  0.89144  1.0000
  O   O21       1.0  0.59526  0.80808  0.59147  1.0000
  O   O22       1.0  0.68413  0.90453  0.62086  1.0000
  O   O23       1.0  0.31639  0.07063  0.0032  1.0000
  O   O24       1.0  0.31671  0.12082999999999999  0.12941  1.0000
  O   O25       1.0  0.81665  0.28221  0.0534  1.0000
  O   O26       1.0  0.74531  0.23309  0.95025  1.0000
  O   O27       1.0  0.54116  0.52537  0.9670799999999998  1.0000
  O   O28       1.0  0.5244  0.41294  0.89157  1.0000
  O   O29       1.0  0.49961000000000005  0.19169999999999998  0.17544  1.0000
  O   O30       1.0  0.45834  0.19112  0.04504  1.0000
  O   O31       1.0  0.91641  0.14571  0.99418  1.0000
  O   O32       1.0  0.8916  0.13339000000000004  0.8575999999999998  1.0000
  O   O33       1.0  0.59161  0.59517  0.80809  1.0000
  O   O34       1.0  0.62085  0.68412  0.90454  1.0000
  O   O35       1.0  0.0039099999999999985  0.31661  0.07077  1.0000
  O   O36       1.0  0.1301  0.31679  0.12096999999999997  1.0000
