data_image0
_chemical_formula_structural       Mn8H112C120N24O32
_chemical_formula_sum              "Mn8 H112 C120 N24 O32"
_cell_length_a       9.61442
_cell_length_b       21.91738
_cell_length_c       21.9449
_cell_angle_alpha    87.19727999999999
_cell_angle_beta     77.15004
_cell_angle_gamma    77.17811

_space_group_name_H-M_alt    "P 1"
_space_group_IT_number       1

loop_
  _space_group_symop_operation_xyz
  'x, y, z'

loop_
  _atom_site_type_symbol
  _atom_site_label
  _atom_site_symmetry_multiplicity
  _atom_site_fract_x
  _atom_site_fract_y
  _atom_site_fract_z
  _atom_site_occupancy
  Mn  Mn1       1.0  0.49620000000000003  0.43217999999999995  0.5259199999999999  1.0000
  Mn  Mn2       1.0  0.4565700000000001  0.0677  0.97397  1.0000
  Mn  Mn3       1.0  0.4312200000000001  0.52573  0.06781999999999999  1.0000
  Mn  Mn4       1.0  0.022919999999999986  0.97406  0.43244  1.0000
  Mn  Mn5       1.0  0.5037899999999996  0.56782  0.47407999999999995  1.0000
  Mn  Mn6       1.0  0.54342  0.9323  0.02603  1.0000
  Mn  Mn7       1.0  0.56877  0.4742700000000001  0.9321799999999999  1.0000
  Mn  Mn8       1.0  0.97708  0.025940000000000005  0.56756  1.0000
  H   H1        1.0  0.4996700000000001  0.351  0.25503  1.0000
  H   H2        1.0  0.40664999999999996  0.29089  0.28902  1.0000
  H   H3        1.0  0.3040399999999999  0.3674  0.27551  1.0000
  H   H4        1.0  0.18188999999999997  0.31124  0.35109999999999997  1.0000
  H   H5        1.0  0.0038500000000000166  0.29334  0.44767999999999997  1.0000
  H   H6        1.0  0.035339999999999996  0.32307  0.55042  1.0000
  H   H7        1.0  0.16098999999999997  0.36228  0.61387  1.0000
  H   H8        1.0  0.35142999999999996  0.37689  0.76227  1.0000
  H   H9        1.0  0.396  0.39849999999999997  0.86735  1.0000
  H   H10       1.0  0.60861  0.53867  0.79482  1.0000
  H   H11       1.0  0.5743600000000001  0.523  0.68596  1.0000
  H   H12       1.0  0.84172  0.49594  0.45737999999999995  1.0000
  H   H13       1.0  0.7812800000000001  0.47681999999999997  0.5374999999999999  1.0000
  H   H14       1.0  0.84536  0.41642  0.47916  1.0000
  H   H15       1.0  0.10763000000000003  0.14918  0.24587999999999996  1.0000
  H   H16       1.0  0.98734  0.2092  0.21228999999999998  1.0000
  H   H17       1.0  0.9496399999999999  0.13253  0.22545999999999994  1.0000
  H   H18       1.0  0.8457  0.18896  0.15047999999999997  1.0000
  H   H19       1.0  0.74551  0.20639  0.05443  1.0000
  H   H20       1.0  0.9098500000000002  0.17617  0.95121  1.0000
  H   H21       1.0  0.13695000000000002  0.13709  0.88761  1.0000
  H   H22       1.0  0.4913299999999999  0.12306  0.73899  1.0000
  H   H23       1.0  0.6615599999999999  0.10169999999999998  0.63287  1.0000
  H   H24       1.0  0.9445999999999994  0.9608300000000001  0.7036399999999999  1.0000
  H   H25       1.0  0.7874100000000002  0.9767000000000001  0.81324  1.0000
  H   H26       1.0  0.79555  0.00323  0.04248  1.0000
  H   H27       1.0  0.7972599999999997  0.02257  0.96239  1.0000
  H   H28       1.0  0.74176  0.08289  0.020849999999999997  1.0000
  H   H29       1.0  0.36137  0.25466  0.14809  1.0000
  H   H30       1.0  0.20625  0.28709  0.20830999999999997  1.0000
  H   H31       1.0  0.18260999999999997  0.27386  0.1316  1.0000
  H   H32       1.0  0.00026999999999998775  0.34923  0.189  1.0000
  H   H33       1.0  0.8016699999999999  0.44520000000000004  0.20582  1.0000
  H   H34       1.0  0.8601  0.54856  0.17611999999999997  1.0000
  H   H35       1.0  0.02458000000000002  0.61311  0.13737  1.0000
  H   H36       1.0  0.23061999999999996  0.76158  0.12312  1.0000
  H   H37       1.0  0.29469000000000006  0.8672799999999999  0.10151  1.0000
  H   H38       1.0  0.64911  0.7956100000000002  0.9609199999999999  1.0000
  H   H39       1.0  0.6015300000000001  0.68626  0.9767  1.0000
  H   H40       1.0  0.8393599999999999  0.45668  0.0027899999999999995  1.0000
  H   H41       1.0  0.7592800000000001  0.53686  0.02179  1.0000
  H   H42       1.0  0.76431  0.47879  0.08233  1.0000
  H   H43       1.0  0.7619700000000001  0.24571  0.35144999999999993  1.0000
  H   H44       1.0  0.7008200000000001  0.21310999999999997  0.29133999999999993  1.0000
  H   H45       1.0  0.5856399999999997  0.22678999999999996  0.36789  1.0000
  H   H46       1.0  0.5367299999999999  0.15116  0.31087  1.0000
  H   H47       1.0  0.45303999999999994  0.05534  0.29345  1.0000
  H   H48       1.0  0.5847299999999999  0.9519800000000002  0.32364  1.0000
  H   H49       1.0  0.77404  0.88759  0.36271  1.0000
  H   H50       1.0  0.11493  0.73777  0.37727  1.0000
  H   H51       1.0  0.26508999999999994  0.63235  0.39901  1.0000
  H   H52       1.0  0.40438  0.70484  0.53908  1.0000
  H   H53       1.0  0.2604  0.81395  0.52326  1.0000
  H   H54       1.0  0.29922  0.04205  0.49621999999999994  1.0000
  H   H55       1.0  0.31964  0.96188  0.47703  1.0000
  H   H56       1.0  0.32556  0.02021  0.41667999999999994  1.0000
  H   H57       1.0  0.50032  0.649  0.74497  1.0000
  H   H58       1.0  0.59335  0.70911  0.71098  1.0000
  H   H59       1.0  0.69596  0.6326  0.72448  1.0000
  H   H60       1.0  0.8181099999999999  0.68876  0.64889  1.0000
  H   H61       1.0  0.99614  0.70666  0.55232  1.0000
  H   H62       1.0  0.96465  0.67693  0.44957  1.0000
  H   H63       1.0  0.83901  0.63772  0.38612  1.0000
  H   H64       1.0  0.6485699999999999  0.62311  0.23772999999999994  1.0000
  H   H65       1.0  0.604  0.6015  0.13264  1.0000
  H   H66       1.0  0.39139  0.46132  0.20517999999999997  1.0000
  H   H67       1.0  0.4256299999999999  0.47700000000000004  0.31404  1.0000
  H   H68       1.0  0.15827  0.50406  0.54262  1.0000
  H   H69       1.0  0.21872  0.52318  0.4625  1.0000
  H   H70       1.0  0.15463  0.58358  0.52083  1.0000
  H   H71       1.0  0.8923599999999998  0.85082  0.75411  1.0000
  H   H72       1.0  0.012660000000000036  0.7907999999999998  0.7877  1.0000
  H   H73       1.0  0.050350000000000075  0.86747  0.77454  1.0000
  H   H74       1.0  0.15430000000000013  0.8110399999999999  0.84952  1.0000
  H   H75       1.0  0.2544800000000001  0.7936099999999999  0.94557  1.0000
  H   H76       1.0  0.09015000000000005  0.8238299999999998  0.04879  1.0000
  H   H77       1.0  0.8630399999999999  0.8629  0.11238999999999999  1.0000
  H   H78       1.0  0.50866  0.8769399999999999  0.26101  1.0000
  H   H79       1.0  0.33844  0.8983  0.36713  1.0000
  H   H80       1.0  0.055390000000000016  0.03917  0.29636  1.0000
  H   H81       1.0  0.21257999999999996  0.0233  0.18675  1.0000
  H   H82       1.0  0.20445000000000005  0.99676  0.95752  1.0000
  H   H83       1.0  0.20274  0.97742  0.03760999999999999  1.0000
  H   H84       1.0  0.25824  0.9171  0.97915  1.0000
  H   H85       1.0  0.63862  0.74534  0.8519099999999997  1.0000
  H   H86       1.0  0.79374  0.71291  0.7916899999999999  1.0000
  H   H87       1.0  0.8173800000000001  0.72613  0.86839  1.0000
  H   H88       1.0  0.9997299999999996  0.65076  0.8109899999999999  1.0000
  H   H89       1.0  0.19831999999999997  0.5548  0.79418  1.0000
  H   H90       1.0  0.1399  0.45143999999999995  0.82388  1.0000
  H   H91       1.0  0.97541  0.38688  0.86263  1.0000
  H   H92       1.0  0.7693700000000001  0.23840999999999998  0.87688  1.0000
  H   H93       1.0  0.70531  0.13272  0.89848  1.0000
  H   H94       1.0  0.3508800000000001  0.20439000000000002  0.03907999999999999  1.0000
  H   H95       1.0  0.39847000000000005  0.31374  0.0233  1.0000
  H   H96       1.0  0.16064000000000006  0.54332  0.9972099999999999  1.0000
  H   H97       1.0  0.24070999999999995  0.46313000000000004  0.97821  1.0000
  H   H98       1.0  0.23569  0.5212  0.91767  1.0000
  H   H99       1.0  0.23801999999999998  0.75429  0.64855  1.0000
  H   H100      1.0  0.2991699999999999  0.7868800000000001  0.70866  1.0000
  H   H101      1.0  0.4143500000000001  0.7732  0.6321  1.0000
  H   H102      1.0  0.46326000000000006  0.84883  0.6891299999999999  1.0000
  H   H103      1.0  0.54696  0.9446499999999999  0.70655  1.0000
  H   H104      1.0  0.4152600000000002  0.04801  0.6763599999999999  1.0000
  H   H105      1.0  0.22594999999999998  0.11241  0.63729  1.0000
  H   H106      1.0  0.88506  0.26222  0.6227299999999999  1.0000
  H   H107      1.0  0.7349  0.36764  0.60099  1.0000
  H   H108      1.0  0.59562  0.29516  0.46091  1.0000
  H   H109      1.0  0.7395900000000001  0.18605  0.47674  1.0000
  H   H110      1.0  0.70077  0.95794  0.50378  1.0000
  H   H111      1.0  0.68035  0.03812  0.52297  1.0000
  H   H112      1.0  0.67443  0.97978  0.58332  1.0000
  C   C1        1.0  0.4046899999999999  0.34133  0.28888  1.0000
  C   C2        1.0  0.3111300000000001  0.35218  0.39899  1.0000
  C   C3        1.0  0.19495000000000007  0.32501  0.3959999999999999  1.0000
  C   C4        1.0  0.09359000000000005  0.31492  0.45064  1.0000
  C   C5        1.0  0.11050999999999998  0.33185  0.50778  1.0000
  C   C6        1.0  0.22647000000000006  0.36051  0.5123999999999999  1.0000
  C   C7        1.0  0.3285900000000001  0.37263  0.45743999999999996  1.0000
  C   C8        1.0  0.23930999999999988  0.37451000000000007  0.57347  1.0000
  C   C9        1.0  0.44275000000000003  0.43619  0.6531299999999999  1.0000
  C   C10       1.0  0.4608900000000001  0.4482  0.7161999999999998  1.0000
  C   C11       1.0  0.40899000000000013  0.413  0.76793  1.0000
  C   C12       1.0  0.43309000000000003  0.42485  0.82587  1.0000
  C   C13       1.0  0.5528000000000003  0.50332  0.78515  1.0000
  C   C14       1.0  0.5346  0.49444000000000005  0.72524  1.0000
  C   C15       1.0  0.7836400000000002  0.46476  0.48906999999999995  1.0000
  C   C16       1.0  0.03702999999999999  0.15882  0.21211  1.0000
  C   C17       1.0  0.06467999999999999  0.14794  0.10205  1.0000
  C   C18       1.0  0.9176700000000001  0.17502  0.10544  1.0000
  C   C19       1.0  0.8603099999999999  0.18483  0.05107  1.0000
  C   C20       1.0  0.95128  0.16766  0.9937399999999998  1.0000
  C   C21       1.0  0.1011000000000001  0.13912  0.9887499999999999  1.0000
  C   C22       1.0  0.16106000000000004  0.12724  0.04339  1.0000
  C   C23       1.0  0.18869000000000002  0.1251  0.92744  1.0000
  C   C24       1.0  0.53481  0.06354  0.84693  1.0000
  C   C25       1.0  0.62777  0.05143  0.78373  1.0000
  C   C26       1.0  0.5911800000000001  0.08689  0.7324  1.0000
  C   C27       1.0  0.6845  0.07518  0.67411  1.0000
  C   C28       1.0  0.8436000000000002  0.99635  0.71388  1.0000
  C   C29       1.0  0.75739  0.005209999999999999  0.7741299999999999  1.0000
  C   C30       1.0  0.73845  0.03463  0.01085  1.0000
  C   C31       1.0  0.25549  0.2878  0.158  1.0000
  C   C32       1.0  0.16897000000000004  0.3980600000000001  0.14797  1.0000
  C   C33       1.0  0.02581000000000005  0.3943999999999999  0.17502  1.0000
  C   C34       1.0  0.9130699999999999  0.44873  0.18468  1.0000
  C   C35       1.0  0.94551  0.50626  0.16775  1.0000
  C   C36       1.0  0.09018999999999988  0.51159  0.13948  1.0000
  C   C37       1.0  0.20536999999999997  0.45686000000000004  0.12744  1.0000
  C   C38       1.0  0.11618999999999993  0.57294  0.12548  1.0000
  C   C39       1.0  0.38185  0.65295  0.06365  1.0000
  C   C40       1.0  0.4119  0.7161  0.0515  1.0000
  C   C41       1.0  0.32395  0.76771  0.08683999999999999  1.0000
  C   C42       1.0  0.35887  0.82591  0.075  1.0000
  C   C43       1.0  0.5580400000000001  0.78561  0.99634  1.0000
  C   C44       1.0  0.5321  0.72542  0.00526  1.0000
  C   C45       1.0  0.7501699999999999  0.48837  0.03418  1.0000
  C   C46       1.0  0.69946  0.21263000000000004  0.34164  1.0000
  C   C47       1.0  0.71322  0.10245  0.35207  1.0000
  C   C48       1.0  0.59402  0.10605999999999999  0.32483  1.0000
  C   C49       1.0  0.54603  0.05179000000000001  0.31494999999999995  1.0000
  C   C50       1.0  0.61879  0.9942700000000001  0.3321  1.0000
  C   C51       1.0  0.7396300000000001  0.98897  0.36072  1.0000
  C   C52       1.0  0.7876800000000002  0.0436  0.37276  1.0000
  C   C53       1.0  0.81295  0.92763  0.3748399999999999  1.0000
  C   C54       1.0  0.09601999999999994  0.84678  0.43652  1.0000
  C   C55       1.0  0.17755  0.78362  0.44859  1.0000
  C   C56       1.0  0.17818000000000006  0.7319  0.4133499999999999  1.0000
  C   C57       1.0  0.2606299999999999  0.67386  0.42526  1.0000
  C   C58       1.0  0.33904999999999996  0.71459  0.5037  1.0000
  C   C59       1.0  0.26038999999999995  0.77459  0.49477  1.0000
  C   C60       1.0  0.27340000000000003  0.010419999999999999  0.4649499999999999  1.0000
  C   C61       1.0  0.5953  0.65866  0.71111  1.0000
  C   C62       1.0  0.6888599999999999  0.64782  0.60101  1.0000
  C   C63       1.0  0.8050400000000001  0.67498  0.604  1.0000
  C   C64       1.0  0.9064000000000002  0.68507  0.54936  1.0000
  C   C65       1.0  0.8894799999999998  0.66814  0.49221999999999994  1.0000
  C   C66       1.0  0.77352  0.63949  0.4875899999999999  1.0000
  C   C67       1.0  0.6714100000000001  0.62737  0.54255  1.0000
  C   C68       1.0  0.76068  0.62548  0.42653  1.0000
  C   C69       1.0  0.5572400000000002  0.5638  0.34685999999999995  1.0000
  C   C70       1.0  0.5391  0.5518  0.28379  1.0000
  C   C71       1.0  0.591  0.587  0.23207  1.0000
  C   C72       1.0  0.5669100000000001  0.57515  0.17413  1.0000
  C   C73       1.0  0.4471999999999999  0.49668  0.21485  1.0000
  C   C74       1.0  0.46539  0.50556  0.27476  1.0000
  C   C75       1.0  0.21636000000000002  0.53524  0.51093  1.0000
  C   C76       1.0  0.9629600000000004  0.8411799999999999  0.78788  1.0000
  C   C77       1.0  0.93532  0.85206  0.89795  1.0000
  C   C78       1.0  0.08233000000000001  0.82498  0.89456  1.0000
  C   C79       1.0  0.13969000000000015  0.81517  0.9489299999999998  1.0000
  C   C80       1.0  0.04871  0.83233  0.00626  1.0000
  C   C81       1.0  0.8989  0.86087  0.01125  1.0000
  C   C82       1.0  0.8389300000000002  0.87275  0.9566099999999998  1.0000
  C   C83       1.0  0.8113  0.8749  0.07256  1.0000
  C   C84       1.0  0.4651899999999998  0.93646  0.15306999999999998  1.0000
  C   C85       1.0  0.37222  0.94857  0.21627  1.0000
  C   C86       1.0  0.40881  0.9131099999999999  0.26759  1.0000
  C   C87       1.0  0.31549999999999995  0.9248100000000001  0.32588  1.0000
  C   C88       1.0  0.15639  0.00364  0.28612  1.0000
  C   C89       1.0  0.24260000000000007  0.9947900000000001  0.22587  1.0000
  C   C90       1.0  0.26155000000000017  0.96537  0.9891399999999999  1.0000
  C   C91       1.0  0.7445000000000002  0.7122  0.8419999999999999  1.0000
  C   C92       1.0  0.8310199999999999  0.60193  0.8520299999999998  1.0000
  C   C93       1.0  0.9741800000000002  0.60559  0.8249799999999999  1.0000
  C   C94       1.0  0.08691999999999997  0.55126  0.81532  1.0000
  C   C95       1.0  0.054479999999999994  0.49373  0.8322499999999999  1.0000
  C   C96       1.0  0.9098  0.48840000000000006  0.86051  1.0000
  C   C97       1.0  0.7946200000000003  0.54314  0.8725599999999999  1.0000
  C   C98       1.0  0.88381  0.42706  0.87451  1.0000
  C   C99       1.0  0.61815  0.34704  0.93634  1.0000
  C   C100      1.0  0.5880899999999997  0.2839  0.9485  1.0000
  C   C101      1.0  0.67605  0.23229  0.9131499999999999  1.0000
  C   C102      1.0  0.6411299999999999  0.17409  0.925  1.0000
  C   C103      1.0  0.44195  0.21438  0.00366  1.0000
  C   C104      1.0  0.4678999999999999  0.27457  0.99473  1.0000
  C   C105      1.0  0.24982000000000001  0.51163  0.96582  1.0000
  C   C106      1.0  0.30053  0.78737  0.65836  1.0000
  C   C107      1.0  0.28677  0.8975499999999998  0.64793  1.0000
  C   C108      1.0  0.40596999999999994  0.89394  0.67517  1.0000
  C   C109      1.0  0.45395999999999986  0.94821  0.68505  1.0000
  C   C110      1.0  0.3812000000000001  0.00573  0.6678899999999999  1.0000
  C   C111      1.0  0.26037000000000005  0.011029999999999998  0.63928  1.0000
  C   C112      1.0  0.21230999999999992  0.9564  0.62724  1.0000
  C   C113      1.0  0.18704  0.07237  0.62516  1.0000
  C   C114      1.0  0.90397  0.15322  0.56347  1.0000
  C   C115      1.0  0.82244  0.21636999999999998  0.5514099999999998  1.0000
  C   C116      1.0  0.82181  0.26809  0.58665  1.0000
  C   C117      1.0  0.73936  0.32613  0.57474  1.0000
  C   C118      1.0  0.6609500000000001  0.28541  0.49629999999999996  1.0000
  C   C119      1.0  0.7396  0.22540000000000002  0.5052299999999998  1.0000
  C   C120      1.0  0.72659  0.98958  0.53505  1.0000
  N   N1        1.0  0.34057  0.40042999999999995  0.58595  1.0000
  N   N2        1.0  0.33798999999999996  0.40766  0.64875  1.0000
  N   N3        1.0  0.50389  0.46918  0.8349299999999998  1.0000
  N   N4        1.0  0.32897000000000004  0.09959  0.9144  1.0000
  N   N5        1.0  0.39664999999999995  0.09228  0.85159  1.0000
  N   N6        1.0  0.80915  0.03071  0.66444  1.0000
  N   N7        1.0  0.24358  0.58573  0.09986999999999999  1.0000
  N   N8        1.0  0.24825000000000003  0.64857  0.0924  1.0000
  N   N9        1.0  0.4738799999999999  0.8353  0.03051  1.0000
  N   N10       1.0  0.92698  0.91458  0.40062999999999993  1.0000
  N   N11       1.0  0.9867099999999999  0.85158  0.40799  1.0000
  N   N12       1.0  0.34048  0.66477  0.46957  1.0000
  N   N13       1.0  0.65942  0.59956  0.41405  1.0000
  N   N14       1.0  0.66201  0.59234  0.35125  1.0000
  N   N15       1.0  0.49611000000000005  0.53081  0.16506999999999997  1.0000
  N   N16       1.0  0.67102  0.9004099999999999  0.08559999999999998  1.0000
  N   N17       1.0  0.6033499999999999  0.9077099999999999  0.14841  1.0000
  N   N18       1.0  0.19083999999999987  0.96929  0.33556  1.0000
  N   N19       1.0  0.7564100000000001  0.41426999999999997  0.90013  1.0000
  N   N20       1.0  0.7517500000000001  0.35143  0.9076  1.0000
  N   N21       1.0  0.5261200000000001  0.1647  0.9694899999999999  1.0000
  N   N22       1.0  0.07300999999999999  0.08542  0.59937  1.0000
  N   N23       1.0  0.013280000000000007  0.14842  0.59201  1.0000
  N   N24       1.0  0.65951  0.33523  0.53043  1.0000
  O   O1        1.0  0.41740999999999995  0.36134  0.34813  1.0000
  O   O2        1.0  0.4373900000000001  0.39993  0.45741  1.0000
  O   O3        1.0  0.5336  0.45397  0.6053799999999999  1.0000
  O   O4        1.0  0.6395799999999999  0.47278999999999993  0.47836999999999996  1.0000
  O   O5        1.0  0.12988000000000002  0.13908  0.15265999999999996  1.0000
  O   O6        1.0  0.29767  0.09995  0.04286  1.0000
  O   O7        1.0  0.5960599999999999  0.0457  0.89442  1.0000
  O   O8        1.0  0.59139  0.02701  0.02169  1.0000
  O   O9        1.0  0.2857900000000001  0.34771  0.13882999999999998  1.0000
  O   O10       1.0  0.34131  0.45723  0.09993  1.0000
  O   O11       1.0  0.49075  0.60515  0.04582  1.0000
  O   O12       1.0  0.61396  0.47712999999999994  0.02713  1.0000
  O   O13       1.0  0.7704200000000001  0.15273  0.36109  1.0000
  O   O14       1.0  0.89633  0.04293  0.40018999999999993  1.0000
  O   O15       1.0  0.13915000000000002  0.89436  0.45434  1.0000
  O   O16       1.0  0.11849999999999998  0.02153  0.47282  1.0000
  O   O17       1.0  0.58258  0.63865  0.65186  1.0000
  O   O18       1.0  0.56261  0.60006  0.54258  1.0000
  O   O19       1.0  0.46639000000000014  0.54602  0.39461999999999997  1.0000
  O   O20       1.0  0.36042  0.5272  0.52163  1.0000
  O   O21       1.0  0.87012  0.86092  0.8473399999999998  1.0000
  O   O22       1.0  0.70232  0.90004  0.95714  1.0000
  O   O23       1.0  0.40393000000000007  0.9542999999999999  0.10558  1.0000
  O   O24       1.0  0.40861000000000003  0.97299  0.9783  1.0000
  O   O25       1.0  0.7142  0.65228  0.86117  1.0000
  O   O26       1.0  0.6586800000000002  0.54277  0.90007  1.0000
  O   O27       1.0  0.5092500000000001  0.39484  0.95418  1.0000
  O   O28       1.0  0.38603000000000004  0.52287  0.9728699999999998  1.0000
  O   O29       1.0  0.2295800000000001  0.84727  0.6389099999999999  1.0000
  O   O30       1.0  0.10366000000000009  0.95707  0.5998  1.0000
  O   O31       1.0  0.86084  0.10564  0.54566  1.0000
  O   O32       1.0  0.8814999999999998  0.97847  0.5271799999999999  1.0000
