data_image0
_chemical_formula_structural       Fe6H96C144N60
_chemical_formula_sum              "Fe6 H96 C144 N60"
_cell_length_a       15.91024
_cell_length_b       18.731349999999996
_cell_length_c       18.73136
_cell_angle_alpha    112.36651
_cell_angle_beta     106.52899
_cell_angle_gamma    106.52852999999999

_symmetry_space_group_name_H-M    'P 1'
_symmetry_Int_Tables_number       1

loop_
  _symmetry_equiv_pos_as_xyz
  'x,y,z'

loop_
  _atom_site_type_symbol
  _atom_site_label
  _atom_site_symmetry_multiplicity
  _atom_site_fract_x
  _atom_site_fract_y
  _atom_site_fract_z
  _atom_site_occupancy
  Fe  Fe1       1.0  0.9999699999999999  0.5000099999999998  0.5000099999999997  1.0000
  Fe  Fe2       1.0  0.50003  0.99997  0.4999699999999999  1.0000
  Fe  Fe3       1.0  0.50002  0.4999999999999999  0.9999699999999999  1.0000
  Fe  Fe4       1.0  0.99998  2.9999999999976558e-05  0.49999  1.0000
  Fe  Fe5       1.0  0.50002  0.49999  0.4999999999999999  1.0000
  Fe  Fe6       1.0  0.9999600000000001  0.50006  7.999999999999998e-05  1.0000
  H   H1        1.0  0.09038999999999991  0.7359199999999999  0.8019899999999998  1.0000
  H   H2        1.0  0.003890000000000037  0.81782  0.75967  1.0000
  H   H3        1.0  0.9079100000000002  0.76287  0.60197  1.0000
  H   H4        1.0  0.9026700000000004  0.62914  0.49374  1.0000
  H   H5        1.0  0.76088  0.3892  0.08639  1.0000
  H   H6        1.0  0.64228  0.4141199999999998  0.9900499999999998  1.0000
  H   H7        1.0  0.6217199999999999  0.58558  0.19598999999999994  1.0000
  H   H8        1.0  0.74037  0.5681899999999999  0.3004699999999999  1.0000
  H   H9        1.0  0.35399000000000014  0.06562  0.2644  1.0000
  H   H10       1.0  0.18498000000000012  0.94094  0.18190999999999993  1.0000
  H   H11       1.0  0.14385999999999996  0.83818  0.23646999999999999  1.0000
  H   H12       1.0  0.27275000000000005  0.8640899999999999  0.37042999999999987  1.0000
  H   H13       1.0  0.37228  0.69772  0.61059  1.0000
  H   H14       1.0  0.22843000000000005  0.57644  0.58582  1.0000
  H   H15       1.0  0.03537999999999996  0.6102399999999999  0.4142399999999999  1.0000
  H   H16       1.0  0.17181999999999994  0.73213  0.43162  1.0000
  H   H17       1.0  0.2885999999999999  0.19797999999999985  0.9335599999999997  1.0000
  H   H18       1.0  0.24449999999999997  0.24002  0.05787999999999999  1.0000
  H   H19       1.0  0.30597000000000013  0.39768  0.16072  1.0000
  H   H20       1.0  0.4088200000000001  0.50608  0.13531  1.0000
  H   H21       1.0  0.67435  0.91396  0.30272  1.0000
  H   H22       1.0  0.6517200000000001  0.010139999999999991  0.42369  1.0000
  H   H23       1.0  0.4254  0.80374  0.38928  1.0000
  H   H24       1.0  0.44006999999999996  0.6993  0.2677599999999999  1.0000
  H   H25       1.0  0.90961  0.26407  0.19800999999999994  1.0000
  H   H26       1.0  0.9961  0.18217999999999998  0.24032999999999993  1.0000
  H   H27       1.0  0.09207999999999997  0.23712  0.39803  1.0000
  H   H28       1.0  0.0973299999999999  0.37085999999999997  0.5062599999999998  1.0000
  H   H29       1.0  0.2391199999999999  0.6107999999999998  0.9136099999999998  1.0000
  H   H30       1.0  0.35773  0.58588  0.00996  1.0000
  H   H31       1.0  0.37827999999999984  0.4144199999999999  0.8039999999999998  1.0000
  H   H32       1.0  0.25962  0.43181  0.69953  1.0000
  H   H33       1.0  0.6460099999999999  0.9343799999999999  0.7355999999999998  1.0000
  H   H34       1.0  0.8150100000000002  0.05906999999999989  0.8180999999999998  1.0000
  H   H35       1.0  0.8561399999999999  0.1618099999999999  0.7635299999999998  1.0000
  H   H36       1.0  0.7272600000000001  0.1358999999999999  0.6295599999999998  1.0000
  H   H37       1.0  0.62772  0.30229  0.38941  1.0000
  H   H38       1.0  0.77157  0.4235599999999999  0.4141899999999999  1.0000
  H   H39       1.0  0.9646200000000001  0.38976999999999984  0.5857699999999998  1.0000
  H   H40       1.0  0.8281799999999999  0.26786999999999983  0.5683899999999997  1.0000
  H   H41       1.0  0.7114  0.80202  0.06643999999999997  1.0000
  H   H42       1.0  0.7555099999999999  0.75999  0.9421199999999997  1.0000
  H   H43       1.0  0.69405  0.6023299999999999  0.8392799999999998  1.0000
  H   H44       1.0  0.5911899999999998  0.49392999999999976  0.8646799999999998  1.0000
  H   H45       1.0  0.32565  0.08602999999999995  0.69728  1.0000
  H   H46       1.0  0.3482800000000001  0.9898500000000001  0.5763099999999998  1.0000
  H   H47       1.0  0.5746100000000002  0.1962499999999999  0.6107199999999998  1.0000
  H   H48       1.0  0.55993  0.30069  0.73223  1.0000
  H   H49       1.0  0.21140000000000012  0.06643999999999999  0.80202  1.0000
  H   H50       1.0  0.2554899999999999  0.9421199999999998  0.7599799999999998  1.0000
  H   H51       1.0  0.19402999999999984  0.8392799999999998  0.6023199999999997  1.0000
  H   H52       1.0  0.09117000000000001  0.86468  0.4939199999999999  1.0000
  H   H53       1.0  0.8256500000000002  0.69728  0.08603999999999998  1.0000
  H   H54       1.0  0.84828  0.57631  0.98987  1.0000
  H   H55       1.0  0.07459999999999996  0.61072  0.19626999999999994  1.0000
  H   H56       1.0  0.05992999999999998  0.73224  0.3007  1.0000
  H   H57       1.0  0.40960000000000013  0.19799999999999998  0.26407  1.0000
  H   H58       1.0  0.49610000000000004  0.24032000000000003  0.18216999999999994  1.0000
  H   H59       1.0  0.59208  0.39801999999999993  0.23711  1.0000
  H   H60       1.0  0.5973300000000002  0.50625  0.37085  1.0000
  H   H61       1.0  0.73911  0.91361  0.6108  1.0000
  H   H62       1.0  0.8577199999999999  0.009959999999999932  0.5858799999999997  1.0000
  H   H63       1.0  0.8782700000000001  0.80401  0.4144199999999999  1.0000
  H   H64       1.0  0.7596299999999999  0.6995299999999999  0.4318099999999999  1.0000
  H   H65       1.0  0.14600999999999992  0.7355999999999999  0.9343799999999998  1.0000
  H   H66       1.0  0.31502  0.8181  0.059069999999999984  1.0000
  H   H67       1.0  0.3561400000000001  0.76353  0.16182  1.0000
  H   H68       1.0  0.22725000000000006  0.62956  0.13591  1.0000
  H   H69       1.0  0.12772000000000006  0.38941  0.30229  1.0000
  H   H70       1.0  0.2715700000000001  0.41418  0.42356  1.0000
  H   H71       1.0  0.46462000000000003  0.58576  0.38976  1.0000
  H   H72       1.0  0.32816999999999996  0.56839  0.2678699999999999  1.0000
  H   H73       1.0  0.7885900000000001  0.9335600000000001  0.19797999999999993  1.0000
  H   H74       1.0  0.74449  0.05788  0.24001  1.0000
  H   H75       1.0  0.8059600000000002  0.16071999999999995  0.3976699999999999  1.0000
  H   H76       1.0  0.9088099999999998  0.1353199999999999  0.5060699999999998  1.0000
  H   H77       1.0  0.17434999999999992  0.3027199999999999  0.9139599999999998  1.0000
  H   H78       1.0  0.15172  0.42369  0.010139999999999996  1.0000
  H   H79       1.0  0.9254000000000002  0.3892799999999999  0.8037499999999997  1.0000
  H   H80       1.0  0.94007  0.26777  0.69931  1.0000
  H   H81       1.0  0.5903899999999999  0.8019799999999999  0.7359199999999998  1.0000
  H   H82       1.0  0.50389  0.75966  0.81781  1.0000
  H   H83       1.0  0.40791  0.60196  0.76287  1.0000
  H   H84       1.0  0.40266999999999986  0.49372999999999984  0.6291299999999997  1.0000
  H   H85       1.0  0.26088  0.08638000000000003  0.3892  1.0000
  H   H86       1.0  0.14226  0.99004  0.41412  1.0000
  H   H87       1.0  0.12173  0.19600999999999993  0.5855799999999999  1.0000
  H   H88       1.0  0.24038000000000012  0.30047  0.56819  1.0000
  H   H89       1.0  0.85399  0.26439999999999997  0.06562  1.0000
  H   H90       1.0  0.6849900000000001  0.1818999999999999  0.94094  1.0000
  H   H91       1.0  0.64387  0.23647000000000004  0.83819  1.0000
  H   H92       1.0  0.7727600000000001  0.3704399999999999  0.8640999999999998  1.0000
  H   H93       1.0  0.87228  0.61059  0.69772  1.0000
  H   H94       1.0  0.72844  0.58581  0.57645  1.0000
  H   H95       1.0  0.53538  0.41423  0.61023  1.0000
  H   H96       1.0  0.6718299999999999  0.43160999999999994  0.7321399999999998  1.0000
  C   C1        1.0  0.9057100000000002  0.40648999999999996  0.31168  1.0000
  C   C2        1.0  0.17721999999999993  0.5402799999999998  0.7396599999999998  1.0000
  C   C3        1.0  0.9556899999999999  0.35688999999999993  0.32929999999999987  1.0000
  C   C4        1.0  0.049529999999999894  0.71639  0.7350099999999998  1.0000
  C   C5        1.0  0.0007999999999999983  0.76059  0.71096  1.0000
  C   C6        1.0  0.94709  0.73022  0.62336  1.0000
  C   C7        1.0  0.9438900000000001  0.65619  0.56282  1.0000
  C   C8        1.0  0.24111999999999986  0.5244799999999998  0.7984199999999998  1.0000
  C   C9        1.0  0.26848  0.5668699999999999  0.8872299999999997  1.0000
  C   C10       1.0  0.33423999999999987  0.5529099999999999  0.9407899999999998  1.0000
  C   C11       1.0  0.6544200000000002  0.54297  0.17416999999999994  1.0000
  C   C12       1.0  0.7200800000000005  0.53306  0.23203  1.0000
  C   C13       1.0  0.49944999999999995  0.9053099999999998  0.5931199999999998  1.0000
  C   C14       1.0  0.63701  0.19944  0.46018  1.0000
  C   C15       1.0  0.59931  0.97276  0.64299  1.0000
  C   C16       1.0  0.3324700000000001  0.018099999999999984  0.28367  1.0000
  C   C17       1.0  0.23928000000000002  0.94963  0.23918999999999996  1.0000
  C   C18       1.0  0.21589000000000005  0.89239  0.26937  1.0000
  C   C19       1.0  0.28691000000000016  0.9060799999999999  0.34349  1.0000
  C   C20       1.0  0.7167300000000002  0.27394999999999997  0.4758499999999999  1.0000
  C   C21       1.0  0.7013400000000002  0.3200699999999999  0.4333399999999999  1.0000
  C   C22       1.0  0.7811800000000002  0.3875199999999999  0.4472099999999999  1.0000
  C   C23       1.0  0.11094999999999998  0.63114  0.4568399999999999  1.0000
  C   C24       1.0  0.18663  0.69885  0.4666599999999999  1.0000
  C   C25       1.0  0.5942500000000002  0.68823  0.09512999999999998  1.0000
  C   C26       1.0  0.43742  0.2603399999999999  0.8003999999999998  1.0000
  C   C27       1.0  0.6265000000000002  0.67069  0.027859999999999996  1.0000
  C   C28       1.0  0.3145999999999999  0.2649199999999999  0.9810799999999997  1.0000
  C   C29       1.0  0.28997  0.28882  0.049379999999999986  1.0000
  C   C30       1.0  0.32376  0.37639  0.10664999999999997  1.0000
  C   C31       1.0  0.38098  0.43702  0.09321  1.0000
  C   C32       1.0  0.4426900000000002  0.20153  0.72602  1.0000
  C   C33       1.0  0.38142  0.11258999999999997  0.67978  1.0000
  C   C34       1.0  0.3938499999999998  0.05909999999999987  0.6124299999999998  1.0000
  C   C35       1.0  0.47998  0.8256899999999999  0.3685699999999999  1.0000
  C   C36       1.0  0.48803  0.76785  0.30099  1.0000
  C   C37       1.0  0.0942899999999999  0.5935099999999999  0.6883299999999998  1.0000
  C   C38       1.0  0.8227700000000002  0.4597200000000001  0.2603399999999999  1.0000
  C   C39       1.0  0.044309999999999926  0.64311  0.6707099999999998  1.0000
  C   C40       1.0  0.9504700000000003  0.2836099999999999  0.2649899999999999  1.0000
  C   C41       1.0  0.9992  0.23941  0.28903999999999996  1.0000
  C   C42       1.0  0.05290999999999995  0.26977999999999996  0.37663999999999986  1.0000
  C   C43       1.0  0.05610999999999997  0.34380999999999995  0.4371899999999999  1.0000
  C   C44       1.0  0.7588800000000002  0.47551000000000004  0.20158999999999994  1.0000
  C   C45       1.0  0.73152  0.43313  0.11277  1.0000
  C   C46       1.0  0.6657700000000002  0.44709000000000004  0.05921999999999999  1.0000
  C   C47       1.0  0.34557999999999994  0.45702999999999994  0.8258299999999997  1.0000
  C   C48       1.0  0.27990999999999994  0.46694  0.76797  1.0000
  C   C49       1.0  0.5005499999999998  0.09467999999999994  0.40687999999999996  1.0000
  C   C50       1.0  0.3629899999999998  0.8005599999999998  0.5398199999999997  1.0000
  C   C51       1.0  0.4006899999999999  0.02723999999999996  0.3570099999999999  1.0000
  C   C52       1.0  0.66752  0.9819  0.71633  1.0000
  C   C53       1.0  0.7607200000000002  0.050369999999999915  0.7608199999999998  1.0000
  C   C54       1.0  0.7841  0.10761  0.73063  1.0000
  C   C55       1.0  0.7131  0.09391999999999988  0.6565099999999998  1.0000
  C   C56       1.0  0.28327000000000013  0.72605  0.52415  1.0000
  C   C57       1.0  0.29866  0.67994  0.56667  1.0000
  C   C58       1.0  0.21881999999999996  0.61248  0.5527999999999997  1.0000
  C   C59       1.0  0.8890500000000002  0.3688599999999999  0.5431699999999998  1.0000
  C   C60       1.0  0.8133699999999999  0.30115  0.5333399999999998  1.0000
  C   C61       1.0  0.4057599999999999  0.3117599999999998  0.9048599999999998  1.0000
  C   C62       1.0  0.56259  0.73965  0.1996  1.0000
  C   C63       1.0  0.37350999999999984  0.3293099999999998  0.9721399999999998  1.0000
  C   C64       1.0  0.6854100000000002  0.73508  0.01891  1.0000
  C   C65       1.0  0.7100400000000002  0.71119  0.95062  1.0000
  C   C66       1.0  0.6762500000000001  0.6236199999999998  0.8933499999999998  1.0000
  C   C67       1.0  0.61903  0.56298  0.9067799999999998  1.0000
  C   C68       1.0  0.5573099999999999  0.7984599999999998  0.2739799999999999  1.0000
  C   C69       1.0  0.61858  0.8874  0.32021  1.0000
  C   C70       1.0  0.60616  0.94089  0.3875699999999999  1.0000
  C   C71       1.0  0.52002  0.1743  0.63143  1.0000
  C   C72       1.0  0.5119800000000002  0.23214  0.699  1.0000
  C   C73       1.0  0.9057500000000005  0.90487  0.31176  1.0000
  C   C74       1.0  0.0625799999999999  0.1996099999999999  0.7396599999999998  1.0000
  C   C75       1.0  0.8735000000000004  0.97214  0.32929999999999987  1.0000
  C   C76       1.0  0.18539999999999998  0.018909999999999896  0.7350799999999997  1.0000
  C   C77       1.0  0.21002  0.95062  0.71118  1.0000
  C   C78       1.0  0.17623999999999992  0.8933399999999999  0.6236099999999999  1.0000
  C   C79       1.0  0.11901  0.9067800000000001  0.56298  1.0000
  C   C80       1.0  0.057309999999999875  0.2739799999999999  0.7984699999999998  1.0000
  C   C81       1.0  0.11857999999999995  0.32021999999999995  0.8874099999999998  1.0000
  C   C82       1.0  0.10614999999999994  0.38756999999999997  0.9408999999999997  1.0000
  C   C83       1.0  0.020019999999999993  0.63143  0.17431  1.0000
  C   C84       1.0  0.011970000000000019  0.6990100000000001  0.23215  1.0000
  C   C85       1.0  0.5942899999999998  0.68832  0.5934999999999998  1.0000
  C   C86       1.0  0.3227800000000001  0.26033999999999996  0.4597199999999999  1.0000
  C   C87       1.0  0.5443099999999998  0.6706899999999999  0.6431099999999997  1.0000
  C   C88       1.0  0.4504700000000001  0.26498  0.2836  1.0000
  C   C89       1.0  0.4992000000000001  0.28903  0.23939999999999995  1.0000
  C   C90       1.0  0.55291  0.37663  0.26977  1.0000
  C   C91       1.0  0.55611  0.43717  0.3438  1.0000
  C   C92       1.0  0.25887999999999994  0.20157999999999993  0.4755099999999999  1.0000
  C   C93       1.0  0.23152000000000006  0.11277  0.43313  1.0000
  C   C94       1.0  0.16576000000000002  0.05922000000000002  0.44708999999999993  1.0000
  C   C95       1.0  0.84558  0.82583  0.4570299999999999  1.0000
  C   C96       1.0  0.7799200000000001  0.7679699999999999  0.4669399999999999  1.0000
  C   C97       1.0  0.0005499999999999953  0.40688  0.09468999999999997  1.0000
  C   C98       1.0  0.8630000000000001  0.53982  0.80057  1.0000
  C   C99       1.0  0.9006900000000002  0.35701  0.027239999999999993  1.0000
  C   C100      1.0  0.16752999999999993  0.7163299999999999  0.9819099999999997  1.0000
  C   C101      1.0  0.26072  0.76081  0.050369999999999984  1.0000
  C   C102      1.0  0.28409999999999996  0.7306299999999999  0.10760999999999997  1.0000
  C   C103      1.0  0.21309  0.65651  0.09391999999999998  1.0000
  C   C104      1.0  0.7832800000000002  0.52415  0.7260499999999999  1.0000
  C   C105      1.0  0.79866  0.56666  0.67994  1.0000
  C   C106      1.0  0.7188300000000001  0.5527899999999999  0.6124799999999998  1.0000
  C   C107      1.0  0.3890500000000001  0.54316  0.36886  1.0000
  C   C108      1.0  0.31337  0.53334  0.30115  1.0000
  C   C109      1.0  0.09423999999999988  0.09513999999999988  0.6882299999999998  1.0000
  C   C110      1.0  0.93741  0.8004  0.2603399999999999  1.0000
  C   C111      1.0  0.12649000000000005  0.02786000000000001  0.67069  1.0000
  C   C112      1.0  0.81458  0.9810799999999998  0.26490999999999987  1.0000
  C   C113      1.0  0.78996  0.04937999999999998  0.28881  1.0000
  C   C114      1.0  0.8237500000000002  0.10665  0.37638  1.0000
  C   C115      1.0  0.88097  0.09321999999999994  0.4370099999999999  1.0000
  C   C116      1.0  0.9426899999999997  0.72602  0.20152999999999993  1.0000
  C   C117      1.0  0.8814200000000002  0.67979  0.11258999999999997  1.0000
  C   C118      1.0  0.89384  0.61243  0.05910999999999999  1.0000
  C   C119      1.0  0.9799799999999999  0.36856999999999984  0.8257099999999998  1.0000
  C   C120      1.0  0.9880300000000001  0.301  0.76787  1.0000
  C   C121      1.0  0.40571  0.31167  0.40649  1.0000
  C   C122      1.0  0.67723  0.7396499999999999  0.54028  1.0000
  C   C123      1.0  0.45569  0.32929  0.35687999999999986  1.0000
  C   C124      1.0  0.54952  0.735  0.71638  1.0000
  C   C125      1.0  0.50079  0.71095  0.76058  1.0000
  C   C126      1.0  0.4470900000000001  0.62335  0.73021  1.0000
  C   C127      1.0  0.44390000000000013  0.5628  0.65618  1.0000
  C   C128      1.0  0.7411200000000002  0.79841  0.52449  1.0000
  C   C129      1.0  0.76848  0.8872299999999999  0.56687  1.0000
  C   C130      1.0  0.8342300000000002  0.9407799999999998  0.5529099999999998  1.0000
  C   C131      1.0  0.15441999999999995  0.17417999999999997  0.5429699999999997  1.0000
  C   C132      1.0  0.22009000000000004  0.23203  0.53306  1.0000
  C   C133      1.0  0.99945  0.5931199999999999  0.9053199999999998  1.0000
  C   C134      1.0  0.13700999999999997  0.46018000000000003  0.19944  1.0000
  C   C135      1.0  0.09930999999999994  0.6429899999999998  0.9727699999999998  1.0000
  C   C136      1.0  0.83248  0.28367  0.0181  1.0000
  C   C137      1.0  0.7392799999999999  0.23918999999999996  0.9496299999999998  1.0000
  C   C138      1.0  0.7159  0.26936999999999994  0.8923999999999997  1.0000
  C   C139      1.0  0.7869099999999999  0.34348999999999996  0.9060899999999997  1.0000
  C   C140      1.0  0.21673  0.47585  0.27395  1.0000
  C   C141      1.0  0.20134999999999992  0.43332999999999994  0.3200699999999999  1.0000
  C   C142      1.0  0.28119  0.4472  0.38752  1.0000
  C   C143      1.0  0.61096  0.4568299999999998  0.6311399999999998  1.0000
  C   C144      1.0  0.6866299999999999  0.4666599999999998  0.6988499999999997  1.0000
  N   N1        1.0  0.08815999999999995  0.52584  0.6204699999999997  1.0000
  N   N2        1.0  0.14149999999999982  0.49124999999999985  0.6528399999999998  1.0000
  N   N3        1.0  0.8501400000000002  0.3951  0.23542  1.0000
  N   N4        1.0  0.008640000000000009  0.38687  0.4147399999999999  1.0000
  N   N5        1.0  0.3744900000000001  0.5001  0.9118  1.0000
  N   N6        1.0  0.5623600000000002  0.09489000000000002  0.4747  1.0000
  N   N7        1.0  0.6505400000000002  0.16199000000000005  0.50933  1.0000
  N   N8        1.0  0.45529  0.8405699999999998  0.6045499999999998  1.0000
  N   N9        1.0  0.62233  0.028199999999999975  0.61319  1.0000
  N   N10       1.0  0.8745600000000002  0.41149  0.49999  1.0000
  N   N11       1.0  0.46727  0.3796  0.90488  1.0000
  N   N12       1.0  0.48833  0.34715999999999986  0.8379899999999998  1.0000
  N   N13       1.0  0.6148  0.76454  0.15984999999999994  1.0000
  N   N14       1.0  0.59405  0.5853  0.97232  1.0000
  N   N15       1.0  0.46311  0.08822000000000005  0.58864  1.0000
  N   N16       1.0  0.9118400000000002  0.47415999999999997  0.37952999999999987  1.0000
  N   N17       1.0  0.8585  0.50875  0.34716  1.0000
  N   N18       1.0  0.14984999999999987  0.6048999999999998  0.7645899999999998  1.0000
  N   N19       1.0  0.9913499999999998  0.61313  0.58527  1.0000
  N   N20       1.0  0.6255100000000002  0.49990000000000007  0.08818999999999999  1.0000
  N   N21       1.0  0.43765  0.9051  0.52529  1.0000
  N   N22       1.0  0.34946  0.8380099999999999  0.4906599999999999  1.0000
  N   N23       1.0  0.54472  0.15942  0.39545  1.0000
  N   N24       1.0  0.37767  0.9717899999999999  0.38679999999999987  1.0000
  N   N25       1.0  0.12543999999999994  0.58851  0.5000099999999997  1.0000
  N   N26       1.0  0.53273  0.62039  0.0951  1.0000
  N   N27       1.0  0.5116700000000002  0.65283  0.16199999999999995  1.0000
  N   N28       1.0  0.38521000000000005  0.23546000000000003  0.84015  1.0000
  N   N29       1.0  0.4059600000000001  0.41469999999999996  0.027669999999999993  1.0000
  N   N30       1.0  0.5369  0.91176  0.41135  1.0000
  N   N31       1.0  0.032729999999999905  0.09511999999999989  0.6203999999999997  1.0000
  N   N32       1.0  0.011669999999999901  0.16201999999999986  0.6528399999999998  1.0000
  N   N33       1.0  0.8852000000000001  0.84015  0.23546  1.0000
  N   N34       1.0  0.90595  0.027680000000000003  0.4147  1.0000
  N   N35       1.0  0.036899999999999954  0.41135999999999984  0.9117799999999998  1.0000
  N   N36       1.0  0.41184  0.37951999999999997  0.4741499999999999  1.0000
  N   N37       1.0  0.35851  0.34715  0.50875  1.0000
  N   N38       1.0  0.6498600000000002  0.76458  0.6049  1.0000
  N   N39       1.0  0.49136000000000013  0.58525  0.6131299999999997  1.0000
  N   N40       1.0  0.12551  0.08819999999999997  0.4998899999999999  1.0000
  N   N41       1.0  0.93765  0.5252999999999999  0.9051199999999998  1.0000
  N   N42       1.0  0.8494600000000002  0.49067  0.83802  1.0000
  N   N43       1.0  0.04471000000000004  0.39545  0.15943  1.0000
  N   N44       1.0  0.8776699999999997  0.38679999999999987  0.9718099999999997  1.0000
  N   N45       1.0  0.62545  0.5  0.58851  1.0000
  N   N46       1.0  0.9672599999999999  0.90489  0.3796  1.0000
  N   N47       1.0  0.98833  0.83799  0.34716  1.0000
  N   N48       1.0  0.11478999999999992  0.15984999999999985  0.7645399999999998  1.0000
  N   N49       1.0  0.09404  0.97232  0.5852899999999998  1.0000
  N   N50       1.0  0.9631000000000002  0.58865  0.08823999999999997  1.0000
  N   N51       1.0  0.58817  0.62047  0.5258399999999998  1.0000
  N   N52       1.0  0.6415099999999999  0.6528399999999999  0.4912499999999999  1.0000
  N   N53       1.0  0.3501400000000001  0.23540999999999998  0.3951  1.0000
  N   N54       1.0  0.50865  0.41473  0.38686  1.0000
  N   N55       1.0  0.8744900000000002  0.91181  0.5001  1.0000
  N   N56       1.0  0.062349999999999975  0.47470999999999997  0.0949  1.0000
  N   N57       1.0  0.15054  0.50934  0.16199999999999995  1.0000
  N   N58       1.0  0.9552900000000002  0.60455  0.84058  1.0000
  N   N59       1.0  0.12232  0.6132  0.028209999999999992  1.0000
  N   N60       1.0  0.3745700000000001  0.49998  0.41149  1.0000
