data_image0
_chemical_formula_structural       In6H120C216O48
_chemical_formula_sum              "In6 H120 C216 O48"
_cell_length_a       17.66654
_cell_length_b       26.70418
_cell_length_c       26.72242
_cell_angle_alpha    120.10843000000001
_cell_angle_beta     89.95866
_cell_angle_gamma    90.11960000000002

_space_group_name_H-M_alt    "P 1"
_space_group_IT_number       1

loop_
  _space_group_symop_operation_xyz
  'x, y, z'

loop_
  _atom_site_type_symbol
  _atom_site_label
  _atom_site_symmetry_multiplicity
  _atom_site_fract_x
  _atom_site_fract_y
  _atom_site_fract_z
  _atom_site_occupancy
  In  In1       1.0  0.74567  0.3430799999999999  0.9512899999999997  1.0000
  In  In2       1.0  0.74951  0.60808  0.65654  1.0000
  In  In3       1.0  0.74821  0.04962999999999995  0.3934799999999999  1.0000
  In  In4       1.0  0.25175  0.65636  0.60705  1.0000
  In  In5       1.0  0.24776  0.39160999999999996  0.04844999999999999  1.0000
  In  In6       1.0  0.24818  0.95071  0.34263  1.0000
  H   H1        1.0  0.80232  0.05990999999999985  0.9058199999999997  1.0000
  H   H2        1.0  0.80036  0.14653999999999986  0.8938999999999998  1.0000
  H   H3        1.0  0.83792  0.51356  0.11889999999999999  1.0000
  H   H4        1.0  0.8385899999999998  0.6187  0.19164999999999993  1.0000
  H   H5        1.0  0.65946  0.6459499999999999  0.09835  1.0000
  H   H6        1.0  0.66106  0.54065  0.0248  1.0000
  H   H7        1.0  0.62755  0.71026  0.19438999999999995  1.0000
  H   H8        1.0  0.54508  0.74832  0.26215999999999995  1.0000
  H   H9        1.0  0.42108  0.79893  0.29219  1.0000
  H   H10       1.0  0.52723  0.95665  0.32137  1.0000
  H   H11       1.0  0.64972  0.90729  0.29048999999999997  1.0000
  H   H12       1.0  0.80879  0.8471299999999999  0.94097  1.0000
  H   H13       1.0  0.80903  0.74816  0.8543699999999999  1.0000
  H   H14       1.0  0.84017  0.6070099999999999  0.4870999999999999  1.0000
  H   H15       1.0  0.83949  0.57592  0.38235999999999987  1.0000
  H   H16       1.0  0.65872  0.4558  0.35445  1.0000
  H   H17       1.0  0.6618699999999998  0.4860299999999999  0.45925999999999995  1.0000
  H   H18       1.0  0.62826  0.48795  0.29017  1.0000
  H   H19       1.0  0.5417699999999999  0.5074  0.25089  1.0000
  H   H20       1.0  0.42027  0.48401999999999995  0.19721  1.0000
  H   H21       1.0  0.5377  0.36929  0.03896  1.0000
  H   H22       1.0  0.65754  0.38976  0.09138999999999997  1.0000
  H   H23       1.0  0.79951  0.09770999999999998  0.15563999999999997  1.0000
  H   H24       1.0  0.79923  0.10957999999999997  0.2540899999999999  1.0000
  H   H25       1.0  0.6284399999999999  0.7978599999999998  0.5080799999999999  1.0000
  H   H26       1.0  0.54732  0.73066  0.4809699999999999  1.0000
  H   H27       1.0  0.42456  0.6992899999999999  0.5020299999999999  1.0000
  H   H28       1.0  0.53367  0.67124  0.6298099999999999  1.0000
  H   H29       1.0  0.65503  0.70382  0.61132  1.0000
  H   H30       1.0  0.67793  0.24136999999999995  0.05317999999999999  1.0000
  H   H31       1.0  0.67424  0.15397  0.06381  1.0000
  H   H32       1.0  0.86993  0.70909  0.20035999999999998  1.0000
  H   H33       1.0  0.9531599999999999  0.74733  0.26405  1.0000
  H   H34       1.0  0.07665  0.79869  0.29435  1.0000
  H   H35       1.0  0.96739  0.95767  0.33109999999999995  1.0000
  H   H36       1.0  0.8456599999999999  0.9076399999999998  0.29956999999999995  1.0000
  H   H37       1.0  0.68518  0.81046  0.75865  1.0000
  H   H38       1.0  0.6792199999999999  0.9087  0.8459099999999998  1.0000
  H   H39       1.0  0.87081  0.49333  0.29243  1.0000
  H   H40       1.0  0.953  0.52275  0.25222  1.0000
  H   H41       1.0  0.07725  0.5006  0.20138  1.0000
  H   H42       1.0  0.97214  0.36585  0.04671  1.0000
  H   H43       1.0  0.8496999999999998  0.38586999999999994  0.09643  1.0000
  H   H44       1.0  0.68921  0.9449299999999999  0.18807  1.0000
  H   H45       1.0  0.68372  0.93403  0.09016  1.0000
  H   H46       1.0  0.66256  0.87761  0.39183999999999997  1.0000
  H   H47       1.0  0.66225  0.8056299999999997  0.4250299999999999  1.0000
  H   H48       1.0  0.83442  0.9043699999999999  0.5508399999999999  1.0000
  H   H49       1.0  0.8314100000000001  0.97775  0.5191499999999999  1.0000
  H   H50       1.0  0.8708  0.8079999999999999  0.5175  1.0000
  H   H51       1.0  0.9544  0.7388599999999999  0.4864899999999999  1.0000
  H   H52       1.0  0.07809  0.70743  0.50577  1.0000
  H   H53       1.0  0.97353  0.68225  0.63728  1.0000
  H   H54       1.0  0.85141  0.7140799999999999  0.61947  1.0000
  H   H55       1.0  0.19252  0.7578899999999998  0.8098  1.0000
  H   H56       1.0  0.18846  0.84481  0.90843  1.0000
  H   H57       1.0  0.37057  0.29054  0.4907  1.0000
  H   H58       1.0  0.4515  0.25097999999999987  0.5196599999999999  1.0000
  H   H59       1.0  0.57472  0.19943000000000005  0.49946  1.0000
  H   H60       1.0  0.4686  0.04340999999999996  0.3676099999999999  1.0000
  H   H61       1.0  0.34669999999999995  0.09346999999999994  0.3862199999999999  1.0000
  H   H62       1.0  0.30505  0.15502  0.09544999999999998  1.0000
  H   H63       1.0  0.30252  0.25365  0.10729999999999999  1.0000
  H   H64       1.0  0.18561  0.18725  0.94558  1.0000
  H   H65       1.0  0.18266  0.08907000000000002  0.93475  1.0000
  H   H66       1.0  0.37269  0.5074  0.80048  1.0000
  H   H67       1.0  0.45551  0.4780199999999999  0.73269  1.0000
  H   H68       1.0  0.57995  0.49906  0.70344  1.0000
  H   H69       1.0  0.47517  0.62895  0.67617  1.0000
  H   H70       1.0  0.35253  0.6104399999999999  0.7068499999999999  1.0000
  H   H71       1.0  0.18915  0.90324  0.05779  1.0000
  H   H72       1.0  0.19079  0.89132  0.14448  1.0000
  H   H73       1.0  0.15966  0.12028000000000003  0.51215  1.0000
  H   H74       1.0  0.15795  0.19321000000000002  0.61723  1.0000
  H   H75       1.0  0.33150999999999997  0.0976299999999999  0.6467099999999999  1.0000
  H   H76       1.0  0.33031  0.023469999999999998  0.54166  1.0000
  H   H77       1.0  0.36695  0.19464  0.70823  1.0000
  H   H78       1.0  0.4503199999999999  0.2635799999999999  0.7458699999999998  1.0000
  H   H79       1.0  0.5752799999999999  0.29309  0.79558  1.0000
  H   H80       1.0  0.47237999999999997  0.31832999999999995  0.95269  1.0000
  H   H81       1.0  0.34914  0.2879799999999999  0.9041699999999998  1.0000
  H   H82       1.0  0.31365  0.94122  0.8458099999999998  1.0000
  H   H83       1.0  0.31294  0.85477  0.7467699999999999  1.0000
  H   H84       1.0  0.33843  0.48627  0.60603  1.0000
  H   H85       1.0  0.33952  0.38098999999999994  0.5726799999999999  1.0000
  H   H86       1.0  0.16115999999999997  0.35359  0.45135  1.0000
  H   H87       1.0  0.16303  0.4588799999999999  0.48345  1.0000
  H   H88       1.0  0.1279  0.28977  0.48416  1.0000
  H   H89       1.0  0.04579  0.25126  0.51512  1.0000
  H   H90       1.0  0.92212  0.19989999999999994  0.4958999999999999  1.0000
  H   H91       1.0  0.02681  0.04316000000000003  0.36466  1.0000
  H   H92       1.0  0.14897999999999997  0.09310999999999996  0.38220999999999994  1.0000
  H   H93       1.0  0.33915  0.39336999999999994  0.88131  1.0000
  H   H94       1.0  0.34034  0.4248299999999999  0.8080299999999998  1.0000
  H   H95       1.0  0.16094  0.5458299999999999  0.9000999999999999  1.0000
  H   H96       1.0  0.16232  0.5154299999999999  0.9744799999999998  1.0000
  H   H97       1.0  0.13021999999999997  0.5128899999999997  0.8036699999999998  1.0000
  H   H98       1.0  0.04296  0.4929  0.74535  1.0000
  H   H99       1.0  0.92132  0.5162699999999999  0.7154599999999999  1.0000
  H   H100      1.0  0.03963  0.62777  0.6679999999999999  1.0000
  H   H101      1.0  0.15962  0.60719  0.6993599999999999  1.0000
  H   H102      1.0  0.30456  0.05452999999999999  0.24182  1.0000
  H   H103      1.0  0.3079799999999999  0.06561999999999998  0.15470999999999996  1.0000
  H   H104      1.0  0.12452999999999999  0.20093  0.70987  1.0000
  H   H105      1.0  0.04008  0.2617  0.74938  1.0000
  H   H106      1.0  0.9181499999999999  0.29093999999999987  0.8024999999999998  1.0000
  H   H107      1.0  0.03434  0.33187999999999984  0.9604099999999998  1.0000
  H   H108      1.0  0.15464  0.3012099999999999  0.9085599999999999  1.0000
  H   H109      1.0  0.74111  0.98771  0.90212  1.0000
  H   H110      1.0  0.74795  0.86759  0.30796  1.0000
  H   H111      1.0  0.74278  0.91417  0.012829999999999996  1.0000
  H   H112      1.0  0.75158  0.44087  0.13305  1.0000
  H   H113      1.0  0.7400199999999999  0.09911999999999997  0.08661999999999997  1.0000
  H   H114      1.0  0.75347  0.69321  0.56082  1.0000
  H   H115      1.0  0.24730999999999997  0.012219999999999948  0.9135999999999999  1.0000
  H   H116      1.0  0.24757  0.13221999999999992  0.43938999999999995  1.0000
  H   H117      1.0  0.24019999999999997  0.08572  0.09808999999999998  1.0000
  H   H118      1.0  0.25358  0.5571999999999999  0.6915699999999999  1.0000
  H   H119      1.0  0.25582  0.90133  0.9869199999999999  1.0000
  H   H120      1.0  0.25037  0.3083499999999999  0.8668999999999998  1.0000
  C   C1        1.0  0.7736  0.09904999999999992  0.9376699999999999  1.0000
  C   C2        1.0  0.77355  0.14747  0.93103  1.0000
  C   C3        1.0  0.79937  0.54298  0.11473999999999997  1.0000
  C   C4        1.0  0.79985  0.60189  0.15508999999999998  1.0000
  C   C5        1.0  0.69817  0.61701  0.10318  1.0000
  C   C6        1.0  0.69889  0.55837  0.06192  1.0000
  C   C7        1.0  0.6806  0.73309  0.21215999999999996  1.0000
  C   C8        1.0  0.67933  0.7928299999999999  0.25326  1.0000
  C   C9        1.0  0.60656  0.8234699999999999  0.27276999999999996  1.0000
  C   C10       1.0  0.54103  0.79356  0.27392999999999995  1.0000
  C   C11       1.0  0.47180999999999995  0.82158  0.2912  1.0000
  C   C12       1.0  0.46596  0.88042  0.30761  1.0000
  C   C13       1.0  0.53089  0.9109  0.30773  1.0000
  C   C14       1.0  0.60041  0.8828799999999999  0.29063  1.0000
  C   C15       1.0  0.39007  0.90846  0.32292  1.0000
  C   C16       1.0  0.78014  0.83915  0.9016199999999998  1.0000
  C   C17       1.0  0.78138  0.7839099999999999  0.8531899999999998  1.0000
  C   C18       1.0  0.80104  0.5737499999999999  0.4575999999999999  1.0000
  C   C19       1.0  0.80076  0.5559499999999999  0.39894999999999997  1.0000
  C   C20       1.0  0.69817  0.48911  0.38345999999999997  1.0000
  C   C21       1.0  0.69971  0.50566  0.4418  1.0000
  C   C22       1.0  0.68149  0.4821499999999999  0.26741999999999994  1.0000
  C   C23       1.0  0.68101  0.4623499999999999  0.20743999999999996  1.0000
  C   C24       1.0  0.60918  0.45008999999999993  0.17560999999999996  1.0000
  C   C25       1.0  0.54089  0.4763399999999999  0.20474999999999993  1.0000
  C   C26       1.0  0.47281999999999996  0.46397  0.17504  1.0000
  C   C27       1.0  0.47091999999999995  0.4249299999999999  0.11501  1.0000
  C   C28       1.0  0.53837  0.39900999999999986  0.08540999999999999  1.0000
  C   C29       1.0  0.60648  0.41139  0.11518999999999999  1.0000
  C   C30       1.0  0.39717  0.40977  0.08370999999999999  1.0000
  C   C31       1.0  0.7738  0.06463999999999998  0.16253999999999996  1.0000
  C   C32       1.0  0.77477  0.07127999999999997  0.21755999999999998  1.0000
  C   C33       1.0  0.6819899999999999  0.7828699999999998  0.51583  1.0000
  C   C34       1.0  0.6821499999999999  0.7429199999999998  0.5358099999999999  1.0000
  C   C35       1.0  0.61046  0.72079  0.54522  1.0000
  C   C36       1.0  0.54436  0.71868  0.5142699999999999  1.0000
  C   C37       1.0  0.47577  0.7007399999999999  0.5252999999999999  1.0000
  C   C38       1.0  0.47108  0.6845  0.56782  1.0000
  C   C39       1.0  0.53667  0.68475  0.59767  1.0000
  C   C40       1.0  0.60545  0.70254  0.5865199999999999  1.0000
  C   C41       1.0  0.39607  0.66935  0.58234  1.0000
  C   C42       1.0  0.70464  0.20123999999999997  0.021289999999999996  1.0000
  C   C43       1.0  0.70364  0.15245  0.02729  1.0000
  C   C44       1.0  0.81684  0.73224  0.21644999999999995  1.0000
  C   C45       1.0  0.81772  0.79223  0.25684  1.0000
  C   C46       1.0  0.88996  0.82308  0.27820999999999996  1.0000
  C   C47       1.0  0.95632  0.79307  0.27763  1.0000
  C   C48       1.0  0.02537  0.8214  0.29486999999999997  1.0000
  C   C49       1.0  0.030340000000000002  0.8808399999999998  0.31343  1.0000
  C   C50       1.0  0.9645899999999998  0.9115599999999999  0.31591  1.0000
  C   C51       1.0  0.89539  0.8831599999999997  0.29853999999999997  1.0000
  C   C52       1.0  0.10579  0.9097799999999999  0.32819  1.0000
  C   C53       1.0  0.71159  0.81931  0.7990399999999999  1.0000
  C   C54       1.0  0.70934  0.87422  0.84779  1.0000
  C   C55       1.0  0.81788  0.48646999999999996  0.26906  1.0000
  C   C56       1.0  0.81947  0.4659599999999999  0.20899999999999996  1.0000
  C   C57       1.0  0.89223  0.45535  0.17856  1.0000
  C   C58       1.0  0.9573599999999999  0.48780999999999997  0.20759  1.0000
  C   C59       1.0  0.026629999999999997  0.47618  0.17948  1.0000
  C   C60       1.0  0.03272  0.43168  0.12141  1.0000
  C   C61       1.0  0.96818  0.39996  0.09173  1.0000
  C   C62       1.0  0.89875  0.41161  0.11989999999999999  1.0000
  C   C63       1.0  0.10831  0.41783  0.09294  1.0000
  C   C64       1.0  0.7128099999999999  0.97801  0.18019999999999994  1.0000
  C   C65       1.0  0.71084  0.97189  0.12543  1.0000
  C   C66       1.0  0.69957  0.88323  0.42682999999999993  1.0000
  C   C67       1.0  0.69933  0.8432299999999999  0.44571  1.0000
  C   C68       1.0  0.7970999999999999  0.89832  0.51584  1.0000
  C   C69       1.0  0.79562  0.93942  0.49844  1.0000
  C   C70       1.0  0.81828  0.78937  0.52215  1.0000
  C   C71       1.0  0.8205899999999999  0.7484199999999998  0.5407799999999999  1.0000
  C   C72       1.0  0.8937099999999999  0.7294  0.55188  1.0000
  C   C73       1.0  0.95877  0.7273799999999998  0.52009  1.0000
  C   C74       1.0  0.02782  0.70939  0.5302  1.0000
  C   C75       1.0  0.03416999999999999  0.69339  0.57285  1.0000
  C   C76       1.0  0.96986  0.6948599999999999  0.6044599999999999  1.0000
  C   C77       1.0  0.90042  0.71251  0.59404  1.0000
  C   C78       1.0  0.11002  0.67693  0.58441  1.0000
  C   C79       1.0  0.21873  0.7983899999999999  0.81859  1.0000
  C   C80       1.0  0.21746  0.8469  0.8736199999999997  1.0000
  C   C81       1.0  0.31724  0.26748  0.48354  1.0000
  C   C82       1.0  0.31777  0.20749999999999993  0.46356999999999987  1.0000
  C   C83       1.0  0.38989  0.17654  0.45385  1.0000
  C   C84       1.0  0.45528  0.20582999999999993  0.4857999999999999  1.0000
  C   C85       1.0  0.52406  0.17737  0.47525  1.0000
  C   C86       1.0  0.52991  0.11883  0.4318699999999999  1.0000
  C   C87       1.0  0.46511  0.08889999999999999  0.40058999999999995  1.0000
  C   C88       1.0  0.3959  0.11722999999999993  0.41161999999999993  1.0000
  C   C89       1.0  0.60567  0.09049999999999996  0.4185599999999999  1.0000
  C   C90       1.0  0.27727  0.16193  0.0631  1.0000
  C   C91       1.0  0.27689  0.217  0.06974999999999999  1.0000
  C   C92       1.0  0.21107  0.17939999999999995  0.97806  1.0000
  C   C93       1.0  0.21051  0.12455999999999999  0.97197  1.0000
  C   C94       1.0  0.31987  0.5138999999999998  0.7836199999999998  1.0000
  C   C95       1.0  0.32164  0.53341  0.7433299999999999  1.0000
  C   C96       1.0  0.39466999999999997  0.54335  0.72311  1.0000
  C   C97       1.0  0.45986  0.51179  0.72138  1.0000
  C   C98       1.0  0.52936  0.52275  0.70452  1.0000
  C   C99       1.0  0.53577  0.56564  0.6888099999999999  1.0000
  C   C100      1.0  0.47114000000000006  0.59628  0.689  1.0000
  C   C101      1.0  0.40151  0.5854099999999999  0.7060099999999999  1.0000
  C   C102      1.0  0.61168  0.5795299999999999  0.6744499999999999  1.0000
  C   C103      1.0  0.21584  0.9359799999999998  0.09755  1.0000
  C   C104      1.0  0.21565  0.92932  0.14592  1.0000
  C   C105      1.0  0.19676  0.11564000000000002  0.54207  1.0000
  C   C106      1.0  0.19561999999999993  0.1561199999999999  0.6009299999999999  1.0000
  C   C107      1.0  0.29414  0.10276999999999997  0.6172499999999999  1.0000
  C   C108      1.0  0.29371  0.06121999999999999  0.55873  1.0000
  C   C109      1.0  0.31444  0.21266999999999991  0.7316799999999998  1.0000
  C   C110      1.0  0.31702  0.25384999999999996  0.7912999999999999  1.0000
  C   C111      1.0  0.39052  0.27284  0.82101  1.0000
  C   C112      1.0  0.4553  0.27461  0.79083  1.0000
  C   C113      1.0  0.52501  0.29157  0.81831  1.0000
  C   C114      1.0  0.53192  0.30704999999999993  0.8767899999999998  1.0000
  C   C115      1.0  0.46780999999999995  0.30609  0.90739  1.0000
  C   C116      1.0  0.39788  0.2892299999999999  0.8799199999999998  1.0000
  C   C117      1.0  0.60773  0.32274  0.90494  1.0000
  C   C118      1.0  0.2859  0.9015699999999998  0.8380899999999998  1.0000
  C   C119      1.0  0.2865  0.85329  0.7827899999999999  1.0000
  C   C120      1.0  0.3001  0.45677  0.57208  1.0000
  C   C121      1.0  0.3007  0.39783  0.55311  1.0000
  C   C122      1.0  0.19947  0.38265999999999994  0.48559  1.0000
  C   C123      1.0  0.20041  0.44129999999999997  0.5031499999999999  1.0000
  C   C124      1.0  0.18078  0.26683  0.4787699999999999  1.0000
  C   C125      1.0  0.17923  0.20713  0.45999  1.0000
  C   C126      1.0  0.10647999999999998  0.17643999999999993  0.4495099999999999  1.0000
  C   C127      1.0  0.04146  0.20601  0.48153  1.0000
  C   C128      1.0  0.97249  0.17762000000000003  0.47150999999999993  1.0000
  C   C129      1.0  0.96622  0.11881999999999994  0.42875999999999986  1.0000
  C   C130      1.0  0.030639999999999997  0.08875999999999999  0.39727999999999997  1.0000
  C   C131      1.0  0.1  0.11707999999999995  0.40756999999999993  1.0000
  C   C132      1.0  0.8903399999999998  0.09042999999999993  0.41665999999999986  1.0000
  C   C133      1.0  0.30074  0.4269199999999999  0.8851399999999998  1.0000
  C   C134      1.0  0.30152  0.44493  0.8445  1.0000
  C   C135      1.0  0.19969  0.51227  0.8957899999999999  1.0000
  C   C136      1.0  0.20025  0.49559  0.93745  1.0000
  C   C137      1.0  0.1834  0.5182399999999999  0.7863299999999999  1.0000
  C   C138      1.0  0.18292  0.537  0.74542  1.0000
  C   C139      1.0  0.1109  0.54886  0.72573  1.0000
  C   C140      1.0  0.04225  0.5233899999999999  0.72963  1.0000
  C   C141      1.0  0.97405  0.5357199999999999  0.7124299999999999  1.0000
  C   C142      1.0  0.97239  0.57389  0.6904499999999999  1.0000
  C   C143      1.0  0.04017  0.59885  0.68562  1.0000
  C   C144      1.0  0.10833  0.5865599999999999  0.7028999999999999  1.0000
  C   C145      1.0  0.89918  0.58934  0.67395  1.0000
  C   C146      1.0  0.27969  0.02186999999999999  0.20114  1.0000
  C   C147      1.0  0.28064999999999996  0.02803999999999998  0.15249999999999997  1.0000
  C   C148      1.0  0.17809  0.21701999999999994  0.7323999999999999  1.0000
  C   C149      1.0  0.17851  0.25732  0.79246  1.0000
  C   C150      1.0  0.10693999999999997  0.2781299999999999  0.8243799999999998  1.0000
  C   C151      1.0  0.03885  0.2760399999999999  0.7953199999999998  1.0000
  C   C152      1.0  0.9705300000000001  0.29281  0.82473  1.0000
  C   C153      1.0  0.9680399999999999  0.31254  0.88449  1.0000
  C   C154      1.0  0.03537  0.3160499999999999  0.9141599999999999  1.0000
  C   C155      1.0  0.10376  0.29924  0.88469  1.0000
  C   C156      1.0  0.8939  0.32753999999999994  0.9153299999999999  1.0000
  C   C157      1.0  0.7410499999999999  0.99322  0.9452799999999998  1.0000
  C   C158      1.0  0.74003  0.04953999999999993  0.9935799999999998  1.0000
  C   C159      1.0  0.73889  0.10066000000000004  0.98603  1.0000
  C   C160      1.0  0.7397399999999997  0.19911  0.97312  1.0000
  C   C161      1.0  0.7416  0.2513799999999999  0.9669099999999998  1.0000
  C   C162      1.0  0.7479799999999998  0.45791  0.024489999999999998  1.0000
  C   C163      1.0  0.74899  0.52084  0.06773  1.0000
  C   C164      1.0  0.74892  0.63981  0.15025  1.0000
  C   C165      1.0  0.74887  0.70222  0.19352  1.0000
  C   C166      1.0  0.74831  0.8219  0.27499999999999997  1.0000
  C   C167      1.0  0.74199  0.95188  0.00745  1.0000
  C   C168      1.0  0.74214  0.94388  0.9514299999999999  1.0000
  C   C169      1.0  0.74392  0.88529  0.89993  1.0000
  C   C170      1.0  0.74753  0.77375  0.8013799999999998  1.0000
  C   C171      1.0  0.74927  0.71518  0.7489899999999999  1.0000
  C   C172      1.0  0.7512699999999999  0.56678  0.54183  1.0000
  C   C173      1.0  0.75085  0.54836  0.4793  1.0000
  C   C174      1.0  0.7491699999999999  0.51356  0.36101  1.0000
  C   C175      1.0  0.74928  0.4944  0.2987  1.0000
  C   C176      1.0  0.75066  0.45439  0.17886999999999995  1.0000
  C   C177      1.0  0.7404  0.05586  0.04896  1.0000
  C   C178      1.0  0.74128  0.007539999999999998  0.0568  1.0000
  C   C179      1.0  0.74184  0.014819999999999998  0.11528  1.0000
  C   C180      1.0  0.74474  0.02782  0.22679  1.0000
  C   C181      1.0  0.74693  0.034339999999999996  0.28545  1.0000
  C   C182      1.0  0.74796  0.9749499999999999  0.43361999999999995  1.0000
  C   C183      1.0  0.74746  0.93182  0.45335999999999993  1.0000
  C   C184      1.0  0.74859  0.8497999999999998  0.49006999999999995  1.0000
  C   C185      1.0  0.74948  0.80678  0.50932  1.0000
  C   C186      1.0  0.7520599999999998  0.72592  0.5478599999999999  1.0000
  C   C187      1.0  0.24751  0.00674999999999997  0.95126  1.0000
  C   C188      1.0  0.24955  0.95058  0.94321  1.0000
  C   C189      1.0  0.25126  0.8993399999999999  0.8845499999999997  1.0000
  C   C190      1.0  0.25326  0.8012499999999999  0.77276  1.0000
  C   C191      1.0  0.25382  0.7492599999999999  0.7139599999999999  1.0000
  C   C192      1.0  0.24973999999999996  0.54193  0.56737  1.0000
  C   C193      1.0  0.25016  0.47886999999999996  0.547  1.0000
  C   C194      1.0  0.24979  0.3598899999999999  0.51006  1.0000
  C   C195      1.0  0.2493  0.2975499999999999  0.4908699999999999  1.0000
  C   C196      1.0  0.24819  0.17794  0.45222  1.0000
  C   C197      1.0  0.24542999999999998  0.0482  0.05501  1.0000
  C   C198      1.0  0.24575  0.05607  0.0068  1.0000
  C   C199      1.0  0.24412999999999999  0.11461  0.01409  1.0000
  C   C200      1.0  0.24431999999999998  0.22601  0.026999999999999996  1.0000
  C   C201      1.0  0.24545999999999998  0.2846  0.03341  1.0000
  C   C202      1.0  0.24955  0.43347  0.97574  1.0000
  C   C203      1.0  0.25036  0.45245999999999986  0.9321199999999998  1.0000
  C   C204      1.0  0.25072  0.48758  0.84895  1.0000
  C   C205      1.0  0.25122  0.5063499999999999  0.8055599999999998  1.0000
  C   C206      1.0  0.25271  0.5444  0.7243799999999999  1.0000
  C   C207      1.0  0.25045  0.94436  0.99243  1.0000
  C   C208      1.0  0.24810999999999997  0.9926699999999999  0.04864  1.0000
  C   C209      1.0  0.24828  0.98544  0.09986  1.0000
  C   C210      1.0  0.24712999999999996  0.97246  0.19821  1.0000
  C   C211      1.0  0.24651999999999996  0.96573  0.25018  1.0000
  C   C212      1.0  0.24758  0.025099999999999935  0.4575599999999999  1.0000
  C   C213      1.0  0.24576000000000003  0.06788  0.5206  1.0000
  C   C214      1.0  0.24490000000000003  0.15066999999999994  0.6393399999999999  1.0000
  C   C215      1.0  0.24543999999999996  0.19410999999999987  0.7016699999999998  1.0000
  C   C216      1.0  0.24869  0.27558999999999995  0.8211799999999999  1.0000
  O   O1        1.0  0.38236  0.9625  0.34114999999999995  1.0000
  O   O2        1.0  0.33228  0.87666  0.31622  1.0000
  O   O3        1.0  0.39018  0.36375  0.03548  1.0000
  O   O4        1.0  0.34075  0.44420999999999994  0.10834999999999997  1.0000
  O   O5        1.0  0.38972  0.65914  0.62373  1.0000
  O   O6        1.0  0.3381  0.66863  0.55278  1.0000
  O   O7        1.0  0.11345999999999999  0.9607199999999999  0.33609  1.0000
  O   O8        1.0  0.16288  0.8817699999999999  0.33111999999999997  1.0000
  O   O9        1.0  0.11429000000000002  0.3813099999999999  0.03889  1.0000
  O   O10       1.0  0.16687  0.44231  0.1239  1.0000
  O   O11       1.0  0.11755  0.6570699999999998  0.6188199999999999  1.0000
  O   O12       1.0  0.16783  0.6841899999999997  0.5598599999999999  1.0000
  O   O13       1.0  0.61351  0.03773999999999999  0.37904999999999994  1.0000
  O   O14       1.0  0.66325  0.12093999999999996  0.44673  1.0000
  O   O15       1.0  0.61768  0.6159399999999999  0.6567199999999999  1.0000
  O   O16       1.0  0.67032  0.5558  0.68161  1.0000
  O   O17       1.0  0.6138999999999999  0.3408399999999999  0.95918  1.0000
  O   O18       1.0  0.66613  0.31679  0.87415  1.0000
  O   O19       1.0  0.88225  0.03710000000000002  0.37846  1.0000
  O   O20       1.0  0.8333  0.12141999999999993  0.44460999999999995  1.0000
  O   O21       1.0  0.8937499999999999  0.6352999999999999  0.6716499999999999  1.0000
  O   O22       1.0  0.8418999999999999  0.5553999999999999  0.6637499999999998  1.0000
  O   O23       1.0  0.8866  0.32824999999999993  0.9627799999999997  1.0000
  O   O24       1.0  0.83748  0.3380499999999999  0.8913799999999998  1.0000
  O   O25       1.0  0.75029  0.24506999999999984  0.9164699999999998  1.0000
  O   O26       1.0  0.73486  0.3015399999999999  0.01151  1.0000
  O   O27       1.0  0.76886  0.42184  0.04045  1.0000
  O   O28       1.0  0.7265899999999998  0.4400899999999999  0.9729099999999999  1.0000
  O   O29       1.0  0.76087  0.671  0.7546899999999999  1.0000
  O   O30       1.0  0.73869  0.70959  0.6991699999999997  1.0000
  O   O31       1.0  0.77263  0.61873  0.57842  1.0000
  O   O32       1.0  0.73048  0.53221  0.55876  1.0000
  O   O33       1.0  0.75  0.08509  0.32996  1.0000
  O   O34       1.0  0.74574  0.98931  0.29042  1.0000
  O   O35       1.0  0.73866  0.95713  0.37962  1.0000
  O   O36       1.0  0.75787  0.028369999999999975  0.46973  1.0000
  O   O37       1.0  0.26495  0.75525  0.66996  1.0000
  O   O38       1.0  0.24258  0.69928  0.70803  1.0000
  O   O39       1.0  0.26486  0.5776299999999999  0.6206199999999998  1.0000
  O   O40       1.0  0.23474000000000003  0.56003  0.53254  1.0000
  O   O41       1.0  0.25375  0.32892  0.08388  1.0000
  O   O42       1.0  0.23855  0.2900599999999999  0.9888699999999998  1.0000
  O   O43       1.0  0.26894  0.38105  0.95954  1.0000
  O   O44       1.0  0.22987999999999997  0.46790999999999994  0.02763  1.0000
  O   O45       1.0  0.23898  0.91513  0.24363  1.0000
  O   O46       1.0  0.25393  0.010199999999999937  0.30040999999999995  1.0000
  O   O47       1.0  0.23479  0.04281  0.42174  1.0000
  O   O48       1.0  0.26175  0.97202  0.4394999999999999  1.0000
