data_image0
_chemical_formula_structural       Zn16H76C152N8O68
_chemical_formula_sum              "Zn16 H76 C152 N8 O68"
_cell_length_a       10.4124
_cell_length_b       31.5332
_cell_length_c       31.86291
_cell_angle_alpha    90.0
_cell_angle_beta     90.0
_cell_angle_gamma    92.08241

_space_group_name_H-M_alt    "P 1"
_space_group_IT_number       1

loop_
  _space_group_symop_operation_xyz
  'x, y, z'

loop_
  _atom_site_type_symbol
  _atom_site_label
  _atom_site_symmetry_multiplicity
  _atom_site_fract_x
  _atom_site_fract_y
  _atom_site_fract_z
  _atom_site_occupancy
  Zn  Zn1       1.0  0.47621  0.18035999999999994  0.89448  1.0000
  Zn  Zn2       1.0  0.029449999999999983  0.3884799999999999  0.31691000000000014  1.0000
  Zn  Zn3       1.0  0.023779999999999985  0.31963999999999987  0.3944800000000001  1.0000
  Zn  Zn4       1.0  0.6262099999999998  0.20142999999999994  0.81003  1.0000
  Zn  Zn5       1.0  0.66684  0.8010799999999998  0.19700000000000006  1.0000
  Zn  Zn6       1.0  0.5294499999999999  0.8884799999999998  0.18309000000000006  1.0000
  Zn  Zn7       1.0  0.9762  0.68036  0.6055200000000002  1.0000
  Zn  Zn8       1.0  0.83314  0.69891  0.6970000000000002  1.0000
  Zn  Zn9       1.0  0.52378  0.8196399999999998  0.10552000000000003  1.0000
  Zn  Zn10      1.0  0.3331499999999999  0.19891999999999996  0.8029900000000002  1.0000
  Zn  Zn11      1.0  0.47053999999999996  0.11151999999999997  0.81691  1.0000
  Zn  Zn12      1.0  0.37377999999999995  0.7985699999999998  0.18996000000000005  1.0000
  Zn  Zn13      1.0  0.16683999999999996  0.30108  0.30299  1.0000
  Zn  Zn14      1.0  0.1262  0.70143  0.6899600000000002  1.0000
  Zn  Zn15      1.0  0.8737799999999999  0.29857  0.3100300000000001  1.0000
  Zn  Zn16      1.0  0.97054  0.6115199999999997  0.6830900000000002  1.0000
  H   H1        1.0  0.54328  0.007319999999999998  0.8878500000000003  1.0000
  H   H2        1.0  0.33005  0.47011999999999987  0.26545000000000013  1.0000
  H   H3        1.0  0.42845  0.2506599999999999  0.5375700000000002  1.0000
  H   H4        1.0  0.20031999999999997  0.9023899999999998  0.7038700000000002  1.0000
  H   H5        1.0  0.27006  0.33402  0.7698700000000003  1.0000
  H   H6        1.0  0.80823  0.9097299999999998  0.7467400000000002  1.0000
  H   H7        1.0  0.16994  0.029879999999999993  0.76545  1.0000
  H   H8        1.0  0.29966  0.59761  0.20387  1.0000
  H   H9        1.0  0.84219  0.17483999999999994  0.3133600000000001  1.0000
  H   H10       1.0  0.6878  0.7326999999999998  0.5213300000000002  1.0000
  H   H11       1.0  0.1194  0.2791  0.08987  1.0000
  H   H12       1.0  0.8300499999999998  0.97012  0.23455000000000006  1.0000
  H   H13       1.0  0.7700599999999999  0.8340199999999998  0.73012  1.0000
  H   H14       1.0  0.95671  0.4926799999999999  0.38785  1.0000
  H   H15       1.0  0.07154999999999997  0.24933999999999995  0.03757  1.0000
  H   H16       1.0  0.43417999999999995  0.054789999999999985  0.06428000000000003  1.0000
  H   H17       1.0  0.24690999999999996  0.9720099999999998  0.22978000000000007  1.0000
  H   H18       1.0  0.79966  0.09760999999999997  0.2961300000000001  1.0000
  H   H19       1.0  0.45671  0.9926799999999998  0.11215000000000003  1.0000
  H   H20       1.0  0.34909999999999997  0.20410999999999996  0.6650800000000002  1.0000
  H   H21       1.0  0.86323  0.9670899999999998  0.7565100000000002  1.0000
  H   H22       1.0  0.15089  0.2958899999999999  0.16508  1.0000
  H   H23       1.0  0.7513999999999998  0.22682999999999995  0.68828  1.0000
  H   H24       1.0  0.72992  0.6659799999999998  0.23013000000000006  1.0000
  H   H25       1.0  0.6508799999999999  0.79589  0.33492  1.0000
  H   H26       1.0  0.25139  0.72683  0.8117100000000003  1.0000
  H   H27       1.0  0.48632999999999993  0.7109399999999998  0.63736  1.0000
  H   H28       1.0  0.19175  0.09026999999999998  0.2532600000000001  1.0000
  H   H29       1.0  0.47055  0.64398  0.7074300000000002  1.0000
  H   H30       1.0  0.36323999999999995  0.4670899999999999  0.7434900000000002  1.0000
  H   H31       1.0  0.61939  0.7790999999999998  0.4101200000000001  1.0000
  H   H32       1.0  0.98633  0.21093999999999993  0.8626400000000002  1.0000
  H   H33       1.0  0.30824  0.40973  0.75326  1.0000
  H   H34       1.0  0.52944  0.35602  0.2925700000000001  1.0000
  H   H35       1.0  0.3806  0.2209  0.5898700000000002  1.0000
  H   H36       1.0  0.56581  0.9452099999999998  0.9357200000000002  1.0000
  H   H37       1.0  0.74692  0.4720099999999999  0.27022  1.0000
  H   H38       1.0  0.15779999999999994  0.8251599999999998  0.6866300000000002  1.0000
  H   H39       1.0  0.93417  0.5547899999999998  0.4357200000000001  1.0000
  H   H40       1.0  0.78611  0.24369999999999994  0.6119  1.0000
  H   H41       1.0  0.71389  0.2563  0.11190000000000003  1.0000
  H   H42       1.0  0.75307  0.027989999999999994  0.7702200000000002  1.0000
  H   H43       1.0  0.95014  0.58614  0.50761  1.0000
  H   H44       1.0  0.9284399999999998  0.7506599999999998  0.9624200000000003  1.0000
  H   H45       1.0  0.81218  0.7672999999999998  0.02134000000000001  1.0000
  H   H46       1.0  0.7486  0.27317  0.18828  1.0000
  H   H47       1.0  0.8491  0.7041099999999998  0.8349200000000002  1.0000
  H   H48       1.0  0.6917499999999999  0.59027  0.24674000000000004  1.0000
  H   H49       1.0  0.06581999999999999  0.44521  0.56428  1.0000
  H   H50       1.0  0.51366  0.28906  0.36264000000000013  1.0000
  H   H51       1.0  0.18781  0.23269999999999993  0.9786600000000002  1.0000
  H   H52       1.0  0.45014999999999994  0.08614  0.9923800000000003  1.0000
  H   H53       1.0  0.25306  0.52799  0.72977  1.0000
  H   H54       1.0  0.22992999999999997  0.16598  0.26987  1.0000
  H   H55       1.0  0.77163  0.23638999999999993  0.9748900000000003  1.0000
  H   H56       1.0  0.049849999999999985  0.4138599999999999  0.4923800000000001  1.0000
  H   H57       1.0  0.029429999999999967  0.8560199999999998  0.20743000000000006  1.0000
  H   H58       1.0  0.13675  0.032909999999999995  0.24349000000000007  1.0000
  H   H59       1.0  0.8805899999999998  0.7208999999999998  0.9101200000000003  1.0000
  H   H60       1.0  0.57154  0.7493399999999998  0.4624200000000001  1.0000
  H   H61       1.0  0.2138799999999999  0.7562999999999998  0.3881000000000001  1.0000
  H   H62       1.0  0.04327  0.50732  0.61214  1.0000
  H   H63       1.0  0.013659999999999985  0.7890599999999999  0.13736000000000007  1.0000
  H   H64       1.0  0.7283599999999999  0.26361  0.4748900000000001  1.0000
  H   H65       1.0  0.7003299999999999  0.4023899999999999  0.79613  1.0000
  H   H66       1.0  0.66993  0.52988  0.7345500000000003  1.0000
  H   H67       1.0  0.22835  0.7636099999999998  0.025110000000000007  1.0000
  H   H68       1.0  0.31217999999999996  0.2673  0.4786600000000001  1.0000
  H   H69       1.0  0.6578  0.32516  0.8133600000000002  1.0000
  H   H70       1.0  0.28609999999999997  0.7436999999999998  0.88809  1.0000
  H   H71       1.0  0.2716299999999999  0.7363899999999998  0.5251000000000002  1.0000
  H   H72       1.0  0.34218  0.67484  0.18664000000000006  1.0000
  H   H73       1.0  0.24858999999999998  0.77317  0.31172  1.0000
  H   H74       1.0  0.54984  0.91386  0.007610000000000001  1.0000
  H   H75       1.0  0.9705599999999998  0.14397999999999994  0.7925700000000002  1.0000
  H   H76       1.0  0.6367499999999999  0.53291  0.25651  1.0000
  C   C1        1.0  0.98329  0.5202499999999998  0.4917600000000001  1.0000
  C   C2        1.0  0.048189999999999976  0.7147399999999998  0.8189000000000002  1.0000
  C   C3        1.0  0.97904  0.23732999999999996  0.9817700000000003  1.0000
  C   C4        1.0  0.03831999999999999  0.9761299999999998  0.23499000000000006  1.0000
  C   C5        1.0  0.50549  0.9498499999999998  0.06233000000000002  1.0000
  C   C6        1.0  0.019609999999999985  0.4131599999999999  0.4082000000000001  1.0000
  C   C7        1.0  0.49080999999999997  0.58858  0.22639000000000006  1.0000
  C   C8        1.0  0.63348  0.27662  0.4164000000000001  1.0000
  C   C9        1.0  0.91298  0.2656199999999999  0.09584000000000002  1.0000
  C   C10       1.0  0.49449  0.050149999999999986  0.9376700000000002  1.0000
  C   C11       1.0  0.41905  0.4538199999999999  0.2694900000000001  1.0000
  C   C12       1.0  0.50917  0.4114199999999999  0.7736100000000002  1.0000
  C   C13       1.0  0.44410999999999995  0.21312999999999993  0.6531400000000003  1.0000
  C   C14       1.0  0.72336  0.71265  0.60411  1.0000
  C   C15       1.0  0.038209999999999994  0.17478999999999995  0.29245  1.0000
  C   C16       1.0  0.05588  0.28687  0.15314  1.0000
  C   C17       1.0  0.34988  0.58781  0.71767  1.0000
  C   C18       1.0  0.59978  0.7209999999999998  0.5812900000000002  1.0000
  C   C19       1.0  0.17183  0.7258099999999997  0.8338200000000002  1.0000
  C   C20       1.0  0.53938  0.9758599999999997  0.9480100000000002  1.0000
  C   C21       1.0  0.12073999999999994  0.7451399999999998  0.9486300000000002  1.0000
  C   C22       1.0  0.5592299999999999  0.7211099999999998  0.19810000000000005  1.0000
  C   C23       1.0  0.20753  0.11377  0.7861900000000003  1.0000
  C   C24       1.0  0.27662  0.2873499999999999  0.39589000000000013  1.0000
  C   C25       1.0  0.86275  0.23275999999999994  0.9591100000000002  1.0000
  C   C26       1.0  0.4002  0.2789999999999999  0.41871000000000014  1.0000
  C   C27       1.0  0.87924  0.2548499999999999  0.05137000000000001  1.0000
  C   C28       1.0  0.22337  0.21264999999999995  0.8958900000000002  1.0000
  C   C29       1.0  0.5870099999999999  0.23437999999999995  0.5958400000000003  1.0000
  C   C30       1.0  0.3089999999999999  0.7646699999999997  0.37593  1.0000
  C   C31       1.0  0.9518  0.28526  0.18110000000000007  1.0000
  C   C32       1.0  0.09745  0.23064  0.9614000000000003  1.0000
  C   C33       1.0  0.47902999999999996  0.73733  0.5182200000000002  1.0000
  C   C34       1.0  0.11289  0.10784999999999997  0.26631  1.0000
  C   C35       1.0  0.9803699999999996  0.5868299999999997  0.5918  1.0000
  C   C36       1.0  0.46327999999999997  0.22304999999999994  0.61083  1.0000
  C   C37       1.0  0.02757  0.51018  0.57854  1.0000
  C   C38       1.0  0.86651  0.22338  0.9164000000000002  1.0000
  C   C39       1.0  0.3627499999999999  0.7327599999999997  0.54088  1.0000
  C   C40       1.0  0.15382999999999997  0.95525  0.22747000000000006  1.0000
  C   C41       1.0  0.009159999999999986  0.91142  0.7263900000000002  1.0000
  C   C42       1.0  0.24393999999999993  0.7171099999999998  0.6081300000000002  1.0000
  C   C43       1.0  0.45298999999999995  0.54334  0.23553  1.0000
  C   C44       1.0  0.53002  0.20531  0.72703  1.0000
  C   C45       1.0  0.38709999999999994  0.39215  0.7663000000000002  1.0000
  C   C46       1.0  0.96813  0.11035999999999997  0.7850300000000002  1.0000
  C   C47       1.0  0.9616699999999999  0.02387  0.76501  1.0000
  C   C48       1.0  0.5974399999999999  0.7306399999999997  0.53859  1.0000
  C   C49       1.0  0.25604  0.78289  0.10813000000000003  1.0000
  C   C50       1.0  0.9944899999999999  0.55015  0.5623300000000002  1.0000
  C   C51       1.0  0.48038  0.08683  0.9082000000000002  1.0000
  C   C52       1.0  0.016699999999999986  0.4797499999999999  0.5082300000000002  1.0000
  C   C53       1.0  0.08699999999999997  0.7343799999999998  0.9041600000000002  1.0000
  C   C54       1.0  0.77042  0.3890899999999999  0.29126000000000013  1.0000
  C   C55       1.0  0.5481999999999999  0.21474  0.6811  1.0000
  C   C56       1.0  0.46165999999999996  0.5238699999999997  0.7349900000000003  1.0000
  C   C57       1.0  0.41675  0.6555799999999998  0.19983000000000006  1.0000
  C   C58       1.0  0.015829999999999993  0.78185  0.10402000000000003  1.0000
  C   C59       1.0  0.51961  0.9131599999999997  0.0918  1.0000
  C   C60       1.0  0.005499999999999988  0.44985  0.4376700000000001  1.0000
  C   C61       1.0  0.96997  0.2946899999999999  0.22703  1.0000
  C   C62       1.0  0.46813  0.6103599999999998  0.7149600000000003  1.0000
  C   C63       1.0  0.46059999999999995  0.02412999999999999  0.05198000000000001  1.0000
  C   C64       1.0  0.8871  0.8921499999999998  0.7336900000000002  1.0000
  C   C65       1.0  0.547  0.45666  0.7644600000000003  1.0000
  C   C66       1.0  0.9740499999999999  0.55506  0.51952  1.0000
  C   C67       1.0  0.9841499999999999  0.21815  0.8959700000000003  1.0000
  C   C68       1.0  0.08093999999999998  0.046179999999999985  0.7694900000000002  1.0000
  C   C69       1.0  0.27040999999999993  0.8890899999999998  0.20873000000000005  1.0000
  C   C70       1.0  0.52096  0.26267  0.4817700000000001  1.0000
  C   C71       1.0  0.63724  0.26723999999999987  0.45911000000000013  1.0000
  C   C72       1.0  0.9002  0.7789999999999998  0.08129000000000003  1.0000
  C   C73       1.0  0.6128799999999999  0.6078499999999998  0.23369000000000006  1.0000
  C   C74       1.0  0.41718  0.41066  0.2792600000000001  1.0000
  C   C75       1.0  0.69099  0.23532999999999996  0.62407  1.0000
  C   C76       1.0  0.9606  0.52413  0.4480200000000001  1.0000
  C   C77       1.0  0.030019999999999988  0.7053  0.7729600000000002  1.0000
  C   C78       1.0  0.13630999999999993  0.15067  0.27561000000000013  1.0000
  C   C79       1.0  0.58094  0.5461799999999998  0.7305100000000002  1.0000
  C   C80       1.0  0.39331  0.61303  0.20928000000000005  1.0000
  C   C81       1.0  0.9617699999999999  0.8252099999999998  0.7075500000000002  1.0000
  C   C82       1.0  0.15009999999999996  0.9121899999999997  0.21767  1.0000
  C   C83       1.0  0.953  0.04334  0.2644600000000001  1.0000
  C   C84       1.0  0.82816  0.27419  0.16618  1.0000
  C   C85       1.0  0.05923999999999999  0.22110999999999995  0.3019000000000001  1.0000
  C   C86       1.0  0.94075  0.7788899999999997  0.6981000000000003  1.0000
  C   C87       1.0  0.5828  0.5893399999999998  0.7207400000000003  1.0000
  C   C88       1.0  0.41298  0.76562  0.40416  1.0000
  C   C89       1.0  0.36649999999999994  0.7233699999999997  0.58359  1.0000
  C   C90       1.0  0.10666999999999997  0.8869699999999998  0.7092800000000002  1.0000
  C   C91       1.0  0.47240999999999994  0.98982  0.07855  1.0000
  C   C92       1.0  0.6066799999999999  0.38696999999999987  0.7907100000000002  1.0000
  C   C93       1.0  0.8933099999999999  0.11302999999999998  0.29072  1.0000
  C   C94       1.0  0.29246  0.38623  0.28619  1.0000
  C   C95       1.0  0.53186  0.38964  0.2850400000000001  1.0000
  C   C96       1.0  0.94411  0.71313  0.8468500000000002  1.0000
  C   C97       1.0  0.46995999999999993  0.79469  0.27296  1.0000
  C   C98       1.0  0.02095  0.76266  0.018220000000000007  1.0000
  C   C99       1.0  0.3636799999999999  0.34932999999999986  0.77561  1.0000
  C   C100      1.0  0.03938999999999999  0.4758599999999999  0.55198  1.0000
  C   C101      1.0  0.03184999999999997  0.8896399999999998  0.21496000000000007  1.0000
  C   C102      1.0  0.46177999999999997  0.3252099999999999  0.7924400000000003  1.0000
  C   C103      1.0  0.32815  0.7741899999999998  0.33382  1.0000
  C   C104      1.0  0.52593  0.9449399999999998  0.019520000000000006  1.0000
  C   C105      1.0  0.44075  0.2788899999999999  0.8019000000000002  1.0000
  C   C106      1.0  0.84615  0.04473999999999999  0.7725300000000003  1.0000
  C   C107      1.0  0.6501  0.41219  0.28233  1.0000
  C   C108      1.0  0.6718399999999999  0.22580999999999996  0.66617  1.0000
  C   C109      1.0  0.13347999999999993  0.7766199999999998  0.08359  1.0000
  C   C110      1.0  0.70752  0.61377  0.71381  1.0000
  C   C111      1.0  0.75605  0.28289  0.3918700000000001  1.0000
  C   C112      1.0  0.8498899999999999  0.08780999999999997  0.7823300000000002  1.0000
  C   C113      1.0  0.08281  0.08933999999999997  0.77926  1.0000
  C   C114      1.0  0.58323  0.3444199999999999  0.8001600000000002  1.0000
  C   C115      1.0  0.5158399999999999  0.28185  0.3959800000000001  1.0000
  C   C116      1.0  0.53832  0.4761299999999999  0.26501000000000013  1.0000
  C   C117      1.0  0.91905  0.9538199999999998  0.23051000000000005  1.0000
  C   C118      1.0  0.48414999999999997  0.71815  0.60402  1.0000
  C   C119      1.0  0.40254  0.2693599999999999  0.4614000000000001  1.0000
  C   C120      1.0  0.77662  0.78735  0.10411000000000002  1.0000
  C   C121      1.0  0.80901  0.26467  0.12407000000000003  1.0000
  C   C122      1.0  0.9632699999999998  0.72305  0.8891700000000002  1.0000
  C   C123      1.0  0.48329999999999995  0.020249999999999994  0.008230000000000003  1.0000
  C   C124      1.0  0.97241  0.48981999999999987  0.4214500000000001  1.0000
  C   C125      1.0  0.53671  0.7769499999999998  0.3891700000000001  1.0000
  C   C126      1.0  0.99082  0.08857999999999998  0.27361000000000013  1.0000
  C   C127      1.0  0.3792299999999999  0.7548499999999998  0.4486300000000001  1.0000
  C   C128      1.0  0.62075  0.24514  0.55137  1.0000
  C   C129      1.0  0.53821  0.6747899999999999  0.20755  1.0000
  C   C130      1.0  0.79246  0.8862299999999997  0.21381000000000006  1.0000
  C   C131      1.0  0.65384  0.4552499999999999  0.2725300000000001  1.0000
  C   C132      1.0  0.91718  0.9106599999999998  0.22074000000000005  1.0000
  C   C133      1.0  0.04698999999999996  0.9566599999999997  0.7355300000000002  1.0000
  C   C134      1.0  0.72957  0.11091  0.79126  1.0000
  C   C135      1.0  0.19097999999999998  0.7353299999999999  0.8759300000000002  1.0000
  C   C136      1.0  0.5166899999999999  0.9797499999999998  0.9917600000000002  1.0000
  C   C137      1.0  0.86367  0.8493299999999998  0.7243900000000002  1.0000
  C   C138      1.0  0.47406  0.055059999999999984  0.9804800000000002  1.0000
  C   C139      1.0  0.08322999999999997  0.8444099999999998  0.6998300000000002  1.0000
  C   C140      1.0  0.9025399999999999  0.76936  0.038600000000000016  1.0000
  C   C141      1.0  0.22956999999999997  0.6109099999999997  0.70873  1.0000
  C   C142      1.0  0.34615  0.54474  0.7274700000000002  1.0000
  C   C143      1.0  0.5558699999999999  0.7868699999999997  0.3468500000000001  1.0000
  C   C144      1.0  0.02593000000000001  0.44494  0.48048000000000013  1.0000
  C   C145      1.0  0.03671  0.27695  0.11083  1.0000
  C   C146      1.0  0.9167599999999999  0.15558  0.30017  1.0000
  C   C147      1.0  0.09978  0.22099999999999995  0.9187000000000002  1.0000
  C   C148      1.0  0.63631  0.6506699999999997  0.22439000000000006  1.0000
  C   C149      1.0  0.52758  0.01018  0.9214500000000002  1.0000
  C   C150      1.0  0.74394  0.21710999999999994  0.8918600000000002  1.0000
  C   C151      1.0  0.13723999999999997  0.7672399999999998  0.040880000000000014  1.0000
  C   C152      1.0  0.45179  0.7852599999999997  0.31890000000000013  1.0000
  N   N1        1.0  0.9524299999999996  0.9809899999999998  0.7539100000000002  1.0000
  N   N2        1.0  0.9825  0.24769999999999995  0.024450000000000006  1.0000
  N   N3        1.0  0.4824899999999999  0.7477  0.47554000000000013  1.0000
  N   N4        1.0  0.45244  0.48098999999999986  0.74608  1.0000
  N   N5        1.0  0.04755999999999999  0.01901  0.24608000000000005  1.0000
  N   N6        1.0  0.54755  0.5190099999999997  0.25392  1.0000
  N   N7        1.0  0.01748999999999997  0.7522999999999997  0.9755400000000002  1.0000
  N   N8        1.0  0.5174899999999999  0.2523  0.5244500000000002  1.0000
  O   O1        1.0  0.82431  0.7079899999999998  0.5814900000000002  1.0000
  O   O2        1.0  0.7846499999999998  0.7895699999999998  0.14361  1.0000
  O   O3        1.0  0.17567  0.29201  0.4185100000000001  1.0000
  O   O4        1.0  0.16231  0.23956999999999995  0.28765000000000013  1.0000
  O   O5        1.0  0.76657  0.2520699999999999  0.03952000000000001  1.0000
  O   O6        1.0  0.47355  0.7390299999999999  0.17694000000000004  1.0000
  O   O7        1.0  0.9743399999999999  0.62374  0.5755500000000002  1.0000
  O   O8        1.0  0.37088  0.7853499999999998  0.2500700000000001  1.0000
  O   O9        1.0  0.5248199999999998  0.9229299999999998  0.13058000000000006  1.0000
  O   O10       1.0  0.25432999999999995  0.7210899999999998  0.64766  1.0000
  O   O11       1.0  0.47338  0.17069999999999994  0.8336800000000002  1.0000
  O   O12       1.0  0.42345999999999995  0.18956  0.7396100000000002  1.0000
  O   O13       1.0  0.74566  0.2789099999999999  0.35234  1.0000
  O   O14       1.0  0.33767999999999987  0.2604299999999999  0.7876500000000002  1.0000
  O   O15       1.0  0.024829999999999984  0.42292999999999986  0.36942000000000014  1.0000
  O   O16       1.0  0.70111  0.65389  0.7127600000000002  1.0000
  O   O17       1.0  0.26656  0.75207  0.4604800000000001  1.0000
  O   O18       1.0  0.28465  0.28957  0.35639  1.0000
  O   O19       1.0  0.25457  0.8508199999999998  0.19741000000000006  1.0000
  O   O20       1.0  0.7454099999999999  0.14917999999999995  0.80259  1.0000
  O   O21       1.0  0.87767  0.4101799999999999  0.2875  1.0000
  O   O22       1.0  0.12231  0.58982  0.7125  1.0000
  O   O23       1.0  0.47515999999999997  0.07706999999999997  0.8694200000000002  1.0000
  O   O24       1.0  0.20111  0.15389  0.7872300000000002  1.0000
  O   O25       1.0  0.6623099999999998  0.7395699999999997  0.21235000000000007  1.0000
  O   O26       1.0  0.65541  0.4713999999999999  0.7724  1.0000
  O   O27       1.0  0.6931  0.90829  0.20848  1.0000
  O   O28       1.0  0.62232  0.08981999999999997  0.7875000000000002  1.0000
  O   O29       1.0  0.30687999999999993  0.09171  0.79152  1.0000
  O   O30       1.0  0.8445899999999998  0.028599999999999993  0.2724000000000001  1.0000
  O   O31       1.0  0.9751599999999998  0.5770699999999997  0.63058  1.0000
  O   O32       1.0  0.1291  0.7146499999999998  0.7500700000000002  1.0000
  O   O33       1.0  0.24541  0.6491799999999998  0.6974100000000002  1.0000
  O   O34       1.0  0.9733699999999998  0.6707  0.6663200000000002  1.0000
  O   O35       1.0  0.7988699999999999  0.8461099999999998  0.21276000000000006  1.0000
  O   O36       1.0  0.19310999999999995  0.4082899999999999  0.2915200000000001  1.0000
  O   O37       1.0  0.75458  0.3508199999999999  0.30259000000000014  1.0000
  O   O38       1.0  0.71533  0.7104299999999998  0.64361  1.0000
  O   O39       1.0  0.32432  0.20798999999999995  0.9185000000000002  1.0000
  O   O40       1.0  0.02642999999999997  0.7609699999999998  0.67693  1.0000
  O   O41       1.0  0.37767  0.91018  0.21250000000000005  1.0000
  O   O42       1.0  0.34457999999999994  0.5286  0.22760000000000005  1.0000
  O   O43       1.0  0.83767  0.7604299999999998  0.7123500000000003  1.0000
  O   O44       1.0  0.8068799999999999  0.5917099999999997  0.7084800000000002  1.0000
  O   O45       1.0  0.97355  0.23902999999999994  0.3230600000000001  1.0000
  O   O46       1.0  0.29888  0.34611  0.2872400000000001  1.0000
  O   O47       1.0  0.6291099999999998  0.21464999999999995  0.7499200000000003  1.0000
  O   O48       1.0  0.73342  0.24793  0.5395200000000002  1.0000
  O   O49       1.0  0.47434  0.12373999999999998  0.9244400000000003  1.0000
  O   O50       1.0  0.026609999999999988  0.32929999999999987  0.33368  1.0000
  O   O51       1.0  0.6756699999999999  0.7920099999999998  0.08149  1.0000
  O   O52       1.0  0.35784999999999995  0.79232  0.08724  1.0000
  O   O53       1.0  0.5264399999999999  0.26097  0.8230600000000002  1.0000
  O   O54       1.0  0.15539999999999995  0.9713999999999998  0.7276000000000002  1.0000
  O   O55       1.0  0.52565  0.87626  0.07556000000000003  1.0000
  O   O56       1.0  0.6421299999999998  0.20766999999999994  0.9127600000000002  1.0000
  O   O57       1.0  0.07652999999999997  0.3104399999999999  0.23961000000000005  1.0000
  O   O58       1.0  0.8578599999999998  0.29232  0.41276  1.0000
  O   O59       1.0  0.57653  0.8104399999999998  0.26039  1.0000
  O   O60       1.0  0.75433  0.22108999999999995  0.8523400000000002  1.0000
  O   O61       1.0  0.9234499999999999  0.6895599999999997  0.7603800000000002  1.0000
  O   O62       1.0  0.24564999999999998  0.7789099999999998  0.14766000000000007  1.0000
  O   O63       1.0  0.87089  0.28535  0.24992000000000006  1.0000
  O   O64       1.0  0.02564999999999998  0.3762599999999999  0.4244400000000001  1.0000
  O   O65       1.0  0.14213  0.70768  0.5872300000000003  1.0000
  O   O66       1.0  0.52661  0.8293  0.16632  1.0000
  O   O67       1.0  0.21534  0.21043  0.8563900000000002  1.0000
  O   O68       1.0  0.23341999999999993  0.7479299999999998  0.9604800000000002  1.0000
