data_image0
_chemical_formula_structural       Cu4H72C104N32O16
_chemical_formula_sum              "Cu4 H72 C104 N32 O16"
_cell_length_a       12.74965
_cell_length_b       17.8845
_cell_length_c       17.88337
_cell_angle_alpha    90.07165
_cell_angle_beta     90.02149000000001
_cell_angle_gamma    89.89035

_symmetry_space_group_name_H-M    'P 1'
_symmetry_Int_Tables_number       1

loop_
  _symmetry_equiv_pos_as_xyz
  'x,y,z'

loop_
  _atom_site_type_symbol
  _atom_site_label
  _atom_site_symmetry_multiplicity
  _atom_site_fract_x
  _atom_site_fract_y
  _atom_site_fract_z
  _atom_site_occupancy
  Cu  Cu1       1.0  0.50001  1e-05  0.0  1.0000
  Cu  Cu2       1.0  0.50002  0.50001  0.5  1.0000
  Cu  Cu3       1.0  0.0  9.999999999999979e-06  0.49999  1.0000
  Cu  Cu4       1.0  0.0  0.50001  0.0  1.0000
  H   H1        1.0  0.47375  0.8224  0.99332  1.0000
  H   H2        1.0  0.31655  0.7080600000000001  0.04994  1.0000
  H   H3        1.0  0.17352  0.62197  0.06981  1.0000
  H   H4        1.0  0.21262  0.41693  0.952  1.0000
  H   H5        1.0  0.473  0.5060300000000001  0.12712  1.0000
  H   H6        1.0  0.60153  0.71996  0.18122  1.0000
  H   H7        1.0  0.40611  0.46802000000000005  0.9974400000000001  1.0000
  H   H8        1.0  0.47203000000000006  0.9704500000000001  0.17882  1.0000
  H   H9        1.0  0.44343  0.8255100000000002  0.22887  1.0000
  H   H10       1.0  0.47391000000000005  0.67767  0.50678  1.0000
  H   H11       1.0  0.31607  0.7921600000000001  0.44956000000000007  1.0000
  H   H12       1.0  0.17358  0.87845  0.43002000000000007  1.0000
  H   H13       1.0  0.21244  0.08308  0.54822  1.0000
  H   H14       1.0  0.47464  0.9936900000000001  0.37391  1.0000
  H   H15       1.0  0.60152  0.7792  0.31899  1.0000
  H   H16       1.0  0.40591  0.03209  0.50202  1.0000
  H   H17       1.0  0.47262  0.5294900000000002  0.32133  1.0000
  H   H18       1.0  0.4429  0.67447  0.2713  1.0000
  H   H19       1.0  0.9731  0.00642  0.32255  1.0000
  H   H20       1.0  0.81595  0.94898  0.20809  1.0000
  H   H21       1.0  0.6732300000000001  0.9297700000000001  0.1216  1.0000
  H   H22       1.0  0.71251  0.04828000000000002  0.91737  1.0000
  H   H23       1.0  0.97427  0.87362  0.005970000000000001  1.0000
  H   H24       1.0  0.10262  0.8191600000000002  0.22001000000000007  1.0000
  H   H25       1.0  0.90582  0.00189  0.96818  1.0000
  H   H26       1.0  0.97323  0.82097  0.4703  1.0000
  H   H27       1.0  0.94364  0.77086  0.32535  1.0000
  H   H28       1.0  0.97352  0.49337  0.17744  1.0000
  H   H29       1.0  0.81561  0.5508  0.29200000000000004  1.0000
  H   H30       1.0  0.67285  0.56984  0.37844  1.0000
  H   H31       1.0  0.71266  0.45166  0.5828900000000001  1.0000
  H   H32       1.0  0.97266  0.6270200000000002  0.49416  1.0000
  H   H33       1.0  0.10217  0.67997  0.28029  1.0000
  H   H34       1.0  0.90582  0.4981300000000001  0.5321800000000001  1.0000
  H   H35       1.0  0.97258  0.6789900000000002  0.02995  1.0000
  H   H36       1.0  0.94324  0.72897  0.17502000000000006  1.0000
  H   H37       1.0  0.52627  0.17762000000000006  0.00668  1.0000
  H   H38       1.0  0.68344  0.29197  0.9500400000000001  1.0000
  H   H39       1.0  0.82649  0.3780500000000001  0.9301900000000001  1.0000
  H   H40       1.0  0.78739  0.5830700000000001  0.048  1.0000
  H   H41       1.0  0.52699  0.49401000000000006  0.8729000000000002  1.0000
  H   H42       1.0  0.39846  0.28007  0.81877  1.0000
  H   H43       1.0  0.5939  0.53198  0.00257  1.0000
  H   H44       1.0  0.52798  0.029560000000000003  0.82119  1.0000
  H   H45       1.0  0.55657  0.17449  0.77112  1.0000
  H   H46       1.0  0.52609  0.32234  0.49322000000000005  1.0000
  H   H47       1.0  0.68393  0.20785000000000006  0.55044  1.0000
  H   H48       1.0  0.82644  0.12157000000000003  0.5699600000000002  1.0000
  H   H49       1.0  0.78758  0.9169300000000001  0.45178000000000007  1.0000
  H   H50       1.0  0.52539  0.00632  0.62607  1.0000
  H   H51       1.0  0.39849  0.2208  0.68102  1.0000
  H   H52       1.0  0.59411  0.9679200000000002  0.49798000000000003  1.0000
  H   H53       1.0  0.52741  0.47051  0.67867  1.0000
  H   H54       1.0  0.5571  0.32554  0.7287  1.0000
  H   H55       1.0  0.02691  0.9935900000000002  0.67744  1.0000
  H   H56       1.0  0.18408  0.05102000000000002  0.79191  1.0000
  H   H57       1.0  0.32678  0.07023  0.8784  1.0000
  H   H58       1.0  0.2875  0.9517300000000001  0.08264  1.0000
  H   H59       1.0  0.02574  0.12637000000000004  0.9940300000000001  1.0000
  H   H60       1.0  0.8974100000000002  0.18084000000000006  0.7799900000000001  1.0000
  H   H61       1.0  0.09419  0.99811  0.03182  1.0000
  H   H62       1.0  0.026790000000000005  0.17905000000000001  0.5297100000000001  1.0000
  H   H63       1.0  0.0564  0.22915000000000002  0.67465  1.0000
  H   H64       1.0  0.0265  0.5066400000000001  0.82255  1.0000
  H   H65       1.0  0.18437  0.4492  0.708  1.0000
  H   H66       1.0  0.32717  0.43017  0.6215600000000002  1.0000
  H   H67       1.0  0.28735  0.54835  0.41712000000000005  1.0000
  H   H68       1.0  0.027360000000000002  0.37299  0.50583  1.0000
  H   H69       1.0  0.8978200000000001  0.32003  0.7197000000000001  1.0000
  H   H70       1.0  0.09419  0.50187  0.46782  1.0000
  H   H71       1.0  0.02743  0.32103000000000004  0.97005  1.0000
  H   H72       1.0  0.05675  0.27103  0.82499  1.0000
  C   C1        1.0  0.39088  0.60201  0.07955  1.0000
  C   C2        1.0  0.46901000000000004  0.84448  0.04952  1.0000
  C   C3        1.0  0.54614  0.609  0.15762000000000004  1.0000
  C   C4        1.0  0.38364  0.67988  0.07538  1.0000
  C   C5        1.0  0.46059  0.7208600000000001  0.11264  1.0000
  C   C6        1.0  0.20677  0.57196  0.04432  1.0000
  C   C7        1.0  0.23211  0.46610000000000007  0.9842400000000001  1.0000
  C   C8        1.0  0.47019000000000005  0.56653  0.12042000000000001  1.0000
  C   C9        1.0  0.54225  0.6870200000000001  0.15219  1.0000
  C   C10       1.0  0.32855  0.4906600000000001  0.006580000000000002  1.0000
  C   C11       1.0  0.46564  0.9189  0.14725  1.0000
  C   C12       1.0  0.4531200000000001  0.84731  0.17305  1.0000
  C   C13       1.0  0.62491  0.5714800000000002  0.21101000000000003  1.0000
  C   C14       1.0  0.3907900000000001  0.8980100000000001  0.42032000000000014  1.0000
  C   C15       1.0  0.46895  0.65551  0.45062  1.0000
  C   C16       1.0  0.54698  0.89055  0.34324  1.0000
  C   C17       1.0  0.38334  0.8201900000000001  0.42438  1.0000
  C   C18       1.0  0.46038000000000007  0.77899  0.38726  1.0000
  C   C19       1.0  0.20680000000000004  0.9283600000000001  0.45547  1.0000
  C   C20       1.0  0.23193  0.03409  0.51566  1.0000
  C   C21       1.0  0.47076  0.9331800000000001  0.38016  1.0000
  C   C22       1.0  0.54238  0.81251  0.34793000000000013  1.0000
  C   C23       1.0  0.32837  0.009540000000000002  0.49308  1.0000
  C   C24       1.0  0.46548  0.58099  0.35293000000000013  1.0000
  C   C25       1.0  0.45277000000000006  0.6525900000000001  0.32709  1.0000
  C   C26       1.0  0.62706  0.9290700000000001  0.29173  1.0000
  C   C27       1.0  0.89086  0.9200100000000002  0.10199  1.0000
  C   C28       1.0  0.96885  0.95021  0.3444900000000001  1.0000
  C   C29       1.0  0.04728  0.84278  0.10889000000000003  1.0000
  C   C30       1.0  0.8833000000000001  0.9238200000000001  0.17987  1.0000
  C   C31       1.0  0.96083  0.88696  0.22078000000000006  1.0000
  C   C32       1.0  0.70661  0.9553300000000001  0.07181  1.0000
  C   C33       1.0  0.7319  0.0157  0.96631  1.0000
  C   C34       1.0  0.97094  0.8798800000000002  0.06653  1.0000
  C   C35       1.0  0.04313000000000001  0.8479  0.18693  1.0000
  C   C36       1.0  0.82831  0.9929800000000002  0.99078  1.0000
  C   C37       1.0  0.966  0.85258  0.41886  1.0000
  C   C38       1.0  0.95354  0.8266800000000002  0.3472  1.0000
  C   C39       1.0  0.12657  0.7904300000000002  0.07022  1.0000
  C   C40       1.0  0.89015  0.57983  0.39813  1.0000
  C   C41       1.0  0.96887  0.5496  0.15554  1.0000
  C   C42       1.0  0.04625  0.65691  0.39139  1.0000
  C   C43       1.0  0.8829200000000001  0.57582  0.32022  1.0000
  C   C44       1.0  0.9602800000000001  0.61272  0.27938  1.0000
  C   C45       1.0  0.70629  0.54431  0.42828  1.0000
  C   C46       1.0  0.7319800000000001  0.48419  0.5339400000000002  1.0000
  C   C47       1.0  0.96968  0.62025  0.43365  1.0000
  C   C48       1.0  0.04241  0.65167  0.3133400000000001  1.0000
  C   C49       1.0  0.8282600000000001  0.50688  0.50945  1.0000
  C   C50       1.0  0.96566  0.6473600000000002  0.08137000000000001  1.0000
  C   C51       1.0  0.9531900000000001  0.6731600000000002  0.15306000000000003  1.0000
  C   C52       1.0  0.12499  0.70953  0.4300100000000001  1.0000
  C   C53       1.0  0.60911  0.39801  0.9204300000000001  1.0000
  C   C54       1.0  0.53099  0.15554  0.9504800000000001  1.0000
  C   C55       1.0  0.45386  0.391  0.84238  1.0000
  C   C56       1.0  0.61635  0.32015000000000005  0.9246  1.0000
  C   C57       1.0  0.5394  0.27916  0.88734  1.0000
  C   C58       1.0  0.79323  0.42806  0.95567  1.0000
  C   C59       1.0  0.76789  0.5339  0.01577  1.0000
  C   C60       1.0  0.5298  0.4335000000000001  0.8795700000000002  1.0000
  C   C61       1.0  0.45775  0.31299  0.8478000000000002  1.0000
  C   C62       1.0  0.67145  0.50935  0.9934100000000001  1.0000
  C   C63       1.0  0.53438  0.08111  0.85275  1.0000
  C   C64       1.0  0.54688  0.1527  0.82694  1.0000
  C   C65       1.0  0.37508  0.42845  0.78899  1.0000
  C   C66       1.0  0.60921  0.10201  0.57967  1.0000
  C   C67       1.0  0.53105  0.3445  0.54938  1.0000
  C   C68       1.0  0.45304  0.10943  0.65677  1.0000
  C   C69       1.0  0.61666  0.17982000000000006  0.57562  1.0000
  C   C70       1.0  0.53961  0.22101000000000007  0.61274  1.0000
  C   C71       1.0  0.79321  0.07166000000000003  0.54451  1.0000
  C   C72       1.0  0.7681000000000001  0.9659300000000001  0.48433  1.0000
  C   C73       1.0  0.52926  0.06683000000000001  0.61983  1.0000
  C   C74       1.0  0.45762  0.18749  0.6520800000000001  1.0000
  C   C75       1.0  0.67165  0.9904700000000001  0.50692  1.0000
  C   C76       1.0  0.53453  0.41902  0.64707  1.0000
  C   C77       1.0  0.54724  0.34742  0.67291  1.0000
  C   C78       1.0  0.37298  0.07086000000000003  0.70826  1.0000
  C   C79       1.0  0.10914999999999998  0.07999000000000003  0.8980100000000001  1.0000
  C   C80       1.0  0.031170000000000003  0.049800000000000004  0.6555  1.0000
  C   C81       1.0  0.95273  0.15721  0.89111  1.0000
  C   C82       1.0  0.11672  0.07618000000000003  0.82013  1.0000
  C   C83       1.0  0.03919  0.11304000000000002  0.77921  1.0000
  C   C84       1.0  0.2934  0.04467  0.92819  1.0000
  C   C85       1.0  0.26811  0.9843100000000001  0.0337  1.0000
  C   C86       1.0  0.029070000000000002  0.12011  0.93347  1.0000
  C   C87       1.0  0.9568900000000001  0.1521  0.8130600000000002  1.0000
  C   C88       1.0  0.17171  0.007030000000000001  0.00922  1.0000
  C   C89       1.0  0.03402  0.14743  0.58114  1.0000
  C   C90       1.0  0.046490000000000004  0.17333  0.6528  1.0000
  C   C91       1.0  0.87343  0.20957000000000003  0.92978  1.0000
  C   C92       1.0  0.10985  0.42017  0.60187  1.0000
  C   C93       1.0  0.03113  0.45041000000000003  0.8444500000000003  1.0000
  C   C94       1.0  0.95376  0.34309  0.6086  1.0000
  C   C95       1.0  0.11708000000000002  0.4241700000000001  0.67978  1.0000
  C   C96       1.0  0.03971000000000001  0.38728  0.72061  1.0000
  C   C97       1.0  0.29371  0.45570000000000005  0.57172  1.0000
  C   C98       1.0  0.26802  0.51582  0.46607  1.0000
  C   C99       1.0  0.03032  0.3797500000000001  0.56634  1.0000
  C   C100      1.0  0.95759  0.34833  0.68665  1.0000
  C   C101      1.0  0.17174  0.49313  0.49056000000000005  1.0000
  C   C102      1.0  0.03434  0.35266  0.9186300000000001  1.0000
  C   C103      1.0  0.0468  0.32684  0.84694  1.0000
  C   C104      1.0  0.87503  0.29046  0.5699800000000002  1.0000
  N   N1        1.0  0.31177  0.55758  0.044160000000000005  1.0000
  N   N2        1.0  0.15644000000000005  0.51667  0.0085  1.0000
  N   N3        1.0  0.4755  0.91611  0.07008000000000002  1.0000
  N   N4        1.0  0.45604  0.8010500000000003  0.11108  1.0000
  N   N5        1.0  0.31169  0.9427000000000001  0.45546000000000003  1.0000
  N   N6        1.0  0.15638  0.98361  0.49142000000000013  1.0000
  N   N7        1.0  0.47551  0.58386  0.43009  1.0000
  N   N8        1.0  0.4557  0.6988700000000002  0.38901  1.0000
  N   N9        1.0  0.81157  0.9552400000000001  0.057490000000000006  1.0000
  N   N10       1.0  0.65628  0.99146  0.016700000000000003  1.0000
  N   N11       1.0  0.97547  0.9297600000000001  0.41610000000000014  1.0000
  N   N12       1.0  0.95629  0.8885700000000002  0.30096  1.0000
  N   N13       1.0  0.81124  0.54446  0.44262  1.0000
  N   N14       1.0  0.65623  0.5083300000000001  0.48347  1.0000
  N   N15       1.0  0.97531  0.57017  0.08395  1.0000
  N   N16       1.0  0.95603  0.6111800000000002  0.19917  1.0000
  N   N17       1.0  0.68822  0.44244  0.9558300000000001  1.0000
  N   N18       1.0  0.84356  0.48333  0.9915000000000002  1.0000
  N   N19       1.0  0.52452  0.08391000000000001  0.92992  1.0000
  N   N20       1.0  0.54395  0.19897  0.8889100000000002  1.0000
  N   N21       1.0  0.68832  0.05732  0.54453  1.0000
  N   N22       1.0  0.84364  0.01641  0.50857  1.0000
  N   N23       1.0  0.5245  0.41615  0.56992  1.0000
  N   N24       1.0  0.54429  0.30114  0.611  1.0000
  N   N25       1.0  0.18844  0.04476  0.9425100000000001  1.0000
  N   N26       1.0  0.34373000000000004  0.00854  0.98331  1.0000
  N   N27       1.0  0.02455  0.07026000000000002  0.58389  1.0000
  N   N28       1.0  0.04374  0.11144000000000003  0.69903  1.0000
  N   N29       1.0  0.18876  0.45555  0.55738  1.0000
  N   N30       1.0  0.34378  0.49169000000000007  0.51654  1.0000
  N   N31       1.0  0.024700000000000003  0.42985  0.91604  1.0000
  N   N32       1.0  0.04395  0.3888200000000001  0.80082  1.0000
  O   O1        1.0  0.61924  0.50129  0.21628000000000006  1.0000
  O   O2        1.0  0.6833699999999999  0.6168  0.24666000000000005  1.0000
  O   O3        1.0  0.62438  0.99952  0.29063  1.0000
  O   O4        1.0  0.68381  0.8845600000000002  0.25354  1.0000
  O   O5        1.0  0.12129  0.78744  0.99992  1.0000
  O   O6        1.0  0.18528000000000003  0.75325  0.11413  1.0000
  O   O7        1.0  0.11606  0.71583  0.49993000000000004  1.0000
  O   O8        1.0  0.18679000000000004  0.7436800000000001  0.38603  1.0000
  O   O9        1.0  0.38073  0.49863  0.78369  1.0000
  O   O10       1.0  0.31666  0.3831  0.75334  1.0000
  O   O11       1.0  0.3757  0.0004200000000000002  0.70935  1.0000
  O   O12       1.0  0.31616  0.11530000000000001  0.74646  1.0000
  O   O13       1.0  0.87871  0.21257  7e-05  1.0000
  O   O14       1.0  0.8147300000000001  0.24675000000000002  0.88587  1.0000
  O   O15       1.0  0.8839600000000001  0.28417  0.50005  1.0000
  O   O16       1.0  0.81324  0.25629000000000013  0.61395  1.0000
