data_image0
_chemical_formula_structural       Ag8H96C136N48
_chemical_formula_sum              "Ag8 H96 C136 N48"
_cell_length_a       7.19232
_cell_length_b       23.13411
_cell_length_c       23.13507
_cell_angle_alpha    88.54486000000001
_cell_angle_beta     80.8274
_cell_angle_gamma    80.83073

_symmetry_space_group_name_H-M    'P 1'
_symmetry_Int_Tables_number       1

loop_
  _symmetry_equiv_pos_as_xyz
  'x,y,z'

loop_
  _atom_site_type_symbol
  _atom_site_label
  _atom_site_symmetry_multiplicity
  _atom_site_fract_x
  _atom_site_fract_y
  _atom_site_fract_z
  _atom_site_occupancy
  Ag  Ag1       1.0  0.8715700000000001  0.39742  0.97642  1.0000
  Ag  Ag2       1.0  0.24605999999999997  0.10141000000000001  0.52373  1.0000
  Ag  Ag3       1.0  0.76818  0.97684  0.10161000000000002  1.0000
  Ag  Ag4       1.0  0.84875  0.52414  0.39764  1.0000
  Ag  Ag5       1.0  0.12843  0.60257  0.023580000000000004  1.0000
  Ag  Ag6       1.0  0.75395  0.8985900000000001  0.47627  1.0000
  Ag  Ag7       1.0  0.23181999999999994  0.023160000000000004  0.8983900000000001  1.0000
  Ag  Ag8       1.0  0.15125999999999995  0.47586000000000006  0.60236  1.0000
  H   H1        1.0  0.6291899999999999  0.4813200000000001  0.86224  1.0000
  H   H2        1.0  0.41321000000000024  0.5705  0.90393  1.0000
  H   H3        1.0  0.12278999999999998  0.4714900000000001  0.02947  1.0000
  H   H4        1.0  0.33152999999999994  0.38077  0.9966100000000001  1.0000
  H   H5        1.0  0.85994  0.19866  0.78105  1.0000
  H   H6        1.0  0.041549999999999844  0.10035  0.7901900000000002  1.0000
  H   H7        1.0  0.06396999999999983  0.12592  0.9657000000000002  1.0000
  H   H8        1.0  0.8845099999999999  0.22484000000000007  0.9649200000000002  1.0000
  H   H9        1.0  0.44636999999999993  0.22913  0.9560700000000001  1.0000
  H   H10       1.0  0.3874299999999999  0.19894000000000006  0.06219000000000001  1.0000
  H   H11       1.0  0.5274399999999998  0.25046  0.13626  1.0000
  H   H12       1.0  0.71446  0.33038  0.10070000000000001  1.0000
  H   H13       1.0  0.9723199999999997  0.01773  0.63693  1.0000
  H   H14       1.0  0.8855700000000001  0.92961  0.59511  1.0000
  H   H15       1.0  0.62374  0.030360000000000005  0.47034  1.0000
  H   H16       1.0  0.71024  0.12022000000000002  0.5035  1.0000
  H   H17       1.0  0.8399599999999998  0.30009  0.7189100000000002  1.0000
  H   H18       1.0  0.93356  0.3977700000000001  0.7104700000000003  1.0000
  H   H19       1.0  0.1554799999999999  0.3736000000000001  0.5342100000000001  1.0000
  H   H20       1.0  0.07294999999999997  0.27527  0.53438  1.0000
  H   H21       1.0  0.63208  0.27104  0.5440800000000001  1.0000
  H   H22       1.0  0.64889  0.301  0.438  1.0000
  H   H23       1.0  0.91613  0.24909000000000003  0.36352  1.0000
  H   H24       1.0  0.14871999999999996  0.1691  0.39888  1.0000
  H   H25       1.0  0.6105999999999999  0.8623300000000002  0.01874  1.0000
  H   H26       1.0  0.48306999999999994  0.90387  0.93018  1.0000
  H   H27       1.0  0.09425  0.02968  0.029910000000000003  1.0000
  H   H28       1.0  0.21297  0.9969  0.12010000000000003  1.0000
  H   H29       1.0  0.5595200000000001  0.7813100000000001  0.30148  1.0000
  H   H30       1.0  0.6441600000000001  0.79044  0.39919  1.0000
  H   H31       1.0  0.69034  0.96615  0.37339  1.0000
  H   H32       1.0  0.6082099999999999  0.9653500000000002  0.27503  1.0000
  H   H33       1.0  0.17435999999999982  0.95635  0.27139  1.0000
  H   H34       1.0  0.08452999999999998  0.0625  0.30146000000000006  1.0000
  H   H35       1.0  0.2768999999999999  0.13658  0.24977  1.0000
  H   H36       1.0  0.54475  0.10098  0.16944000000000004  1.0000
  H   H37       1.0  0.48969  0.63709  0.48229  1.0000
  H   H38       1.0  0.31527  0.59509  0.57106  1.0000
  H   H39       1.0  0.15247999999999998  0.47057  0.47107000000000004  1.0000
  H   H40       1.0  0.32842000000000005  0.5038100000000001  0.38067  1.0000
  H   H41       1.0  0.6386300000000003  0.71917  0.20002  1.0000
  H   H42       1.0  0.82928  0.7106700000000001  0.10175000000000001  1.0000
  H   H43       1.0  0.02873999999999997  0.5346200000000001  0.12578  1.0000
  H   H44       1.0  0.8487599999999997  0.5348100000000001  0.22467000000000004  1.0000
  H   H45       1.0  0.4033  0.54433  0.22947  1.0000
  H   H46       1.0  0.45099  0.4382600000000001  0.19941000000000006  1.0000
  H   H47       1.0  0.66574  0.36383  0.25116  1.0000
  H   H48       1.0  0.8177299999999998  0.39921000000000006  0.33075  1.0000
  H   H49       1.0  0.37081000000000003  0.51868  0.13776  1.0000
  H   H50       1.0  0.58679  0.4295  0.09606000000000002  1.0000
  H   H51       1.0  0.8772100000000004  0.52851  0.97052  1.0000
  H   H52       1.0  0.6684700000000001  0.61923  0.00338  1.0000
  H   H53       1.0  0.14006  0.80134  0.21895  1.0000
  H   H54       1.0  0.9584599999999996  0.8996500000000001  0.20981000000000002  1.0000
  H   H55       1.0  0.9360399999999999  0.87408  0.0343  1.0000
  H   H56       1.0  0.1154999999999999  0.7751600000000002  0.03508000000000001  1.0000
  H   H57       1.0  0.5536299999999997  0.7708700000000002  0.04392  1.0000
  H   H58       1.0  0.6125800000000001  0.80106  0.9378100000000003  1.0000
  H   H59       1.0  0.47255999999999987  0.74954  0.8637300000000001  1.0000
  H   H60       1.0  0.28554999999999986  0.66962  0.8993000000000002  1.0000
  H   H61       1.0  0.027679999999999975  0.98227  0.36306  1.0000
  H   H62       1.0  0.11444000000000001  0.07038  0.40488  1.0000
  H   H63       1.0  0.3762699999999997  0.9696400000000002  0.5296500000000001  1.0000
  H   H64       1.0  0.2897599999999999  0.8797800000000002  0.4965  1.0000
  H   H65       1.0  0.16003999999999996  0.6999  0.28108  1.0000
  H   H66       1.0  0.06645  0.60223  0.28952  1.0000
  H   H67       1.0  0.84453  0.62639  0.46579000000000004  1.0000
  H   H68       1.0  0.9270500000000002  0.72473  0.46562  1.0000
  H   H69       1.0  0.3679199999999999  0.72896  0.4559100000000001  1.0000
  H   H70       1.0  0.35112000000000004  0.699  0.562  1.0000
  H   H71       1.0  0.08387999999999984  0.7509100000000001  0.6364800000000002  1.0000
  H   H72       1.0  0.8512800000000001  0.8309  0.6011200000000001  1.0000
  H   H73       1.0  0.38939999999999997  0.13767  0.9812500000000001  1.0000
  H   H74       1.0  0.5169300000000002  0.09613  0.06981  1.0000
  H   H75       1.0  0.9057599999999999  0.97032  0.9700900000000001  1.0000
  H   H76       1.0  0.7870299999999999  0.0031  0.8798900000000001  1.0000
  H   H77       1.0  0.44048999999999994  0.21869  0.6985100000000001  1.0000
  H   H78       1.0  0.35584000000000005  0.20956  0.60081  1.0000
  H   H79       1.0  0.30966  0.03385  0.6266100000000001  1.0000
  H   H80       1.0  0.39179999999999987  0.03465  0.7249600000000002  1.0000
  H   H81       1.0  0.8256399999999999  0.04365  0.72861  1.0000
  H   H82       1.0  0.9154799999999998  0.9375000000000002  0.69854  1.0000
  H   H83       1.0  0.7231099999999999  0.8634200000000001  0.75023  1.0000
  H   H84       1.0  0.45526000000000005  0.89902  0.83056  1.0000
  H   H85       1.0  0.5103199999999999  0.36291000000000007  0.5177100000000001  1.0000
  H   H86       1.0  0.68473  0.40491000000000005  0.42893  1.0000
  H   H87       1.0  0.8475300000000001  0.52943  0.52893  1.0000
  H   H88       1.0  0.6715899999999999  0.49619  0.6193300000000002  1.0000
  H   H89       1.0  0.3613699999999999  0.28082  0.7999700000000002  1.0000
  H   H90       1.0  0.1707299999999999  0.28933  0.8982500000000002  1.0000
  H   H91       1.0  0.9712600000000005  0.46538  0.87421  1.0000
  H   H92       1.0  0.15125000000000002  0.46519  0.77533  1.0000
  H   H93       1.0  0.5967  0.4556700000000001  0.77053  1.0000
  H   H94       1.0  0.54902  0.56174  0.80058  1.0000
  H   H95       1.0  0.3342599999999997  0.6361700000000001  0.7488300000000002  1.0000
  H   H96       1.0  0.18228  0.60079  0.66924  1.0000
  C   C1        1.0  0.51653  0.47811  0.89896  1.0000
  C   C2        1.0  0.3969500000000002  0.52738  0.92194  1.0000
  C   C3        1.0  0.23812999999999998  0.47253  0.9929700000000002  1.0000
  C   C4        1.0  0.3556499999999999  0.42123  0.9739800000000002  1.0000
  C   C5        1.0  0.49767999999999996  0.42192  0.92358  1.0000
  C   C6        1.0  0.60628  0.37098  0.89356  1.0000
  C   C7        1.0  0.74787  0.28019000000000005  0.8689900000000002  1.0000
  C   C8        1.0  0.84796  0.22126000000000004  0.8729800000000002  1.0000
  C   C9        1.0  0.89901  0.18440000000000004  0.82334  1.0000
  C   C10       1.0  0.0017799999999999995  0.12898  0.82821  1.0000
  C   C11       1.0  0.013979999999999892  0.14327  0.9258100000000002  1.0000
  C   C12       1.0  0.9104999999999999  0.19887  0.9252200000000003  1.0000
  C   C13       1.0  0.6030499999999999  0.29662  0.9749900000000002  1.0000
  C   C14       1.0  0.4984100000000001  0.25089  0.99025  1.0000
  C   C15       1.0  0.46920999999999996  0.23399000000000003  0.04882  1.0000
  C   C16       1.0  0.5460999999999999  0.26269  0.09022000000000002  1.0000
  C   C17       1.0  0.6493  0.30738  0.07066  1.0000
  C   C18       1.0  0.8930200000000001  0.021700000000000004  0.60044  1.0000
  C   C19       1.0  0.8447999999999997  0.97291  0.57737  1.0000
  C   C20       1.0  0.70338  0.02867  0.50674  1.0000
  C   C21       1.0  0.7515899999999999  0.07952  0.5258400000000001  1.0000
  C   C22       1.0  0.8434499999999999  0.07811  0.5761400000000001  1.0000
  C   C23       1.0  0.87101  0.12872  0.6062400000000001  1.0000
  C   C24       1.0  0.8967199999999999  0.21933000000000005  0.6307  1.0000
  C   C25       1.0  0.94189  0.27809  0.6267  1.0000
  C   C26       1.0  0.9071599999999999  0.31449  0.67661  1.0000
  C   C27       1.0  0.9598699999999998  0.36968  0.6720900000000001  1.0000
  C   C28       1.0  0.08312999999999997  0.3561  0.57414  1.0000
  C   C29       1.0  0.03404999999999994  0.30076  0.5744200000000002  1.0000
  C   C30       1.0  0.87598  0.20313000000000006  0.52483  1.0000
  C   C31       1.0  0.74038  0.24903  0.50974  1.0000
  C   C32       1.0  0.7529800000000001  0.26586  0.45118  1.0000
  C   C33       1.0  0.90068  0.23694000000000004  0.40959  1.0000
  C   C34       1.0  0.029789999999999914  0.19222000000000006  0.42903000000000013  1.0000
  C   C35       1.0  0.4948  0.8991  0.02235  1.0000
  C   C36       1.0  0.42408999999999997  0.9220200000000001  0.9733300000000001  1.0000
  C   C37       1.0  0.21083999999999983  0.9932000000000002  0.02854  1.0000
  C   C38       1.0  0.2775099999999999  0.97424  0.0796  1.0000
  C   C39       1.0  0.42025999999999997  0.9237900000000001  0.07861000000000001  1.0000
  C   C40       1.0  0.47766000000000003  0.89374  0.12939  1.0000
  C   C41       1.0  0.52787  0.86928  0.22004  1.0000
  C   C42       1.0  0.5690699999999999  0.8733200000000001  0.27877  1.0000
  C   C43       1.0  0.5841200000000004  0.82366  0.31556000000000006  1.0000
  C   C44       1.0  0.6321399999999996  0.82853  0.3707  1.0000
  C   C45       1.0  0.6577000000000001  0.9262200000000002  0.35628  1.0000
  C   C46       1.0  0.60895  0.92562  0.30098  1.0000
  C   C47       1.0  0.39945  0.97525  0.20365  1.0000
  C   C48       1.0  0.24837999999999977  0.9905500000000002  0.24949  1.0000
  C   C49       1.0  0.20201  0.04914  0.26634  1.0000
  C   C50       1.0  0.30792  0.09054  0.23746  1.0000
  C   C51       1.0  0.45649  0.07094  0.19266000000000003  1.0000
  C   C52       1.0  0.41398000000000007  0.60058  0.47875000000000006  1.0000
  C   C53       1.0  0.31726  0.57747  0.5278  1.0000
  C   C54       1.0  0.23062  0.50696  0.47243  1.0000
  C   C55       1.0  0.32937999999999995  0.5261  0.4213200000000001  1.0000
  C   C56       1.0  0.42004999999999976  0.57638  0.4224100000000001  1.0000
  C   C57       1.0  0.49851999999999996  0.60646  0.37163  1.0000
  C   C58       1.0  0.6154299999999999  0.6310000000000001  0.28089  1.0000
  C   C59       1.0  0.7195299999999996  0.62703  0.22195  1.0000
  C   C60       1.0  0.7205500000000001  0.6769100000000001  0.18546  1.0000
  C   C61       1.0  0.8281  0.67239  0.13001  1.0000
  C   C62       1.0  0.93871  0.57451  0.1435  1.0000
  C   C63       1.0  0.8347900000000005  0.57479  0.19912000000000002  1.0000
  C   C64       1.0  0.57857  0.5251  0.2971500000000001  1.0000
  C   C65       1.0  0.4895000000000001  0.51003  0.25136  1.0000
  C   C66       1.0  0.5193399999999999  0.45147000000000004  0.23447000000000004  1.0000
  C   C67       1.0  0.6380199999999998  0.40992  0.26322000000000007  1.0000
  C   C68       1.0  0.7218199999999998  0.42933000000000004  0.30784  1.0000
  C   C69       1.0  0.48347  0.52189  0.10103000000000002  1.0000
  C   C70       1.0  0.6030500000000001  0.47262  0.07806000000000002  1.0000
  C   C71       1.0  0.7618699999999999  0.5274700000000001  0.00702  1.0000
  C   C72       1.0  0.64436  0.5787700000000001  0.02601  1.0000
  C   C73       1.0  0.50232  0.57808  0.07642  1.0000
  C   C74       1.0  0.3937299999999999  0.6290200000000001  0.10644000000000003  1.0000
  C   C75       1.0  0.25212999999999997  0.71981  0.13101  1.0000
  C   C76       1.0  0.15205000000000002  0.77874  0.12702  1.0000
  C   C77       1.0  0.10098999999999998  0.8156000000000001  0.17665  1.0000
  C   C78       1.0  0.99822  0.8710200000000001  0.17179000000000003  1.0000
  C   C79       1.0  0.9860299999999999  0.85673  0.07418000000000001  1.0000
  C   C80       1.0  0.08949999999999994  0.8011300000000001  0.07477000000000002  1.0000
  C   C81       1.0  0.39696  0.70338  0.025010000000000008  1.0000
  C   C82       1.0  0.5016  0.7491  0.00975  1.0000
  C   C83       1.0  0.5307899999999999  0.7660100000000001  0.95118  1.0000
  C   C84       1.0  0.45389999999999975  0.7373000000000002  0.90978  1.0000
  C   C85       1.0  0.35070000000000007  0.69262  0.92933  1.0000
  C   C86       1.0  0.10697999999999996  0.9783000000000001  0.3995600000000001  1.0000
  C   C87       1.0  0.15519999999999995  0.02709  0.42262  1.0000
  C   C88       1.0  0.29661999999999994  0.9713300000000001  0.49326  1.0000
  C   C89       1.0  0.24840999999999996  0.92048  0.47416  1.0000
  C   C90       1.0  0.15655  0.92189  0.42386  1.0000
  C   C91       1.0  0.12899  0.87128  0.39375  1.0000
  C   C92       1.0  0.10327999999999986  0.7806700000000001  0.3693000000000001  1.0000
  C   C93       1.0  0.058119999999999984  0.72191  0.37330000000000013  1.0000
  C   C94       1.0  0.09284000000000006  0.68551  0.32339000000000007  1.0000
  C   C95       1.0  0.04013999999999998  0.63032  0.3279000000000001  1.0000
  C   C96       1.0  0.9168800000000001  0.6439000000000001  0.42585000000000006  1.0000
  C   C97       1.0  0.96595  0.69924  0.42558  1.0000
  C   C98       1.0  0.12401999999999977  0.7968700000000002  0.4751700000000001  1.0000
  C   C99       1.0  0.25962  0.75097  0.49025  1.0000
  C   C100      1.0  0.24702000000000007  0.73414  0.54882  1.0000
  C   C101      1.0  0.09933000000000002  0.76306  0.59041  1.0000
  C   C102      1.0  0.9702100000000001  0.80778  0.57097  1.0000
  C   C103      1.0  0.5052099999999999  0.1009  0.9776500000000001  1.0000
  C   C104      1.0  0.5759099999999999  0.07798000000000001  0.02667  1.0000
  C   C105      1.0  0.7891600000000001  0.0068  0.97145  1.0000
  C   C106      1.0  0.72249  0.02576  0.9204  1.0000
  C   C107      1.0  0.57974  0.0762  0.92139  1.0000
  C   C108      1.0  0.52235  0.10626  0.87061  1.0000
  C   C109      1.0  0.4721299999999999  0.13072  0.7799500000000003  1.0000
  C   C110      1.0  0.4309299999999999  0.12668  0.7212300000000003  1.0000
  C   C111      1.0  0.4158899999999999  0.17634000000000002  0.68444  1.0000
  C   C112      1.0  0.36786  0.17147000000000004  0.6293  1.0000
  C   C113      1.0  0.34230000000000005  0.07378  0.64372  1.0000
  C   C114      1.0  0.3910600000000001  0.07438  0.69902  1.0000
  C   C115      1.0  0.6005599999999999  0.024750000000000005  0.7963400000000002  1.0000
  C   C116      1.0  0.7516300000000001  0.00944  0.75051  1.0000
  C   C117      1.0  0.798  0.9508600000000001  0.73365  1.0000
  C   C118      1.0  0.6920799999999999  0.9094600000000002  0.76254  1.0000
  C   C119      1.0  0.5435200000000004  0.92906  0.8073300000000001  1.0000
  C   C120      1.0  0.5860199999999999  0.39942000000000005  0.52125  1.0000
  C   C121      1.0  0.6827399999999999  0.42252  0.47219  1.0000
  C   C122      1.0  0.7693799999999998  0.49304  0.5275700000000001  1.0000
  C   C123      1.0  0.6706200000000001  0.47390000000000004  0.57867  1.0000
  C   C124      1.0  0.57995  0.42362000000000005  0.5775900000000002  1.0000
  C   C125      1.0  0.50149  0.39354000000000006  0.62837  1.0000
  C   C126      1.0  0.3845799999999999  0.369  0.7191100000000001  1.0000
  C   C127      1.0  0.28047000000000005  0.37296  0.77805  1.0000
  C   C128      1.0  0.2794499999999999  0.32308000000000003  0.81454  1.0000
  C   C129      1.0  0.17189999999999994  0.32761  0.86999  1.0000
  C   C130      1.0  0.06129999999999991  0.42549  0.8565000000000002  1.0000
  C   C131      1.0  0.16521999999999987  0.42521000000000003  0.8008800000000003  1.0000
  C   C132      1.0  0.42144000000000004  0.4749  0.70285  1.0000
  C   C133      1.0  0.5104999999999996  0.48997  0.7486300000000002  1.0000
  C   C134      1.0  0.48066000000000014  0.54853  0.76552  1.0000
  C   C135      1.0  0.36198999999999976  0.5900800000000002  0.7367700000000001  1.0000
  C   C136      1.0  0.27818000000000004  0.57067  0.69216  1.0000
  N   N1        1.0  0.2506699999999999  0.52597  0.9675400000000002  1.0000
  N   N2        1.0  0.681  0.36971  0.8361700000000001  1.0000
  N   N3        1.0  0.76448  0.31423  0.82143  1.0000
  N   N4        1.0  0.6424399999999998  0.3143  0.9160400000000002  1.0000
  N   N5        1.0  0.05933999999999998  0.10735  0.8786400000000001  1.0000
  N   N6        1.0  0.6787000000000001  0.32469000000000003  0.014330000000000002  1.0000
  N   N7        1.0  0.7426500000000001  0.9750600000000001  0.532  1.0000
  N   N8        1.0  0.88656  0.12986  0.66356  1.0000
  N   N9        1.0  0.8993100000000003  0.18525  0.6782500000000001  1.0000
  N   N10       1.0  0.8732699999999999  0.18536  0.5837300000000001  1.0000
  N   N11       1.0  0.04614999999999987  0.39156000000000013  0.62166  1.0000
  N   N12       1.0  0.019880000000000023  0.17490000000000003  0.48535  1.0000
  N   N13       1.0  0.2764500000000001  0.9676800000000001  0.9750600000000001  1.0000
  N   N14       1.0  0.55105  0.83635  0.13063000000000002  1.0000
  N   N15       1.0  0.5787700000000001  0.82169  0.18603000000000006  1.0000
  N   N16       1.0  0.4566799999999999  0.9162900000000002  0.18601  1.0000
  N   N17       1.0  0.6679500000000002  0.87899  0.39213  1.0000
  N   N18       1.0  0.50348  0.01458  0.17538000000000004  1.0000
  N   N19       1.0  0.21685  0.53214  0.5260000000000001  1.0000
  N   N20       1.0  0.5154899999999999  0.66376  0.37046000000000007  1.0000
  N   N21       1.0  0.58388  0.67852  0.31499  1.0000
  N   N22       1.0  0.5576999999999999  0.5840100000000001  0.31493  1.0000
  N   N23       1.0  0.93656  0.62198  0.10797000000000002  1.0000
  N   N24       1.0  0.69422  0.48564  0.32519000000000003  1.0000
  N   N25       1.0  0.74933  0.47403  0.03245000000000001  1.0000
  N   N26       1.0  0.31899999999999995  0.63029  0.16382  1.0000
  N   N27       1.0  0.23551999999999995  0.68577  0.17856000000000002  1.0000
  N   N28       1.0  0.3575600000000001  0.6857  0.08395000000000001  1.0000
  N   N29       1.0  0.9406700000000001  0.89265  0.12136000000000001  1.0000
  N   N30       1.0  0.3212999999999998  0.67531  0.98567  1.0000
  N   N31       1.0  0.25735  0.02494  0.468  1.0000
  N   N32       1.0  0.11344000000000003  0.87014  0.33643  1.0000
  N   N33       1.0  0.10068999999999995  0.81475  0.32175000000000004  1.0000
  N   N34       1.0  0.12673000000000006  0.81464  0.41626  1.0000
  N   N35       1.0  0.9538499999999996  0.60844  0.37833  1.0000
  N   N36       1.0  0.9801199999999999  0.8251  0.5146400000000001  1.0000
  N   N37       1.0  0.7235599999999999  0.03232  0.02493  1.0000
  N   N38       1.0  0.44895  0.16365  0.86937  1.0000
  N   N39       1.0  0.42122999999999994  0.17831000000000002  0.8139600000000002  1.0000
  N   N40       1.0  0.5433199999999997  0.08371  0.8139900000000002  1.0000
  N   N41       1.0  0.3320499999999999  0.121  0.6078700000000001  1.0000
  N   N42       1.0  0.4965300000000001  0.9854100000000001  0.82461  1.0000
  N   N43       1.0  0.7831500000000001  0.46786  0.474  1.0000
  N   N44       1.0  0.4845200000000001  0.33624  0.62954  1.0000
  N   N45       1.0  0.41612000000000005  0.32148  0.68501  1.0000
  N   N46       1.0  0.44231000000000004  0.41599  0.68507  1.0000
  N   N47       1.0  0.06344000000000004  0.37802  0.89203  1.0000
  N   N48       1.0  0.30578  0.51435  0.67481  1.0000
