data_image0
_chemical_formula_structural       Cd8H112C136N24O32
_chemical_formula_sum              "Cd8 H112 C136 N24 O32"
_cell_length_a       10.38037
_cell_length_b       15.416200000000002
_cell_length_c       25.29087
_cell_angle_alpha    90.0
_cell_angle_beta     89.99955
_cell_angle_gamma    90.11720999999999

_symmetry_space_group_name_H-M    'P 1'
_symmetry_Int_Tables_number       1

loop_
  _symmetry_equiv_pos_as_xyz
  'x,y,z'

loop_
  _atom_site_type_symbol
  _atom_site_label
  _atom_site_symmetry_multiplicity
  _atom_site_fract_x
  _atom_site_fract_y
  _atom_site_fract_z
  _atom_site_occupancy
  Cd  Cd1       1.0  0.90969  0.50161  0.53584  1.0000
  Cd  Cd2       1.0  0.67341  0.50399  0.45608  1.0000
  Cd  Cd3       1.0  0.59032  0.49839  0.03585  1.0000
  Cd  Cd4       1.0  0.8265799999999999  0.4960199999999999  0.95609  1.0000
  Cd  Cd5       1.0  0.09053  0.0006599999999999998  0.96438  1.0000
  Cd  Cd6       1.0  0.32642  0.004919999999999999  0.04353  1.0000
  Cd  Cd7       1.0  0.40945  0.99935  0.46437  1.0000
  Cd  Cd8       1.0  0.17357  0.9950899999999998  0.54353  1.0000
  H   H1        1.0  0.79361  0.34874  0.17599  1.0000
  H   H2        1.0  0.10129999999999999  0.16144999999999995  0.17914  1.0000
  H   H3        1.0  0.08351  0.50298  0.38792  1.0000
  H   H4        1.0  0.16018  0.40116  0.38665  1.0000
  H   H5        1.0  0.9433799999999999  0.2459  0.030319999999999996  1.0000
  H   H6        1.0  0.87924  0.3345  0.32209  1.0000
  H   H7        1.0  0.9523599999999999  0.51114  0.312  1.0000
  H   H8        1.0  0.33825999999999995  0.4135  0.29514  1.0000
  H   H9        1.0  0.16741  0.13366  0.32889999999999997  1.0000
  H   H10       1.0  0.02351  0.24687999999999993  0.4725  1.0000
  H   H11       1.0  0.25635  0.63605  0.3548799999999999  1.0000
  H   H12       1.0  0.50529  0.6577099999999999  0.39405  1.0000
  H   H13       1.0  0.92629  0.50911  0.21454999999999996  1.0000
  H   H14       1.0  0.09454  0.3944299999999999  0.12403  1.0000
  H   H15       1.0  0.01374  0.49469  0.12835  1.0000
  H   H16       1.0  0.35005  0.33179  0.39928  1.0000
  H   H17       1.0  0.48401999999999995  0.3577499999999999  0.43923  1.0000
  H   H18       1.0  0.31166  0.41038  0.19807999999999998  1.0000
  H   H19       1.0  0.33925  0.40383  0.51312  1.0000
  H   H20       1.0  0.30438  0.2956099999999999  0.49391  1.0000
  H   H21       1.0  0.2003  0.38096  0.47452999999999995  1.0000
  H   H22       1.0  0.12154999999999998  0.37636  0.026059999999999993  1.0000
  H   H23       1.0  0.22025  0.2867999999999999  0.00881  1.0000
  H   H24       1.0  0.25945  0.39233  0.98558  1.0000
  H   H25       1.0  0.27375999999999995  0.32832  0.10115  1.0000
  H   H26       1.0  0.40633  0.35183  0.06011  1.0000
  H   H27       1.0  0.18438  0.63346  0.14273  1.0000
  H   H28       1.0  0.4209899999999999  0.6575  0.09303  1.0000
  H   H29       1.0  0.70637  0.6512699999999998  0.67599  1.0000
  H   H30       1.0  0.39868  0.83856  0.67914  1.0000
  H   H31       1.0  0.41648  0.49703  0.88792  1.0000
  H   H32       1.0  0.33980999999999995  0.59884  0.88665  1.0000
  H   H33       1.0  0.55661  0.7541  0.53032  1.0000
  H   H34       1.0  0.62076  0.6654999999999998  0.82209  1.0000
  H   H35       1.0  0.5476199999999999  0.48887  0.812  1.0000
  H   H36       1.0  0.16173999999999997  0.5865  0.79514  1.0000
  H   H37       1.0  0.33259  0.86634  0.8288999999999999  1.0000
  H   H38       1.0  0.47648  0.75313  0.9725  1.0000
  H   H39       1.0  0.24364  0.36395  0.8548699999999999  1.0000
  H   H40       1.0  0.9946899999999997  0.34229  0.8940499999999999  1.0000
  H   H41       1.0  0.57369  0.4908899999999999  0.71455  1.0000
  H   H42       1.0  0.40545999999999993  0.60558  0.62403  1.0000
  H   H43       1.0  0.48626  0.50532  0.62835  1.0000
  H   H44       1.0  0.14992999999999998  0.6682099999999997  0.89928  1.0000
  H   H45       1.0  0.015969999999999998  0.6422599999999998  0.93923  1.0000
  H   H46       1.0  0.18834  0.58962  0.6980799999999999  1.0000
  H   H47       1.0  0.16073999999999997  0.5961699999999999  0.01312  1.0000
  H   H48       1.0  0.19561  0.7043899999999997  0.99391  1.0000
  H   H49       1.0  0.29969  0.61904  0.97453  1.0000
  H   H50       1.0  0.37844  0.62364  0.52606  1.0000
  H   H51       1.0  0.27975  0.7132  0.50881  1.0000
  H   H52       1.0  0.24054  0.60768  0.48557999999999996  1.0000
  H   H53       1.0  0.22623  0.6716799999999998  0.60115  1.0000
  H   H54       1.0  0.09366999999999999  0.64818  0.56011  1.0000
  H   H55       1.0  0.31562  0.36654  0.6427399999999999  1.0000
  H   H56       1.0  0.079  0.3425  0.59303  1.0000
  H   H57       1.0  0.20667  0.8488099999999997  0.32409  1.0000
  H   H58       1.0  0.8988599999999998  0.66068  0.32075  1.0000
  H   H59       1.0  0.9161899999999998  0.003489999999999999  0.1121  1.0000
  H   H60       1.0  0.83928  0.9015099999999998  0.11326  1.0000
  H   H61       1.0  0.05782  0.7443199999999998  0.46958999999999995  1.0000
  H   H62       1.0  0.12006999999999998  0.8348599999999998  0.17807  1.0000
  H   H63       1.0  0.047659999999999994  0.0113  0.18795999999999996  1.0000
  H   H64       1.0  0.66129  0.9134899999999998  0.20487  1.0000
  H   H65       1.0  0.83288  0.63266  0.17136  1.0000
  H   H66       1.0  0.9777799999999998  0.74549  0.02764  1.0000
  H   H67       1.0  0.74356  0.13623  0.1452  1.0000
  H   H68       1.0  0.49487  0.15756999999999996  0.10586  1.0000
  H   H69       1.0  0.07381  0.00923  0.2854  1.0000
  H   H70       1.0  0.9050299999999999  0.89471  0.37601  1.0000
  H   H71       1.0  0.9861799999999998  0.9950599999999997  0.37159  1.0000
  H   H72       1.0  0.64933  0.83192  0.10072  1.0000
  H   H73       1.0  0.5156  0.85756  0.06061  1.0000
  H   H74       1.0  0.68795  0.9103499999999998  0.30191  1.0000
  H   H75       1.0  0.66098  0.9038  0.98684  1.0000
  H   H76       1.0  0.69517  0.7956199999999998  0.00612  1.0000
  H   H77       1.0  0.7996  0.8810099999999997  0.025559999999999996  1.0000
  H   H78       1.0  0.87851  0.8764  0.47392  1.0000
  H   H79       1.0  0.77943  0.7867699999999997  0.49117  1.0000
  H   H80       1.0  0.7408099999999999  0.8922199999999998  0.51449  1.0000
  H   H81       1.0  0.7257799999999999  0.82849  0.39888  1.0000
  H   H82       1.0  0.59346  0.8517599999999997  0.44006  1.0000
  H   H83       1.0  0.8156099999999998  0.13362  0.35711999999999994  1.0000
  H   H84       1.0  0.57948  0.1574  0.40709  1.0000
  H   H85       1.0  0.2933299999999999  0.1512  0.8240899999999999  1.0000
  H   H86       1.0  0.6011299999999999  0.33933  0.82075  1.0000
  H   H87       1.0  0.5838  0.99652  0.61211  1.0000
  H   H88       1.0  0.6607099999999999  0.09849  0.61326  1.0000
  H   H89       1.0  0.44218  0.25569  0.9695899999999998  1.0000
  H   H90       1.0  0.3799199999999999  0.16515  0.67807  1.0000
  H   H91       1.0  0.4523499999999999  0.9887  0.68796  1.0000
  H   H92       1.0  0.83869  0.08650999999999998  0.70487  1.0000
  H   H93       1.0  0.6671  0.3673399999999999  0.67136  1.0000
  H   H94       1.0  0.52221  0.25451  0.52764  1.0000
  H   H95       1.0  0.75642  0.8637699999999999  0.64521  1.0000
  H   H96       1.0  0.00513  0.84243  0.60586  1.0000
  H   H97       1.0  0.42619  0.99077  0.7853999999999999  1.0000
  H   H98       1.0  0.59496  0.10528999999999997  0.876  1.0000
  H   H99       1.0  0.51381  0.00494  0.87159  1.0000
  H   H100      1.0  0.85067  0.16808  0.60072  1.0000
  H   H101      1.0  0.98439  0.14244  0.56062  1.0000
  H   H102      1.0  0.81204  0.08966  0.80191  1.0000
  H   H103      1.0  0.83901  0.09620999999999999  0.48683999999999994  1.0000
  H   H104      1.0  0.80482  0.20438  0.50612  1.0000
  H   H105      1.0  0.7004  0.119  0.52556  1.0000
  H   H106      1.0  0.62148  0.1236  0.97391  1.0000
  H   H107      1.0  0.72056  0.21322999999999998  0.99117  1.0000
  H   H108      1.0  0.75918  0.10778  0.01449  1.0000
  H   H109      1.0  0.77421  0.17151  0.89888  1.0000
  H   H110      1.0  0.90653  0.14823999999999998  0.9400599999999999  1.0000
  H   H111      1.0  0.68437  0.86638  0.85711  1.0000
  H   H112      1.0  0.9205199999999999  0.8426  0.90709  1.0000
  C   C1        1.0  0.17468  0.1181  0.43739  1.0000
  C   C2        1.0  0.02751  0.19427999999999995  0.10157  1.0000
  C   C3        1.0  0.86236  0.30569  0.09955  1.0000
  C   C4        1.0  0.87309  0.36906  0.42925  1.0000
  C   C5        1.0  0.9457  0.29942  0.4003399999999999  1.0000
  C   C6        1.0  0.09938  0.18103  0.40439  1.0000
  C   C7        1.0  0.02146  0.23238  0.31959999999999994  1.0000
  C   C8        1.0  0.8599999999999999  0.30661  0.15486  1.0000
  C   C9        1.0  0.9473799999999999  0.2553  0.18338  1.0000
  C   C10       1.0  0.03328  0.20006  0.15657  1.0000
  C   C11       1.0  0.16274  0.46661  0.36971  1.0000
  C   C12       1.0  0.94408  0.24841  0.07322  1.0000
  C   C13       1.0  0.94123  0.29258  0.34537999999999996  1.0000
  C   C14       1.0  0.14709  0.46311999999999987  0.31028  1.0000
  C   C15       1.0  0.031089999999999996  0.48881999999999987  0.28704  1.0000
  C   C16       1.0  0.24724999999999994  0.43371  0.27766  1.0000
  C   C17       1.0  0.10313  0.17839  0.34911  1.0000
  C   C18       1.0  0.38479  0.4668  0.41132  1.0000
  C   C19       1.0  0.1167  0.4594399999999999  0.19951  1.0000
  C   C20       1.0  0.02263  0.24251  0.42968  1.0000
  C   C21       1.0  0.32037999999999994  0.59179  0.37505  1.0000
  C   C22       1.0  0.44244999999999995  0.6016199999999998  0.39468999999999993  1.0000
  C   C23       1.0  0.01618  0.48715999999999987  0.2321  1.0000
  C   C24       1.0  0.10186999999999999  0.46042  0.13994  1.0000
  C   C25       1.0  0.38366  0.37553  0.43081  1.0000
  C   C26       1.0  0.23216  0.43186  0.22291  1.0000
  C   C27       1.0  0.3015399999999999  0.3635199999999999  0.48094  1.0000
  C   C28       1.0  0.10564  0.12881  0.0714  1.0000
  C   C29       1.0  0.7822999999999999  0.36771  0.06783  1.0000
  C   C30       1.0  0.30796  0.46272  0.08620999999999998  1.0000
  C   C31       1.0  0.22147999999999998  0.35587  0.0194  1.0000
  C   C32       1.0  0.30627  0.3704199999999999  0.06863  1.0000
  C   C33       1.0  0.24577  0.5890399999999998  0.12138  1.0000
  C   C34       1.0  0.36208  0.59983  0.09675  1.0000
  C   C35       1.0  0.32532  0.8818999999999998  0.9373899999999998  1.0000
  C   C36       1.0  0.47247999999999996  0.80572  0.60157  1.0000
  C   C37       1.0  0.63764  0.69431  0.59955  1.0000
  C   C38       1.0  0.6269  0.63094  0.9292499999999999  1.0000
  C   C39       1.0  0.5543  0.7005899999999999  0.90034  1.0000
  C   C40       1.0  0.40061  0.8189799999999998  0.90439  1.0000
  C   C41       1.0  0.47852  0.76762  0.8196  1.0000
  C   C42       1.0  0.63999  0.69339  0.6548599999999999  1.0000
  C   C43       1.0  0.55262  0.74471  0.68338  1.0000
  C   C44       1.0  0.46672  0.7999499999999998  0.65658  1.0000
  C   C45       1.0  0.33724  0.53339  0.86972  1.0000
  C   C46       1.0  0.55591  0.75159  0.57322  1.0000
  C   C47       1.0  0.5587599999999999  0.7074299999999998  0.84537  1.0000
  C   C48       1.0  0.35289  0.5368799999999998  0.8102799999999999  1.0000
  C   C49       1.0  0.46889  0.51119  0.7870399999999999  1.0000
  C   C50       1.0  0.25275  0.5662999999999998  0.77766  1.0000
  C   C51       1.0  0.39686999999999995  0.82162  0.84912  1.0000
  C   C52       1.0  0.11521  0.53322  0.91132  1.0000
  C   C53       1.0  0.38328999999999996  0.54056  0.69951  1.0000
  C   C54       1.0  0.47736  0.75749  0.92968  1.0000
  C   C55       1.0  0.17962  0.4082199999999999  0.87505  1.0000
  C   C56       1.0  0.05754  0.39839  0.89469  1.0000
  C   C57       1.0  0.48379999999999995  0.51284  0.7321  1.0000
  C   C58       1.0  0.39812  0.53958  0.63994  1.0000
  C   C59       1.0  0.11633999999999999  0.62448  0.93081  1.0000
  C   C60       1.0  0.26784  0.56814  0.7229099999999999  1.0000
  C   C61       1.0  0.19845  0.63649  0.98094  1.0000
  C   C62       1.0  0.39435999999999993  0.87119  0.5714  1.0000
  C   C63       1.0  0.7176999999999999  0.63229  0.56783  1.0000
  C   C64       1.0  0.19203  0.5373  0.58622  1.0000
  C   C65       1.0  0.27852  0.64414  0.5194  1.0000
  C   C66       1.0  0.19372999999999999  0.62959  0.56862  1.0000
  C   C67       1.0  0.25423  0.4109599999999999  0.62138  1.0000
  C   C68       1.0  0.13790999999999998  0.40018  0.59675  1.0000
  C   C69       1.0  0.8256399999999999  0.61677  0.06278  1.0000
  C   C70       1.0  0.9729299999999999  0.69323  0.39825  1.0000
  C   C71       1.0  0.13817  0.8050799999999998  0.40049  1.0000
  C   C72       1.0  0.12695  0.8692099999999998  0.07077  1.0000
  C   C73       1.0  0.05483  0.79903  0.09974999999999999  1.0000
  C   C74       1.0  0.90125  0.6798399999999998  0.09575999999999998  1.0000
  C   C75       1.0  0.9785499999999999  0.7318999999999998  0.18048  1.0000
  C   C76       1.0  0.14033  0.8063799999999998  0.34518  1.0000
  C   C77       1.0  0.052849999999999994  0.7549999999999998  0.3166  1.0000
  C   C78       1.0  0.96692  0.6994399999999997  0.34330999999999995  1.0000
  C   C79       1.0  0.8368899999999999  0.96691  0.13028  1.0000
  C   C80       1.0  0.05669  0.74724  0.42671  1.0000
  C   C81       1.0  0.05874  0.7923999999999998  0.15473  1.0000
  C   C82       1.0  0.85264  0.96326  0.1897  1.0000
  C   C83       1.0  0.96883  0.98894  0.21292  1.0000
  C   C84       1.0  0.7524  0.93375  0.22233  1.0000
  C   C85       1.0  0.89711  0.6774799999999997  0.15103  1.0000
  C   C86       1.0  0.6149  0.96683  0.08858999999999999  1.0000
  C   C87       1.0  0.8831099999999997  0.95955  0.30047  1.0000
  C   C88       1.0  0.9782899999999998  0.7414599999999998  0.07047  1.0000
  C   C89       1.0  0.67951  0.09186999999999998  0.12498999999999999  1.0000
  C   C90       1.0  0.55757  0.10156  0.10526  1.0000
  C   C91       1.0  0.98378  0.9872599999999998  0.26787  1.0000
  C   C92       1.0  0.89791  0.96067  0.36005  1.0000
  C   C93       1.0  0.61595  0.87554  0.06913  1.0000
  C   C94       1.0  0.76753  0.9318799999999998  0.27708  1.0000
  C   C95       1.0  0.69829  0.86353  0.01907  1.0000
  C   C96       1.0  0.89498  0.62727  0.42819  1.0000
  C   C97       1.0  0.21769  0.8676  0.43228999999999995  1.0000
  C   C98       1.0  0.69201  0.9627899999999998  0.41392  1.0000
  C   C99       1.0  0.77849  0.8558599999999997  0.48061  1.0000
  C   C100      1.0  0.69354  0.87046  0.43146  1.0000
  C   C101      1.0  0.75432  0.08913  0.37859  1.0000
  C   C102      1.0  0.63823  0.09981999999999998  0.40336  1.0000
  C   C103      1.0  0.67435  0.3832299999999999  0.56278  1.0000
  C   C104      1.0  0.52706  0.30677  0.8982499999999999  1.0000
  C   C105      1.0  0.36182  0.19492  0.9004899999999999  1.0000
  C   C106      1.0  0.37304  0.1308  0.57077  1.0000
  C   C107      1.0  0.44515999999999994  0.20096999999999998  0.59976  1.0000
  C   C108      1.0  0.59875  0.32016  0.59576  1.0000
  C   C109      1.0  0.52145  0.26811  0.68048  1.0000
  C   C110      1.0  0.35966  0.19362  0.84518  1.0000
  C   C111      1.0  0.44713  0.24501  0.8166  1.0000
  C   C112      1.0  0.53307  0.30057  0.8432999999999998  1.0000
  C   C113      1.0  0.6631199999999999  0.03309  0.63027  1.0000
  C   C114      1.0  0.44330999999999987  0.25277  0.9267  1.0000
  C   C115      1.0  0.44125  0.2076  0.65474  1.0000
  C   C116      1.0  0.64736  0.036739999999999995  0.6897  1.0000
  C   C117      1.0  0.53117  0.011069999999999997  0.7129199999999999  1.0000
  C   C118      1.0  0.74758  0.06625  0.72233  1.0000
  C   C119      1.0  0.60288  0.32253  0.65103  1.0000
  C   C120      1.0  0.88509  0.03317999999999999  0.58859  1.0000
  C   C121      1.0  0.61689  0.040449999999999986  0.80048  1.0000
  C   C122      1.0  0.5217  0.25854  0.57048  1.0000
  C   C123      1.0  0.82048  0.90813  0.62499  1.0000
  C   C124      1.0  0.9424299999999998  0.89844  0.60526  1.0000
  C   C125      1.0  0.51623  0.01274  0.7678699999999999  1.0000
  C   C126      1.0  0.6021  0.03933  0.8600499999999999  1.0000
  C   C127      1.0  0.88404  0.12446999999999997  0.56913  1.0000
  C   C128      1.0  0.73246  0.06811999999999999  0.77708  1.0000
  C   C129      1.0  0.80171  0.13647  0.51907  1.0000
  C   C130      1.0  0.60502  0.37274  0.92819  1.0000
  C   C131      1.0  0.2823  0.13241  0.93229  1.0000
  C   C132      1.0  0.8079799999999999  0.03723  0.9139199999999998  1.0000
  C   C133      1.0  0.72149  0.14414  0.9806099999999999  1.0000
  C   C134      1.0  0.8064499999999999  0.12955  0.93146  1.0000
  C   C135      1.0  0.7456699999999999  0.9108699999999997  0.87859  1.0000
  C   C136      1.0  0.8617699999999999  0.90019  0.90336  1.0000
  N   N1        1.0  0.28486  0.5067  0.38584  1.0000
  N   N2        1.0  0.9410699999999999  0.26405  0.23904999999999998  1.0000
  N   N3        1.0  0.48136  0.52397  0.41716  1.0000
  N   N4        1.0  0.027809999999999998  0.22226  0.26397  1.0000
  N   N5        1.0  0.21219999999999997  0.50259  0.11429  1.0000
  N   N6        1.0  0.39968  0.52133  0.07502  1.0000
  N   N7        1.0  0.21511999999999998  0.49331  0.88584  1.0000
  N   N8        1.0  0.5589199999999999  0.73596  0.73905  1.0000
  N   N9        1.0  0.01864  0.47604999999999986  0.91716  1.0000
  N   N10       1.0  0.47218999999999994  0.7777399999999998  0.76397  1.0000
  N   N11       1.0  0.28778  0.49742  0.61429  1.0000
  N   N12       1.0  0.10031999999999999  0.47868  0.57502  1.0000
  N   N13       1.0  0.71483  0.00684  0.11419  1.0000
  N   N14       1.0  0.05927  0.76365  0.26094  1.0000
  N   N15       1.0  0.51852  0.02389  0.08270999999999998  1.0000
  N   N16       1.0  0.97183  0.7221799999999998  0.23611  1.0000
  N   N17       1.0  0.78771  0.00275  0.38571  1.0000
  N   N18       1.0  0.60054  0.021309999999999992  0.42519  1.0000
  N   N19       1.0  0.78517  0.9931699999999998  0.61419  1.0000
  N   N20       1.0  0.4407099999999999  0.23635999999999993  0.76094  1.0000
  N   N21       1.0  0.9814699999999997  0.97612  0.58271  1.0000
  N   N22       1.0  0.5281599999999999  0.27783  0.7361099999999999  1.0000
  N   N23       1.0  0.71229  0.9972599999999998  0.8856999999999999  1.0000
  N   N24       1.0  0.89944  0.9787  0.92519  1.0000
  O   O1        1.0  0.12359  0.09861  0.48163  1.0000
  O   O2        1.0  0.27951  0.0903  0.41785  1.0000
  O   O3        1.0  0.7720399999999998  0.39882  0.4073799999999999  1.0000
  O   O4        1.0  0.9219799999999999  0.39253  0.4732  1.0000
  O   O5        1.0  0.0513  0.09965999999999998  0.029809999999999996  1.0000
  O   O6        1.0  0.21492  0.10779  0.09002  1.0000
  O   O7        1.0  0.8319999999999999  0.39319  0.02448  1.0000
  O   O8        1.0  0.67414  0.39012999999999987  0.08712999999999999  1.0000
  O   O9        1.0  0.37641  0.90138  0.98163  1.0000
  O   O10       1.0  0.22049  0.9097  0.91785  1.0000
  O   O11       1.0  0.72795  0.6011899999999998  0.9073699999999999  1.0000
  O   O12       1.0  0.578  0.60748  0.9732  1.0000
  O   O13       1.0  0.4487  0.90034  0.52981  1.0000
  O   O14       1.0  0.28506999999999993  0.8922099999999997  0.59003  1.0000
  O   O15       1.0  0.66798  0.60682  0.52448  1.0000
  O   O16       1.0  0.82586  0.6098699999999998  0.58713  1.0000
  O   O17       1.0  0.8765899999999999  0.59743  0.0185  1.0000
  O   O18       1.0  0.72067  0.5886199999999999  0.08221  1.0000
  O   O19       1.0  0.2271  0.90058  0.09268  1.0000
  O   O20       1.0  0.07803  0.89146  0.02662  1.0000
  O   O21       1.0  0.9499499999999994  0.59768  0.46939999999999993  1.0000
  O   O22       1.0  0.7854  0.6060499999999998  0.4098  1.0000
  O   O23       1.0  0.16806  0.89167  0.47593  1.0000
  O   O24       1.0  0.32486  0.8919599999999998  0.4128  1.0000
  O   O25       1.0  0.6234  0.40257  0.5185  1.0000
  O   O26       1.0  0.7793199999999999  0.41138  0.58222  1.0000
  O   O27       1.0  0.27289  0.09942999999999998  0.59269  1.0000
  O   O28       1.0  0.42196  0.10854  0.52662  1.0000
  O   O29       1.0  0.5500499999999999  0.4023199999999999  0.9694  1.0000
  O   O30       1.0  0.71459  0.3939499999999999  0.9098  1.0000
  O   O31       1.0  0.33194  0.10833999999999999  0.97593  1.0000
  O   O32       1.0  0.17514  0.10806  0.91279  1.0000
