data_image0
_chemical_formula_structural       Zn6H132C144N24O24
_chemical_formula_sum              "Zn6 H132 C144 N24 O24"
_cell_length_a       12.02127
_cell_length_b       21.62525
_cell_length_c       21.61986
_cell_angle_alpha    116.68813
_cell_angle_beta     100.71061
_cell_angle_gamma    100.69559

_symmetry_space_group_name_H-M    'P 1'
_symmetry_Int_Tables_number       1

loop_
  _symmetry_equiv_pos_as_xyz
  'x,y,z'

loop_
  _atom_site_type_symbol
  _atom_site_label
  _atom_site_symmetry_multiplicity
  _atom_site_fract_x
  _atom_site_fract_y
  _atom_site_fract_z
  _atom_site_occupancy
  Zn  Zn1       1.0  0.5808899999999999  0.62198  0.78365  1.0000
  Zn  Zn2       1.0  0.7974700000000001  0.2162999999999999  0.83825  1.0000
  Zn  Zn3       1.0  0.9591700000000004  0.16188  0.3781  1.0000
  Zn  Zn4       1.0  0.41911  0.37802  0.21635  1.0000
  Zn  Zn5       1.0  0.20253999999999994  0.7836999999999998  0.16175  1.0000
  Zn  Zn6       1.0  0.040839999999999974  0.8381199999999999  0.6219  1.0000
  H   H1        1.0  0.33698999999999996  0.63006  0.741  1.0000
  H   H2        1.0  0.7593000000000001  0.6095399999999997  0.8879999999999999  1.0000
  H   H3        1.0  0.9880800000000001  0.38795  0.84075  1.0000
  H   H4        1.0  0.10830999999999999  0.49075  0.83358  1.0000
  H   H5        1.0  0.22994  0.33955  0.67098  1.0000
  H   H6        1.0  0.10370000000000001  0.23727  0.67565  1.0000
  H   H7        1.0  0.41473  0.43036  0.80421  1.0000
  H   H8        1.0  0.4883400000000001  0.4334899999999999  0.74139  1.0000
  H   H9        1.0  0.53979  0.50649  0.83241  1.0000
  H   H10       1.0  0.02848000000000002  0.49527  0.70227  1.0000
  H   H11       1.0  0.08705000000000003  0.59074  0.76303  1.0000
  H   H12       1.0  0.08567999999999996  0.5544999999999999  0.67131  1.0000
  H   H13       1.0  0.9579400000000001  0.95925  0.23165999999999998  1.0000
  H   H14       1.0  0.93005  0.84682  0.11642  1.0000
  H   H15       1.0  0.54969  0.8055199999999998  0.06549  1.0000
  H   H16       1.0  0.58074  0.91872  0.18175  1.0000
  H   H17       1.0  0.84773  0.7159699999999999  0.10174  1.0000
  H   H18       1.0  0.8183  0.62575  0.02994  1.0000
  H   H19       1.0  0.94315  0.6960099999999998  0.04692  1.0000
  H   H20       1.0  0.63703  0.8128399999999999  0.8977099999999999  1.0000
  H   H21       1.0  0.5792300000000001  0.8295599999999999  0.97173  1.0000
  H   H22       1.0  0.5017700000000002  0.7525700000000001  0.8840100000000001  1.0000
  H   H23       1.0  0.59653  0.2589999999999999  0.88914  1.0000
  H   H24       1.0  0.87026  0.11211000000000002  0.72135  1.0000
  H   H25       1.0  0.14784  0.15907000000000002  0.5471  1.0000
  H   H26       1.0  0.27502  0.16714  0.65777  1.0000
  H   H27       1.0  0.55956  0.33003  0.66949  1.0000
  H   H28       1.0  0.4287100000000001  0.32429  0.56159  1.0000
  H   H29       1.0  0.6112800000000003  0.19578  0.62608  1.0000
  H   H30       1.0  0.7477  0.25835  0.69252  1.0000
  H   H31       1.0  0.7072200000000001  0.16738  0.67415  1.0000
  H   H32       1.0  0.32669  0.29795  0.79314  1.0000
  H   H33       1.0  0.32394  0.23706999999999995  0.82756  1.0000
  H   H34       1.0  0.41475  0.32876999999999995  0.8834  1.0000
  H   H35       1.0  0.72582  0.7683699999999999  0.72772  1.0000
  H   H36       1.0  0.81397  0.8834099999999998  0.73074  1.0000
  H   H37       1.0  0.48512  0.93472  0.74012  1.0000
  H   H38       1.0  0.39873000000000003  0.8185099999999997  0.73668  1.0000
  H   H39       1.0  0.74689  0.89839  0.61421  1.0000
  H   H40       1.0  0.78912  0.97026  0.596  1.0000
  H   H41       1.0  0.89702  0.9536099999999997  0.64953  1.0000
  H   H42       1.0  0.7392400000000001  0.10236000000000005  0.9155500000000001  1.0000
  H   H43       1.0  0.60735  0.028380000000000002  0.85778  1.0000
  H   H44       1.0  0.61808  0.11605999999999994  0.8686499999999999  1.0000
  H   H45       1.0  0.70755  0.11109  0.37014  1.0000
  H   H46       1.0  0.15007  0.27872999999999987  0.39121  1.0000
  H   H47       1.0  0.60141  0.45342  0.61218  1.0000
  H   H48       1.0  0.61784  0.34273999999999993  0.50951  1.0000
  H   H49       1.0  0.88957  0.33089  0.66087  1.0000
  H   H50       1.0  0.8671600000000002  0.43893  0.76316  1.0000
  H   H51       1.0  0.98548  0.37456999999999996  0.5703  1.0000
  H   H52       1.0  0.05594  0.30846999999999997  0.56644  1.0000
  H   H53       1.0  0.0333  0.32662  0.49373999999999996  1.0000
  H   H54       1.0  0.53392  0.2072  0.50499  1.0000
  H   H55       1.0  0.49647  0.17249  0.40952  1.0000
  H   H56       1.0  0.5318099999999999  0.11694999999999998  0.44559000000000004  1.0000
  H   H57       1.0  0.0012800000000000047  0.27236  0.04162  1.0000
  H   H58       1.0  0.08471999999999999  0.2694599999999999  0.15404  1.0000
  H   H59       1.0  0.7451100000000002  0.25972  0.19405  1.0000
  H   H60       1.0  0.66378  0.26297999999999994  0.08101  1.0000
  H   H61       1.0  0.13272000000000003  0.38577999999999996  0.28465  1.0000
  H   H62       1.0  0.19384999999999994  0.40423999999999993  0.37481  1.0000
  H   H63       1.0  0.24788  0.35078  0.30442  1.0000
  H   H64       1.0  0.82398  0.08472999999999996  0.18747999999999998  1.0000
  H   H65       1.0  0.7500700000000002  0.14228  0.17081  1.0000
  H   H66       1.0  0.7495599999999999  0.13178999999999996  0.24782  1.0000
  H   H67       1.0  0.66301  0.3699399999999998  0.259  1.0000
  H   H68       1.0  0.2407  0.39045  0.11200000000000002  1.0000
  H   H69       1.0  0.011919999999999967  0.6120499999999999  0.15925  1.0000
  H   H70       1.0  0.8917  0.5092499999999999  0.16642  1.0000
  H   H71       1.0  0.77006  0.66045  0.32902  1.0000
  H   H72       1.0  0.8962999999999999  0.7627299999999999  0.32435  1.0000
  H   H73       1.0  0.58527  0.56964  0.19579  1.0000
  H   H74       1.0  0.51167  0.5665099999999998  0.25861  1.0000
  H   H75       1.0  0.46020999999999995  0.49349999999999994  0.16759  1.0000
  H   H76       1.0  0.9715200000000002  0.50472  0.29773  1.0000
  H   H77       1.0  0.9129500000000002  0.40926  0.23697  1.0000
  H   H78       1.0  0.91433  0.4455  0.32869  1.0000
  H   H79       1.0  0.04206000000000001  0.04074999999999999  0.76834  1.0000
  H   H80       1.0  0.06994999999999997  0.15316999999999995  0.88358  1.0000
  H   H81       1.0  0.45031000000000004  0.19448  0.9345100000000001  1.0000
  H   H82       1.0  0.4192600000000001  0.08127999999999999  0.81825  1.0000
  H   H83       1.0  0.15227  0.2840299999999999  0.8982599999999998  1.0000
  H   H84       1.0  0.1817  0.37425  0.97006  1.0000
  H   H85       1.0  0.056850000000000005  0.30399  0.95308  1.0000
  H   H86       1.0  0.3629800000000001  0.18715999999999997  0.10228999999999999  1.0000
  H   H87       1.0  0.42077  0.17044  0.02827  1.0000
  H   H88       1.0  0.4982299999999999  0.24742999999999996  0.11599  1.0000
  H   H89       1.0  0.40346999999999994  0.7409999999999999  0.11085999999999999  1.0000
  H   H90       1.0  0.12973999999999997  0.8878899999999997  0.27865  1.0000
  H   H91       1.0  0.85216  0.84093  0.4529  1.0000
  H   H92       1.0  0.72498  0.8328599999999998  0.34223  1.0000
  H   H93       1.0  0.44044  0.6699699999999996  0.33051  1.0000
  H   H94       1.0  0.5713000000000001  0.6757099999999999  0.4384100000000001  1.0000
  H   H95       1.0  0.38872  0.8042199999999999  0.37392  1.0000
  H   H96       1.0  0.25231000000000003  0.7416500000000001  0.30748  1.0000
  H   H97       1.0  0.29278  0.83262  0.32585  1.0000
  H   H98       1.0  0.67331  0.70205  0.20686  1.0000
  H   H99       1.0  0.67606  0.76293  0.17244  1.0000
  H   H100      1.0  0.58525  0.67123  0.1166  1.0000
  H   H101      1.0  0.27418  0.23162  0.27228  1.0000
  H   H102      1.0  0.18603  0.11658999999999999  0.26926  1.0000
  H   H103      1.0  0.51488  0.06526999999999998  0.25988  1.0000
  H   H104      1.0  0.60127  0.18148  0.26332  1.0000
  H   H105      1.0  0.25311  0.10161  0.38579  1.0000
  H   H106      1.0  0.21087999999999998  0.02973999999999997  0.40399999999999997  1.0000
  H   H107      1.0  0.10299  0.046389999999999994  0.35047  1.0000
  H   H108      1.0  0.26076  0.89763  0.08445  1.0000
  H   H109      1.0  0.39265  0.9716199999999999  0.14222  1.0000
  H   H110      1.0  0.3819199999999999  0.8839399999999998  0.13135  1.0000
  H   H111      1.0  0.2924500000000001  0.88891  0.62986  1.0000
  H   H112      1.0  0.8499299999999999  0.7212599999999999  0.60879  1.0000
  H   H113      1.0  0.39859000000000006  0.54657  0.38782  1.0000
  H   H114      1.0  0.38216  0.6572599999999998  0.49049000000000004  1.0000
  H   H115      1.0  0.11043000000000004  0.66911  0.33913  1.0000
  H   H116      1.0  0.13284000000000007  0.56107  0.23684  1.0000
  H   H117      1.0  0.014520000000000035  0.62543  0.4297  1.0000
  H   H118      1.0  0.94406  0.69153  0.43356  1.0000
  H   H119      1.0  0.9666999999999999  0.6733799999999999  0.50626  1.0000
  H   H120      1.0  0.46608  0.7927999999999998  0.49501000000000006  1.0000
  H   H121      1.0  0.50353  0.82751  0.59048  1.0000
  H   H122      1.0  0.46819  0.8830399999999998  0.55441  1.0000
  H   H123      1.0  0.9987199999999999  0.72764  0.95838  1.0000
  H   H124      1.0  0.9152799999999999  0.73054  0.84596  1.0000
  H   H125      1.0  0.25489  0.7402799999999998  0.80595  1.0000
  H   H126      1.0  0.33621999999999996  0.7370199999999999  0.91899  1.0000
  H   H127      1.0  0.8672800000000002  0.61422  0.71535  1.0000
  H   H128      1.0  0.80615  0.59576  0.62519  1.0000
  H   H129      1.0  0.75212  0.64922  0.69558  1.0000
  H   H130      1.0  0.17601999999999998  0.9152699999999999  0.81252  1.0000
  H   H131      1.0  0.24992999999999999  0.85772  0.8291899999999999  1.0000
  H   H132      1.0  0.25044  0.86821  0.75218  1.0000
  C   C1        1.0  0.1763  0.42217  0.75124  1.0000
  C   C2        1.0  0.9653200000000003  0.24635000000000007  0.76435  1.0000
  C   C3        1.0  0.03854000000000001  0.30666000000000004  0.75875  1.0000
  C   C4        1.0  0.04015999999999997  0.37834999999999996  0.80315  1.0000
  C   C5        1.0  0.10699000000000002  0.43525  0.7988  1.0000
  C   C6        1.0  0.17571  0.3503  0.70751  1.0000
  C   C7        1.0  0.10604999999999995  0.29297  0.71041  1.0000
  C   C8        1.0  0.25192  0.48333999999999994  0.75043  1.0000
  C   C9        1.0  0.37706  0.50283  0.7673  1.0000
  C   C10       1.0  0.21810000000000004  0.53618  0.7372  1.0000
  C   C11       1.0  0.45961  0.46664  0.7876  1.0000
  C   C12       1.0  0.09846999999999993  0.5445099999999998  0.7172699999999999  1.0000
  C   C13       1.0  0.78912  0.01770999999999998  0.27935999999999994  1.0000
  C   C14       1.0  0.7709700000000003  0.94628  0.21348  1.0000
  C   C15       1.0  0.86908  0.92478  0.19541  1.0000
  C   C16       1.0  0.85302  0.86182  0.1307  1.0000
  C   C17       1.0  0.7381500000000001  0.81899  0.08191  1.0000
  C   C18       1.0  0.63948  0.83933  0.10143  1.0000
  C   C19       1.0  0.65608  0.9021199999999999  0.16656  1.0000
  C   C20       1.0  0.72277  0.75641  0.010809999999999998  1.0000
  C   C21       1.0  0.7739699999999999  0.6997299999999997  0.9961299999999998  1.0000
  C   C22       1.0  0.65787  0.74318  0.94206  1.0000
  C   C23       1.0  0.8497199999999999  0.6834299999999999  0.04609  1.0000
  C   C24       1.0  0.59023  0.78687  0.92315  1.0000
  C   C25       1.0  0.42554000000000003  0.24931000000000003  0.67125  1.0000
  C   C26       1.0  0.2018  0.23587999999999998  0.4820499999999999  1.0000
  C   C27       1.0  0.28046  0.24122999999999997  0.54791  1.0000
  C   C28       1.0  0.23744000000000007  0.19693  0.57523  1.0000
  C   C29       1.0  0.30858  0.20161999999999994  0.63677  1.0000
  C   C30       1.0  0.46888000000000013  0.29312  0.64326  1.0000
  C   C31       1.0  0.39626999999999996  0.28977  0.58274  1.0000
  C   C32       1.0  0.50191  0.24991  0.73312  1.0000
  C   C33       1.0  0.60981  0.23263  0.73553  1.0000
  C   C34       1.0  0.48117  0.26288  0.7991  1.0000
  C   C35       1.0  0.6722499999999997  0.21225999999999995  0.67913  1.0000
  C   C36       1.0  0.38148999999999994  0.28285999999999983  0.8273499999999999  1.0000
  C   C37       1.0  0.50923  0.72085  0.73856  1.0000
  C   C38       1.0  0.55722  0.78669  0.73305  1.0000
  C   C39       1.0  0.67348  0.8047199999999998  0.72972  1.0000
  C   C40       1.0  0.7226700000000001  0.86934  0.73154  1.0000
  C   C41       1.0  0.65704  0.9182499999999999  0.73755  1.0000
  C   C42       1.0  0.53871  0.89877  0.73819  1.0000
  C   C43       1.0  0.4895500000000001  0.83367  0.73568  1.0000
  C   C44       1.0  0.71279  0.98927  0.74595  1.0000
  C   C45       1.0  0.7782400000000002  0.003989999999999988  0.70379  1.0000
  C   C46       1.0  0.7163000000000002  0.05800999999999992  0.80141  1.0000
  C   C47       1.0  0.80428  0.95415  0.63754  1.0000
  C   C48       1.0  0.66729  0.0769500000000001  0.86393  1.0000
  C   C49       1.0  0.7543900000000002  0.32921999999999996  0.57827  1.0000
  C   C50       1.0  0.7205400000000001  0.5183899999999998  0.7543399999999999  1.0000
  C   C51       1.0  0.73306  0.45262  0.6937  1.0000
  C   C52       1.0  0.6626900000000001  0.4253  0.62199  1.0000
  C   C53       1.0  0.6721499999999999  0.3637599999999999  0.56509  1.0000
  C   C54       1.0  0.82543  0.35715999999999987  0.6501599999999998  1.0000
  C   C55       1.0  0.8136700000000002  0.41769999999999996  0.70741  1.0000
  C   C56       1.0  0.76906  0.26732  0.51708  1.0000
  C   C57       1.0  0.8746900000000002  0.2649399999999999  0.4975399999999999  1.0000
  C   C58       1.0  0.68234  0.20125999999999997  0.46401  1.0000
  C   C59       1.0  0.9934900000000001  0.32156999999999997  0.53367  1.0000
  C   C60       1.0  0.55439  0.17293  0.45565000000000005  1.0000
  C   C61       1.0  0.7733300000000002  0.2617699999999999  0.98256  1.0000
  C   C62       1.0  0.82669  0.26712  0.05389  1.0000
  C   C63       1.0  0.94623  0.27041  0.07566  1.0000
  C   C64       1.0  0.9927400000000002  0.26869  0.13868  1.0000
  C   C65       1.0  0.92037  0.26267999999999997  0.18123  1.0000
  C   C66       1.0  0.8014700000000001  0.26184  0.16052  1.0000
  C   C67       1.0  0.75562  0.26424  0.09777  1.0000
  C   C68       1.0  0.9672  0.25428999999999996  0.24391999999999997  1.0000
  C   C69       1.0  0.07506000000000002  0.29635  0.30074  1.0000
  C   C70       1.0  0.9152700000000001  0.19884999999999997  0.2571  1.0000
  C   C71       1.0  0.16718000000000002  0.36261  0.3171  1.0000
  C   C72       1.0  0.80366  0.13632999999999998  0.21346  1.0000
  C   C73       1.0  0.8237000000000002  0.57783  0.24876  1.0000
  C   C74       1.0  0.03467999999999993  0.7536399999999998  0.23565  1.0000
  C   C75       1.0  0.96146  0.6933399999999998  0.24124999999999996  1.0000
  C   C76       1.0  0.95984  0.6216499999999999  0.19685  1.0000
  C   C77       1.0  0.8930099999999999  0.5647499999999999  0.2012  1.0000
  C   C78       1.0  0.82429  0.6497  0.29249  1.0000
  C   C79       1.0  0.8939600000000001  0.7070199999999998  0.28959  1.0000
  C   C80       1.0  0.74808  0.51666  0.24957  1.0000
  C   C81       1.0  0.6229400000000002  0.49716999999999995  0.2327  1.0000
  C   C82       1.0  0.7819100000000002  0.46382  0.2628  1.0000
  C   C83       1.0  0.54039  0.5333599999999998  0.2124  1.0000
  C   C84       1.0  0.90153  0.45547999999999994  0.28273  1.0000
  C   C85       1.0  0.21087999999999998  0.98229  0.72064  1.0000
  C   C86       1.0  0.22903000000000004  0.05370999999999991  0.78652  1.0000
  C   C87       1.0  0.13092  0.07521999999999991  0.80459  1.0000
  C   C88       1.0  0.14697999999999994  0.13817999999999997  0.8693  1.0000
  C   C89       1.0  0.2618500000000001  0.18101000000000006  0.9180900000000001  1.0000
  C   C90       1.0  0.36052  0.16067000000000006  0.8985800000000002  1.0000
  C   C91       1.0  0.34392  0.09787000000000003  0.83344  1.0000
  C   C92       1.0  0.27723  0.24359  0.9891899999999999  1.0000
  C   C93       1.0  0.22603000000000004  0.30027  0.00387  1.0000
  C   C94       1.0  0.34213  0.25681999999999994  0.05793999999999999  1.0000
  C   C95       1.0  0.15028  0.31656999999999996  0.95391  1.0000
  C   C96       1.0  0.40976999999999997  0.21311999999999998  0.07685  1.0000
  C   C97       1.0  0.5744600000000001  0.7506799999999999  0.32875  1.0000
  C   C98       1.0  0.7982  0.7641199999999998  0.51795  1.0000
  C   C99       1.0  0.7195400000000001  0.75877  0.45209  1.0000
  C   C100      1.0  0.76257  0.8030699999999998  0.42477  1.0000
  C   C101      1.0  0.69142  0.7983799999999999  0.36323  1.0000
  C   C102      1.0  0.53113  0.7068799999999998  0.35674  1.0000
  C   C103      1.0  0.60373  0.71023  0.41726  1.0000
  C   C104      1.0  0.49809  0.7500899999999998  0.26688  1.0000
  C   C105      1.0  0.39018999999999987  0.7673699999999998  0.26447  1.0000
  C   C106      1.0  0.51883  0.73712  0.2009  1.0000
  C   C107      1.0  0.32776  0.7877399999999999  0.32087  1.0000
  C   C108      1.0  0.61851  0.7171399999999999  0.17265  1.0000
  C   C109      1.0  0.49077000000000004  0.27915  0.26144  1.0000
  C   C110      1.0  0.4427800000000001  0.21330999999999997  0.26695  1.0000
  C   C111      1.0  0.32652  0.19528  0.27028  1.0000
  C   C112      1.0  0.27733  0.13066  0.26846  1.0000
  C   C113      1.0  0.34297  0.08174000000000001  0.26245  1.0000
  C   C114      1.0  0.46129  0.10123  0.26181  1.0000
  C   C115      1.0  0.5104500000000002  0.16633  0.26432  1.0000
  C   C116      1.0  0.28721  0.010720000000000006  0.25405  1.0000
  C   C117      1.0  0.22175999999999993  0.9960099999999997  0.29621  1.0000
  C   C118      1.0  0.28369999999999995  0.9419899999999999  0.19859  1.0000
  C   C119      1.0  0.19572  0.045849999999999995  0.36246  1.0000
  C   C120      1.0  0.33271000000000006  0.9230399999999999  0.13607  1.0000
  C   C121      1.0  0.24560999999999997  0.6707699999999999  0.42173  1.0000
  C   C122      1.0  0.27946  0.4816  0.24566  1.0000
  C   C123      1.0  0.2669399999999999  0.5473799999999999  0.3063  1.0000
  C   C124      1.0  0.33731  0.5746999999999999  0.37801  1.0000
  C   C125      1.0  0.3278500000000001  0.63624  0.43491  1.0000
  C   C126      1.0  0.17457000000000006  0.64284  0.34984  1.0000
  C   C127      1.0  0.18632999999999997  0.5822999999999999  0.29259  1.0000
  C   C128      1.0  0.23094  0.73268  0.48292  1.0000
  C   C129      1.0  0.12530999999999992  0.7350599999999998  0.50246  1.0000
  C   C130      1.0  0.31766999999999995  0.7987399999999999  0.53599  1.0000
  C   C131      1.0  0.006509999999999964  0.67843  0.46633  1.0000
  C   C132      1.0  0.44560999999999995  0.8270699999999997  0.54435  1.0000
  C   C133      1.0  0.22666999999999998  0.7382299999999999  0.01744  1.0000
  C   C134      1.0  0.17331000000000005  0.73288  0.94611  1.0000
  C   C135      1.0  0.053769999999999915  0.7295899999999997  0.92434  1.0000
  C   C136      1.0  0.007269999999999977  0.7312999999999998  0.86132  1.0000
  C   C137      1.0  0.07962999999999995  0.73732  0.81877  1.0000
  C   C138      1.0  0.19853  0.73816  0.83948  1.0000
  C   C139      1.0  0.24438000000000007  0.7357599999999997  0.9022300000000001  1.0000
  C   C140      1.0  0.03279999999999997  0.7457099999999999  0.75608  1.0000
  C   C141      1.0  0.9249500000000003  0.7036399999999999  0.69926  1.0000
  C   C142      1.0  0.08473999999999991  0.8011499999999998  0.7429  1.0000
  C   C143      1.0  0.8328200000000002  0.63739  0.6829  1.0000
  C   C144      1.0  0.1963399999999999  0.8636699999999998  0.78654  1.0000
  N   N1        1.0  0.41631  0.56378  0.76446  1.0000
  N   N2        1.0  0.31938  0.58298  0.74577  1.0000
  N   N3        1.0  0.7395699999999998  0.6567499999999998  0.9229399999999999  1.0000
  N   N4        1.0  0.66983  0.68268  0.88949  1.0000
  N   N5        1.0  0.6514500000000001  0.23492999999999992  0.79912  1.0000
  N   N6        1.0  0.57341  0.25374999999999986  0.8371  1.0000
  N   N7        1.0  0.81632  0.07713000000000002  0.73381  1.0000
  N   N8        1.0  0.78019  0.11055  0.79325  1.0000
  N   N9        1.0  0.8528400000000002  0.20120999999999994  0.4363099999999999  1.0000
  N   N10       1.0  0.7366900000000001  0.16318  0.417  1.0000
  N   N11       1.0  0.08341  0.26632  0.34378  1.0000
  N   N12       1.0  0.9875800000000001  0.20696  0.31774  1.0000
  N   N13       1.0  0.58369  0.43621  0.23553999999999997  1.0000
  N   N14       1.0  0.6806200000000001  0.4170199999999999  0.25423  1.0000
  N   N15       1.0  0.2604300000000001  0.34324  0.07706  1.0000
  N   N16       1.0  0.33017  0.31731999999999994  0.11050999999999998  1.0000
  N   N17       1.0  0.34856  0.76506  0.20088  1.0000
  N   N18       1.0  0.42659000000000014  0.7462499999999999  0.1629  1.0000
  N   N19       1.0  0.18368  0.92287  0.26619  1.0000
  N   N20       1.0  0.21981000000000003  0.88945  0.20675  1.0000
  N   N21       1.0  0.14717  0.79878  0.56369  1.0000
  N   N22       1.0  0.26331  0.83682  0.583  1.0000
  N   N23       1.0  0.9165899999999998  0.7336799999999998  0.65622  1.0000
  N   N24       1.0  0.012420000000000002  0.79304  0.68227  1.0000
  O   O1        1.0  0.9222700000000001  0.26879000000000003  0.81835  1.0000
  O   O2        1.0  0.95032  0.18107000000000004  0.71869  1.0000
  O   O3        1.0  0.8995099999999999  0.05595  0.31569  1.0000
  O   O4        1.0  0.7000700000000002  0.03717999999999996  0.29395  1.0000
  O   O5        1.0  0.10485000000000003  0.18174000000000004  0.45009  1.0000
  O   O6        1.0  0.23266000000000003  0.2818899999999999  0.46286999999999995  1.0000
  O   O7        1.0  0.58292  0.6842499999999999  0.74007  1.0000
  O   O8        1.0  0.40583  0.7065699999999999  0.74382  1.0000
  O   O9        1.0  0.65517  0.55015  0.73214  1.0000
  O   O10       1.0  0.77107  0.5377099999999999  0.81955  1.0000
  O   O11       1.0  0.84511  0.2597699999999999  0.9442  1.0000
  O   O12       1.0  0.6648299999999999  0.2569199999999998  0.9631399999999999  1.0000
  O   O13       1.0  0.07774000000000005  0.7312099999999999  0.18165  1.0000
  O   O14       1.0  0.04968000000000001  0.81893  0.28131  1.0000
  O   O15       1.0  0.10049  0.94405  0.68431  1.0000
  O   O16       1.0  0.29993  0.96282  0.70605  1.0000
  O   O17       1.0  0.89515  0.81826  0.54991  1.0000
  O   O18       1.0  0.7673399999999999  0.7180999999999998  0.53713  1.0000
  O   O19       1.0  0.41708  0.31574999999999986  0.25993  1.0000
  O   O20       1.0  0.5941700000000002  0.29342  0.25618  1.0000
  O   O21       1.0  0.3448300000000001  0.44985  0.26786  1.0000
  O   O22       1.0  0.22893  0.46229  0.18045  1.0000
  O   O23       1.0  0.15489  0.74023  0.0558  1.0000
  O   O24       1.0  0.33516999999999986  0.7430699999999998  0.03686  1.0000
