data_image0
_chemical_formula_structural       Cu8H72C112N8O32
_chemical_formula_sum              "Cu8 H72 C112 N8 O32"
_cell_length_a       16.60401
_cell_length_b       17.86476
_cell_length_c       18.78863
_cell_angle_alpha    78.092
_cell_angle_beta     63.74916999999999
_cell_angle_gamma    62.22739000000001

_space_group_name_H-M_alt    "P 1"
_space_group_IT_number       1

loop_
  _space_group_symop_operation_xyz
  'x, y, z'

loop_
  _atom_site_type_symbol
  _atom_site_label
  _atom_site_symmetry_multiplicity
  _atom_site_fract_x
  _atom_site_fract_y
  _atom_site_fract_z
  _atom_site_occupancy
  Cu  Cu1       1.0  0.9509799999999999  0.057259999999999985  0.048219999999999985  1.0000
  Cu  Cu2       1.0  0.00047000000000002254  0.44291999999999987  0.04874  1.0000
  Cu  Cu3       1.0  0.9923999999999998  0.057029999999999983  0.45116  1.0000
  Cu  Cu4       1.0  0.5566199999999999  0.4430199999999999  0.45103  1.0000
  Cu  Cu5       1.0  0.04902000000000005  0.9427399999999999  0.95178  1.0000
  Cu  Cu6       1.0  0.9995300000000004  0.5570699999999997  0.9512599999999999  1.0000
  Cu  Cu7       1.0  0.007590000000000202  0.9429699999999998  0.5488399999999998  1.0000
  Cu  Cu8       1.0  0.4433800000000002  0.5569799999999998  0.54898  1.0000
  H   H1        1.0  0.7057299999999999  0.9993399999999999  0.20399  1.0000
  H   H2        1.0  0.58352  0.9386799999999997  0.27879  1.0000
  H   H3        1.0  0.7752599999999998  0.71925  0.12669999999999995  1.0000
  H   H4        1.0  0.8952699999999997  0.7804299999999997  0.05217  1.0000
  H   H5        1.0  0.9035800000000003  0.03991999999999998  0.7816899999999998  1.0000
  H   H6        1.0  0.7823899999999996  0.11545999999999997  0.72037  1.0000
  H   H7        1.0  0.5885799999999998  0.2861299999999999  0.91992  1.0000
  H   H8        1.0  0.71214  0.21087999999999996  0.98017  1.0000
  H   H9        1.0  0.09178000000000001  0.49954  0.20307  1.0000
  H   H10       1.0  0.13967000000000004  0.5595499999999998  0.27787  1.0000
  H   H11       1.0  0.09971000000000008  0.7796399999999998  0.12659999999999993  1.0000
  H   H12       1.0  0.05356000000000002  0.71921  0.051959999999999985  1.0000
  H   H13       1.0  0.3136099999999999  0.46042  0.7829999999999998  1.0000
  H   H14       1.0  0.49624000000000035  0.38518999999999987  0.7208299999999997  1.0000
  H   H15       1.0  0.4919700000000002  0.21322999999999995  0.9194799999999997  1.0000
  H   H16       1.0  0.3079799999999999  0.2884799999999999  0.9807199999999999  1.0000
  H   H17       1.0  0.29378  0.9985499999999999  0.29661  1.0000
  H   H18       1.0  0.4769500000000002  0.9384499999999998  0.22197  1.0000
  H   H19       1.0  0.5059199999999999  0.71904  0.37406  1.0000
  H   H20       1.0  0.32441  0.77951  0.44834  1.0000
  H   H21       1.0  0.058910000000000025  0.03966999999999998  0.71603  1.0000
  H   H22       1.0  0.10357000000000009  0.11543999999999999  0.7780399999999998  1.0000
  H   H23       1.0  0.12696000000000005  0.2862299999999999  0.57854  1.0000
  H   H24       1.0  0.07989000000000006  0.21073999999999996  0.51752  1.0000
  H   H25       1.0  0.40912999999999994  0.50009  0.29734  1.0000
  H   H26       1.0  0.3009300000000002  0.5601399999999997  0.22245999999999994  1.0000
  H   H27       1.0  0.11981000000000011  0.7798799999999998  0.3739199999999999  1.0000
  H   H28       1.0  0.22676000000000004  0.7194699999999998  0.4485899999999999  1.0000
  H   H29       1.0  0.2248800000000001  0.4606699999999999  0.7162299999999998  1.0000
  H   H30       1.0  0.11797000000000005  0.38492  0.77807  1.0000
  H   H31       1.0  0.29487  0.21389  0.57878  1.0000
  H   H32       1.0  0.4029700000000001  0.28964999999999996  0.51785  1.0000
  H   H33       1.0  0.29427  0.0006599999999999998  0.79601  1.0000
  H   H34       1.0  0.41647999999999996  0.061319999999999986  0.72122  1.0000
  H   H35       1.0  0.22474  0.2807499999999999  0.87331  1.0000
  H   H36       1.0  0.10472999999999999  0.21956999999999993  0.94783  1.0000
  H   H37       1.0  0.09642000000000002  0.9600799999999999  0.21830999999999998  1.0000
  H   H38       1.0  0.21760000000000013  0.8845399999999998  0.27964  1.0000
  H   H39       1.0  0.41142000000000006  0.7138699999999998  0.08008  1.0000
  H   H40       1.0  0.28786000000000017  0.7891099999999998  0.01983  1.0000
  H   H41       1.0  0.9082200000000001  0.5004599999999998  0.79694  1.0000
  H   H42       1.0  0.8603300000000003  0.4404399999999999  0.72214  1.0000
  H   H43       1.0  0.90029  0.22034999999999993  0.8733999999999997  1.0000
  H   H44       1.0  0.9464399999999998  0.28079  0.94804  1.0000
  H   H45       1.0  0.6863900000000001  0.53958  0.217  1.0000
  H   H46       1.0  0.5037600000000001  0.6148099999999997  0.27917  1.0000
  H   H47       1.0  0.5080300000000001  0.7867699999999997  0.08052  1.0000
  H   H48       1.0  0.6920199999999996  0.71151  0.01928  1.0000
  H   H49       1.0  0.70622  0.00145  0.70339  1.0000
  H   H50       1.0  0.5230499999999998  0.06154999999999999  0.7780399999999998  1.0000
  H   H51       1.0  0.49408000000000013  0.2809599999999999  0.62594  1.0000
  H   H52       1.0  0.6755899999999999  0.22048999999999994  0.55166  1.0000
  H   H53       1.0  0.94108  0.96033  0.2839799999999999  1.0000
  H   H54       1.0  0.89644  0.88456  0.22196  1.0000
  H   H55       1.0  0.87304  0.7137699999999998  0.42146  1.0000
  H   H56       1.0  0.92011  0.7892499999999998  0.48249  1.0000
  H   H57       1.0  0.5908700000000001  0.4998999999999999  0.70266  1.0000
  H   H58       1.0  0.6990699999999999  0.43986  0.77755  1.0000
  H   H59       1.0  0.88019  0.22010999999999994  0.62609  1.0000
  H   H60       1.0  0.7732399999999998  0.28053  0.5514199999999998  1.0000
  H   H61       1.0  0.77512  0.53933  0.28377  1.0000
  H   H62       1.0  0.8820299999999999  0.6150799999999997  0.22192999999999993  1.0000
  H   H63       1.0  0.70513  0.7861099999999998  0.4212199999999999  1.0000
  H   H64       1.0  0.5970299999999998  0.7103399999999997  0.48215  1.0000
  H   H65       1.0  0.6390299999999999  0.72172  0.24923999999999996  1.0000
  H   H66       1.0  0.11212000000000004  0.7771199999999998  0.24934  1.0000
  H   H67       1.0  0.36097000000000007  0.27827  0.75076  1.0000
  H   H68       1.0  0.88788  0.22286999999999996  0.75067  1.0000
  H   H69       1.0  0.6403699999999997  0.24968999999999994  0.71873  1.0000
  H   H70       1.0  0.11067000000000002  0.24943  0.78015  1.0000
  H   H71       1.0  0.35962999999999995  0.7503099999999998  0.28127  1.0000
  H   H72       1.0  0.8893299999999997  0.7505699999999997  0.21985  1.0000
  C   C1        1.0  0.8086099999999999  0.8944699999999998  0.12309  1.0000
  C   C2        1.0  0.71956  0.9385  0.18693  1.0000
  C   C3        1.0  0.65089  0.9048199999999997  0.22845  1.0000
  C   C4        1.0  0.67032  0.8248199999999998  0.20758  1.0000
  C   C5        1.0  0.7597999999999997  0.78049  0.14382  1.0000
  C   C6        1.0  0.82746  0.815  0.10193  1.0000
  C   C7        1.0  0.8813599999999999  0.9308  0.07947  1.0000
  C   C8        1.0  0.88847  0.07661  0.923  1.0000
  C   C9        1.0  0.8160799999999997  0.12015  0.88555  1.0000
  C   C10       1.0  0.83503  0.09414  0.8117799999999998  1.0000
  C   C11       1.0  0.76666  0.13671999999999995  0.77717  1.0000
  C   C12       1.0  0.6762299999999998  0.20604999999999996  0.8160399999999998  1.0000
  C   C13       1.0  0.6569300000000001  0.23166999999999993  0.89028  1.0000
  C   C14       1.0  0.7261499999999999  0.18971999999999994  0.92387  1.0000
  C   C15       1.0  0.06909000000000011  0.6049799999999997  0.12275999999999998  1.0000
  C   C16       1.0  0.09472000000000001  0.5605  0.18631  1.0000
  C   C17       1.0  0.12204000000000015  0.5938499999999998  0.22789999999999994  1.0000
  C   C18       1.0  0.1230400000000001  0.6740299999999998  0.20735  1.0000
  C   C19       1.0  0.09750000000000013  0.7185699999999998  0.14363  1.0000
  C   C20       1.0  0.07156000000000007  0.6843999999999998  0.10166  1.0000
  C   C21       1.0  0.03930999999999999  0.569  0.07947  1.0000
  C   C22       1.0  0.18834  0.42308  0.92412  1.0000
  C   C23       1.0  0.29817000000000016  0.3796699999999999  0.8864999999999997  1.0000
  C   C24       1.0  0.35255000000000003  0.4060399999999999  0.8126999999999998  1.0000
  C   C25       1.0  0.45553  0.3636399999999999  0.77767  1.0000
  C   C26       1.0  0.5074199999999999  0.29413  0.8162  1.0000
  C   C27       1.0  0.45288000000000006  0.2680399999999999  0.89036  1.0000
  C   C28       1.0  0.3500799999999999  0.30988  0.92443  1.0000
  C   C29       1.0  0.2966200000000001  0.8935699999999998  0.37733  1.0000
  C   C30       1.0  0.34126  0.9378499999999997  0.31359  1.0000
  C   C31       1.0  0.44365000000000004  0.9044299999999997  0.27218  1.0000
  C   C32       1.0  0.5045200000000001  0.8245199999999998  0.29304  1.0000
  C   C33       1.0  0.4597300000000002  0.7800499999999998  0.35681  1.0000
  C   C34       1.0  0.35746999999999995  0.81423  0.39863  1.0000
  C   C35       1.0  0.18744000000000008  0.9300399999999998  0.42055  1.0000
  C   C36       1.0  0.03707000000000002  0.07697  0.5748  1.0000
  C   C37       1.0  0.06617000000000005  0.12015999999999998  0.61225  1.0000
  C   C38       1.0  0.07292999999999998  0.09401999999999998  0.68615  1.0000
  C   C39       1.0  0.09811999999999996  0.13661  0.72115  1.0000
  C   C40       1.0  0.11885999999999997  0.20605999999999994  0.6825  1.0000
  C   C41       1.0  0.11310999999999997  0.23173999999999995  0.60804  1.0000
  C   C42       1.0  0.08649  0.18970999999999993  0.57405  1.0000
  C   C43       1.0  0.32565000000000016  0.60536  0.37772  1.0000
  C   C44       1.0  0.3448300000000001  0.56089  0.31411  1.0000
  C   C45       1.0  0.28407  0.59424  0.27257  1.0000
  C   C46       1.0  0.20257000000000025  0.6742699999999998  0.2932099999999999  1.0000
  C   C47       1.0  0.18330000000000019  0.7188399999999998  0.35696  1.0000
  C   C48       1.0  0.24350999999999998  0.68471  0.3989  1.0000
  C   C49       1.0  0.39173  0.5691599999999998  0.42077  1.0000
  C   C50       1.0  0.38831000000000004  0.4231699999999999  0.57537  1.0000
  C   C51       1.0  0.32160000000000005  0.3800999999999999  0.61259  1.0000
  C   C52       1.0  0.24072999999999997  0.4063099999999999  0.6863799999999998  1.0000
  C   C53       1.0  0.18047999999999995  0.36373  0.72126  1.0000
  C   C54       1.0  0.19867999999999997  0.2942  0.68258  1.0000
  C   C55       1.0  0.2790499999999998  0.2685  0.60821  1.0000
  C   C56       1.0  0.33962000000000014  0.31058  0.5743  1.0000
  C   C57       1.0  0.19139000000000006  0.10553  0.87691  1.0000
  C   C58       1.0  0.28043999999999997  0.06148999999999999  0.81307  1.0000
  C   C59       1.0  0.34911  0.09518  0.77155  1.0000
  C   C60       1.0  0.32968000000000003  0.17518  0.79242  1.0000
  C   C61       1.0  0.2402  0.21949999999999995  0.85618  1.0000
  C   C62       1.0  0.17253999999999997  0.185  0.89807  1.0000
  C   C63       1.0  0.11864000000000002  0.06919999999999997  0.92053  1.0000
  C   C64       1.0  0.11153000000000021  0.9233899999999998  0.07701  1.0000
  C   C65       1.0  0.1839300000000001  0.8798499999999998  0.11445  1.0000
  C   C66       1.0  0.16496000000000016  0.9058599999999998  0.18822  1.0000
  C   C67       1.0  0.23334000000000005  0.8632799999999998  0.22283  1.0000
  C   C68       1.0  0.32377000000000006  0.7939499999999998  0.18396  1.0000
  C   C69       1.0  0.3430700000000001  0.7683299999999997  0.10972  1.0000
  C   C70       1.0  0.2738499999999999  0.8102799999999998  0.07614  1.0000
  C   C71       1.0  0.93091  0.39500999999999986  0.8772399999999998  1.0000
  C   C72       1.0  0.9052800000000001  0.4394999999999999  0.81369  1.0000
  C   C73       1.0  0.87796  0.40614  0.77211  1.0000
  C   C74       1.0  0.8769600000000001  0.32597  0.79265  1.0000
  C   C75       1.0  0.9025  0.28142  0.85638  1.0000
  C   C76       1.0  0.9284400000000002  0.3155999999999999  0.8983399999999998  1.0000
  C   C77       1.0  0.96069  0.431  0.9205399999999999  1.0000
  C   C78       1.0  0.8116599999999997  0.57691  0.07588  1.0000
  C   C79       1.0  0.7018300000000001  0.62033  0.11349999999999998  1.0000
  C   C80       1.0  0.64745  0.59396  0.18731  1.0000
  C   C81       1.0  0.54447  0.6363499999999997  0.22233  1.0000
  C   C82       1.0  0.4925800000000002  0.70587  0.18379999999999994  1.0000
  C   C83       1.0  0.54712  0.73196  0.10964  1.0000
  C   C84       1.0  0.6499200000000002  0.6901099999999998  0.07557  1.0000
  C   C85       1.0  0.7033800000000001  0.10642999999999997  0.62267  1.0000
  C   C86       1.0  0.65874  0.06214999999999998  0.68641  1.0000
  C   C87       1.0  0.5563499999999997  0.09556999999999997  0.72783  1.0000
  C   C88       1.0  0.49548000000000014  0.17547999999999994  0.70696  1.0000
  C   C89       1.0  0.5402699999999999  0.21994  0.64319  1.0000
  C   C90       1.0  0.64253  0.18576999999999994  0.60137  1.0000
  C   C91       1.0  0.8125499999999997  0.06996  0.57945  1.0000
  C   C92       1.0  0.9629299999999996  0.9230199999999997  0.42521  1.0000
  C   C93       1.0  0.9338300000000002  0.8798399999999997  0.38775  1.0000
  C   C94       1.0  0.9270699999999997  0.9059699999999998  0.31386  1.0000
  C   C95       1.0  0.9018799999999997  0.8633799999999998  0.27885  1.0000
  C   C96       1.0  0.8811400000000004  0.7939399999999998  0.3175  1.0000
  C   C97       1.0  0.88689  0.7682499999999998  0.39196  1.0000
  C   C98       1.0  0.9135000000000001  0.8102799999999998  0.4259499999999999  1.0000
  C   C99       1.0  0.6743499999999999  0.3946399999999999  0.62228  1.0000
  C   C100      1.0  0.65517  0.4391099999999999  0.68589  1.0000
  C   C101      1.0  0.7159300000000001  0.4057599999999999  0.72743  1.0000
  C   C102      1.0  0.7974299999999999  0.32573  0.70679  1.0000
  C   C103      1.0  0.8167  0.2811499999999999  0.64305  1.0000
  C   C104      1.0  0.7564899999999999  0.3152899999999999  0.6011  1.0000
  C   C105      1.0  0.6082699999999995  0.4308299999999999  0.57923  1.0000
  C   C106      1.0  0.6116900000000001  0.5768199999999998  0.42463  1.0000
  C   C107      1.0  0.67839  0.6199  0.38741  1.0000
  C   C108      1.0  0.7592699999999997  0.59369  0.31362  1.0000
  C   C109      1.0  0.8195099999999998  0.63627  0.27875  1.0000
  C   C110      1.0  0.8013200000000003  0.7058  0.31741999999999987  1.0000
  C   C111      1.0  0.72095  0.7315  0.3918  1.0000
  C   C112      1.0  0.6603799999999999  0.68941  0.4256999999999999  1.0000
  N   N1        1.0  0.6068100000000001  0.7861799999999998  0.25025  1.0000
  N   N2        1.0  0.14343999999999996  0.71267  0.25024  1.0000
  N   N3        1.0  0.39319000000000004  0.21380999999999997  0.74976  1.0000
  N   N4        1.0  0.8565599999999998  0.28732  0.74976  1.0000
  N   N5        1.0  0.6102699999999999  0.25017  0.7792  1.0000
  N   N6        1.0  0.14023000000000002  0.25004  0.71968  1.0000
  N   N7        1.0  0.3897300000000001  0.7498299999999998  0.22081  1.0000
  N   N8        1.0  0.85977  0.74996  0.28032  1.0000
  O   O1        1.0  0.87172  0.11336999999999997  0.98344  1.0000
  O   O2        1.0  0.8643199999999998  0.9992399999999999  0.10721  1.0000
  O   O3        1.0  0.95698  0.8909899999999997  0.017539999999999993  1.0000
  O   O4        1.0  0.96285  0.00643  0.8927299999999998  1.0000
  O   O5        1.0  0.14476000000000006  0.3867899999999999  0.98522  1.0000
  O   O6        1.0  0.028369999999999996  0.50069  0.10754999999999998  1.0000
  O   O7        1.0  0.025270000000000122  0.6088199999999998  0.01765  1.0000
  O   O8        1.0  0.14432  0.4926899999999999  0.8931  1.0000
  O   O9        1.0  0.017879999999999993  0.11346999999999997  0.5139  1.0000
  O   O10       1.0  0.13658  0.99849  0.39233  1.0000
  O   O11       1.0  0.15111999999999998  0.8905099999999998  0.48244  1.0000
  O   O12       1.0  0.03153999999999998  0.00744  0.60583  1.0000
  O   O13       1.0  0.4683400000000002  0.3868099999999999  0.5143399999999998  1.0000
  O   O14       1.0  0.47113999999999995  0.5009999999999998  0.3923  1.0000
  O   O15       1.0  0.36599999999999994  0.60866  0.4827  1.0000
  O   O16       1.0  0.3629300000000002  0.4924099999999999  0.6067599999999997  1.0000
  O   O17       1.0  0.1282800000000001  0.8866299999999998  0.01655999999999999  1.0000
  O   O18       1.0  0.13568000000000005  0.0007499999999999997  0.89279  1.0000
  O   O19       1.0  0.04302000000000015  0.10900999999999997  0.9824599999999999  1.0000
  O   O20       1.0  0.03715000000000011  0.9935699999999997  0.10727  1.0000
  O   O21       1.0  0.8552400000000001  0.6131999999999997  0.01478  1.0000
  O   O22       1.0  0.9716300000000001  0.49930999999999987  0.89245  1.0000
  O   O23       1.0  0.9747299999999998  0.39117  0.98235  1.0000
  O   O24       1.0  0.85568  0.50731  0.1069  1.0000
  O   O25       1.0  0.9821200000000001  0.8865199999999998  0.4860999999999999  1.0000
  O   O26       1.0  0.8634200000000002  0.0015099999999999996  0.6076699999999998  1.0000
  O   O27       1.0  0.8488799999999999  0.10948999999999998  0.51757  1.0000
  O   O28       1.0  0.9684500000000001  0.9925599999999998  0.3941799999999999  1.0000
  O   O29       1.0  0.53166  0.61319  0.48566000000000004  1.0000
  O   O30       1.0  0.52886  0.499  0.6077  1.0000
  O   O31       1.0  0.634  0.39134  0.5173  1.0000
  O   O32       1.0  0.63707  0.50758  0.39325  1.0000
