data_image0
_chemical_formula_structural       La4H80C96N16O32
_chemical_formula_sum              "La4 H80 C96 N16 O32"
_cell_length_a       14.73527
_cell_length_b       14.7449
_cell_length_c       17.2257
_cell_angle_alpha    103.37578
_cell_angle_beta     103.27818
_cell_angle_gamma    117.40507999999998

_symmetry_space_group_name_H-M    'P 1'
_symmetry_Int_Tables_number       1

loop_
  _symmetry_equiv_pos_as_xyz
  'x,y,z'

loop_
  _atom_site_type_symbol
  _atom_site_label
  _atom_site_symmetry_multiplicity
  _atom_site_fract_x
  _atom_site_fract_y
  _atom_site_fract_z
  _atom_site_occupancy
  La  La1       1.0  0.27386  0.52442  0.75021  1.0000
  La  La2       1.0  0.97554  0.22604  0.7498099999999998  1.0000
  La  La3       1.0  0.7261399999999998  0.4755800000000001  0.24978999999999996  1.0000
  La  La4       1.0  0.02445999999999998  0.77395  0.2502  1.0000
  H   H1        1.0  0.18518000000000015  0.7739900000000002  0.52531  1.0000
  H   H2        1.0  0.3044899999999998  0.7484400000000001  0.6404599999999998  1.0000
  H   H3        1.0  0.43442999999999976  0.95319  0.044279999999999986  1.0000
  H   H4        1.0  0.44452  0.83175  0.9197899999999998  1.0000
  H   H5        1.0  0.1292399999999999  0.41022999999999993  0.5004099999999998  1.0000
  H   H6        1.0  0.9940800000000001  0.42033000000000004  0.38487  1.0000
  H   H7        1.0  0.09305000000000006  0.8105900000000003  0.8826999999999998  1.0000
  H   H8        1.0  0.30751  0.97536  0.10876999999999998  1.0000
  H   H9        1.0  0.16956000000000004  0.92284  0.044389999999999985  1.0000
  H   H10       1.0  0.11900000000000008  0.69714  0.76521  1.0000
  H   H11       1.0  0.8413299999999996  0.75212  0.5265099999999998  1.0000
  H   H12       1.0  0.83672  0.8933699999999999  0.6407099999999998  1.0000
  H   H13       1.0  0.10886000000000001  0.09097000000000001  0.04393999999999999  1.0000
  H   H14       1.0  0.9748899999999996  0.08796999999999994  0.9192999999999998  1.0000
  H   H15       1.0  0.8710299999999999  0.08924999999999994  0.4989299999999999  1.0000
  H   H16       1.0  0.8910899999999997  0.9636399999999999  0.3842399999999999  1.0000
  H   H17       1.0  0.28972999999999993  0.07244999999999994  0.8829599999999997  1.0000
  H   H18       1.0  0.29985  0.13314  0.10886  1.0000
  H   H19       1.0  0.3741599999999999  0.12182000000000003  0.044819999999999985  1.0000
  H   H20       1.0  0.14702  0.06848000000000005  0.76526  1.0000
  H   H21       1.0  0.7260099999999999  0.31502  0.9747899999999998  1.0000
  H   H22       1.0  0.75158  0.19553999999999994  0.85953  1.0000
  H   H23       1.0  0.5467699999999999  0.06554999999999993  0.4556199999999999  1.0000
  H   H24       1.0  0.6680299999999998  0.055360000000000006  0.57999  1.0000
  H   H25       1.0  0.08978999999999991  0.37052999999999997  0.9994699999999999  1.0000
  H   H26       1.0  0.07974  0.5059  0.11511999999999997  1.0000
  H   H27       1.0  0.6893899999999998  0.40686  0.6173099999999999  1.0000
  H   H28       1.0  0.52492  0.19257999999999997  0.3912099999999999  1.0000
  H   H29       1.0  0.57735  0.33041  0.45577  1.0000
  H   H30       1.0  0.8027099999999999  0.3809199999999999  0.7347099999999998  1.0000
  H   H31       1.0  0.7480399999999998  0.6587999999999999  0.9735299999999998  1.0000
  H   H32       1.0  0.6068299999999999  0.6632299999999999  0.8593399999999998  1.0000
  H   H33       1.0  0.4089299999999999  0.39092000000000005  0.45606  1.0000
  H   H34       1.0  0.41197  0.52503  0.58084  1.0000
  H   H35       1.0  0.41065000000000007  0.6289100000000001  0.0011199999999999995  1.0000
  H   H36       1.0  0.5362599999999998  0.6090700000000001  0.11580999999999997  1.0000
  H   H37       1.0  0.4274599999999999  0.2103799999999999  0.6170799999999997  1.0000
  H   H38       1.0  0.36695  0.20003  0.3910999999999999  1.0000
  H   H39       1.0  0.37816  0.12581  0.45513  1.0000
  H   H40       1.0  0.43148  0.3533000000000001  0.73484  1.0000
  H   H41       1.0  0.81483  0.22601000000000002  0.4746899999999999  1.0000
  H   H42       1.0  0.6955099999999997  0.25156  0.3595399999999999  1.0000
  H   H43       1.0  0.5655699999999998  0.04680999999999991  0.9557199999999998  1.0000
  H   H44       1.0  0.55548  0.16824000000000003  0.08020999999999998  1.0000
  H   H45       1.0  0.87077  0.58977  0.49959  1.0000
  H   H46       1.0  0.005920000000000066  0.5796600000000001  0.61513  1.0000
  H   H47       1.0  0.9069499999999997  0.18941  0.11729999999999997  1.0000
  H   H48       1.0  0.6924899999999999  0.0246399999999999  0.8912299999999997  1.0000
  H   H49       1.0  0.8304399999999997  0.07715999999999992  0.9556099999999997  1.0000
  H   H50       1.0  0.88101  0.30286  0.23479  1.0000
  H   H51       1.0  0.15867  0.24788  0.4734899999999999  1.0000
  H   H52       1.0  0.16328999999999994  0.10662999999999997  0.3592999999999999  1.0000
  H   H53       1.0  0.89114  0.90903  0.9560599999999998  1.0000
  H   H54       1.0  0.025120000000000003  0.91202  0.08070999999999998  1.0000
  H   H55       1.0  0.12897000000000008  0.9107400000000001  0.50107  1.0000
  H   H56       1.0  0.10890999999999984  0.03635999999999986  0.6157599999999998  1.0000
  H   H57       1.0  0.71027  0.92755  0.11703999999999998  1.0000
  H   H58       1.0  0.7001499999999997  0.86686  0.8911399999999998  1.0000
  H   H59       1.0  0.62584  0.87817  0.9551799999999998  1.0000
  H   H60       1.0  0.85298  0.93152  0.23474  1.0000
  H   H61       1.0  0.27399  0.6849799999999999  0.025219999999999992  1.0000
  H   H62       1.0  0.24841999999999995  0.80446  0.14046999999999996  1.0000
  H   H63       1.0  0.4532300000000001  0.9344500000000001  0.5443799999999998  1.0000
  H   H64       1.0  0.33197  0.9446400000000001  0.4200099999999999  1.0000
  H   H65       1.0  0.9102099999999997  0.62947  0.0005299999999999998  1.0000
  H   H66       1.0  0.9202699999999998  0.4940999999999999  0.8848799999999998  1.0000
  H   H67       1.0  0.3106099999999999  0.59314  0.38268999999999986  1.0000
  H   H68       1.0  0.4750799999999999  0.8074200000000002  0.60879  1.0000
  H   H69       1.0  0.42265000000000014  0.6695900000000002  0.54423  1.0000
  H   H70       1.0  0.1973  0.61907  0.26529  1.0000
  H   H71       1.0  0.25196  0.3412  0.02648  1.0000
  H   H72       1.0  0.39317  0.33676  0.14066  1.0000
  H   H73       1.0  0.59108  0.60908  0.5439399999999998  1.0000
  H   H74       1.0  0.58803  0.47497  0.41915999999999987  1.0000
  H   H75       1.0  0.58935  0.3710899999999999  0.9988799999999999  1.0000
  H   H76       1.0  0.46373999999999993  0.3909299999999999  0.8841899999999998  1.0000
  H   H77       1.0  0.5725399999999999  0.78962  0.38292  1.0000
  H   H78       1.0  0.6330499999999999  0.7999700000000002  0.6089  1.0000
  H   H79       1.0  0.6218400000000001  0.8741900000000001  0.54487  1.0000
  H   H80       1.0  0.5685199999999999  0.6467  0.2651699999999999  1.0000
  C   C1        1.0  0.08273000000000005  0.59904  0.4439299999999999  1.0000
  C   C2        1.0  0.011229999999999924  0.6097900000000002  0.37479  1.0000
  C   C3        1.0  0.17069000000000006  0.6926200000000001  0.51779  1.0000
  C   C4        1.0  0.2380599999999999  0.6819700000000001  0.5801599999999998  1.0000
  C   C5        1.0  0.3626999999999999  0.8994500000000001  0.98317  1.0000
  C   C6        1.0  0.3724  0.83646  0.9165199999999998  1.0000
  C   C7        1.0  0.13603000000000004  0.48659000000000013  0.49983  1.0000
  C   C8        1.0  0.06541999999999995  0.49487  0.4381699999999999  1.0000
  C   C9        1.0  0.1733799999999999  0.82047  0.8937899999999998  1.0000
  C   C10       1.0  0.26266999999999996  0.89367  0.9740399999999998  1.0000
  C   C11       1.0  0.25449000000000005  0.9646000000000001  0.04655999999999998  1.0000
  C   C12       1.0  0.1845699999999999  0.7576999999999999  0.8279199999999998  1.0000
  C   C13       1.0  0.86126  0.8439200000000002  0.4436499999999999  1.0000
  C   C14       1.0  0.8638399999999999  0.7636800000000002  0.3748299999999999  1.0000
  C   C15       1.0  0.8477099999999999  0.8253499999999999  0.5180699999999998  1.0000
  C   C16       1.0  0.8425999999999998  0.8987900000000002  0.58013  1.0000
  C   C17       1.0  0.11995  0.08386  0.98297  1.0000
  C   C18       1.0  0.04386999999999991  0.08017999999999989  0.9161999999999998  1.0000
  C   C19       1.0  0.86375  0.012480000000000012  0.49876  1.0000
  C   C20       1.0  0.8727999999999998  0.94219  0.4374299999999999  1.0000
  C   C21       1.0  0.22041999999999984  0.0736899999999999  0.8938999999999998  1.0000
  C   C22       1.0  0.2110099999999999  0.08062  0.9740899999999998  1.0000
  C   C23       1.0  0.29124  0.08200000000000003  0.046699999999999985  1.0000
  C   C24       1.0  0.14362  0.07058000000000003  0.82788  1.0000
  C   C25       1.0  0.90098  0.4173500000000001  0.05606  1.0000
  C   C26       1.0  0.8901499999999997  0.48889  0.12516  1.0000
  C   C27       1.0  0.8073799999999998  0.32938999999999996  0.9822399999999998  1.0000
  C   C28       1.0  0.81802  0.26193  0.91986  1.0000
  C   C29       1.0  0.6004899999999995  0.13723999999999992  0.5167599999999998  1.0000
  C   C30       1.0  0.66344  0.12751  0.58335  1.0000
  C   C31       1.0  0.013440000000000044  0.36386000000000013  0.00012999999999999993  1.0000
  C   C32       1.0  0.005200000000000046  0.43458000000000013  0.06180999999999998  1.0000
  C   C33       1.0  0.6794699999999999  0.3265399999999999  0.6061999999999997  1.0000
  C   C34       1.0  0.6063  0.23724000000000006  0.52595  1.0000
  C   C35       1.0  0.5355199999999999  0.24548  0.4534799999999999  1.0000
  C   C36       1.0  0.7421999999999997  0.3153300000000001  0.67201  1.0000
  C   C37       1.0  0.6560999999999999  0.6387500000000003  0.05635999999999999  1.0000
  C   C38       1.0  0.73637  0.63607  0.12504  1.0000
  C   C39       1.0  0.67473  0.6523600000000002  0.9819599999999998  1.0000
  C   C40       1.0  0.60133  0.6574100000000002  0.9199199999999997  1.0000
  C   C41       1.0  0.41606999999999983  0.37992  0.51705  1.0000
  C   C42       1.0  0.41979999999999984  0.45607999999999993  0.5838599999999998  1.0000
  C   C43       1.0  0.4875100000000001  0.6362600000000002  0.00129  1.0000
  C   C44       1.0  0.55778  0.6272800000000002  0.06261  1.0000
  C   C45       1.0  0.42621999999999993  0.27962  0.60611  1.0000
  C   C46       1.0  0.4192899999999999  0.28891  0.5259  1.0000
  C   C47       1.0  0.4180099999999999  0.20867000000000005  0.45326  1.0000
  C   C48       1.0  0.4293699999999999  0.3565100000000001  0.67218  1.0000
  C   C49       1.0  0.9172700000000001  0.40096  0.55608  1.0000
  C   C50       1.0  0.98878  0.3902100000000001  0.62521  1.0000
  C   C51       1.0  0.82931  0.30738000000000004  0.48221999999999987  1.0000
  C   C52       1.0  0.76194  0.31803  0.41984  1.0000
  C   C53       1.0  0.6372999999999999  0.10054000000000003  0.016829999999999994  1.0000
  C   C54       1.0  0.6276  0.16354  0.08348  1.0000
  C   C55       1.0  0.86397  0.51341  0.5001699999999998  1.0000
  C   C56       1.0  0.93459  0.50513  0.5618299999999999  1.0000
  C   C57       1.0  0.8266199999999998  0.17952  0.10620999999999997  1.0000
  C   C58       1.0  0.7373299999999998  0.10633000000000001  0.02596  1.0000
  C   C59       1.0  0.74552  0.03539999999999991  0.9534499999999998  1.0000
  C   C60       1.0  0.8154299999999998  0.24230000000000002  0.17208999999999994  1.0000
  C   C61       1.0  0.1387399999999999  0.15608  0.55635  1.0000
  C   C62       1.0  0.13617000000000007  0.2363200000000001  0.62517  1.0000
  C   C63       1.0  0.15229999999999996  0.17465  0.48193  1.0000
  C   C64       1.0  0.15739999999999996  0.10120999999999997  0.4198699999999999  1.0000
  C   C65       1.0  0.8800500000000001  0.9161400000000001  0.017039999999999993  1.0000
  C   C66       1.0  0.95613  0.91982  0.0838  1.0000
  C   C67       1.0  0.13624999999999998  0.98752  0.5012399999999999  1.0000
  C   C68       1.0  0.12720999999999988  0.05780999999999988  0.5625699999999998  1.0000
  C   C69       1.0  0.77958  0.9263000000000001  0.1061  1.0000
  C   C70       1.0  0.78899  0.91938  0.02592  1.0000
  C   C71       1.0  0.70876  0.918  0.9533  1.0000
  C   C72       1.0  0.85638  0.9294199999999999  0.17212999999999995  1.0000
  C   C73       1.0  0.09901999999999983  0.58265  0.9439399999999998  1.0000
  C   C74       1.0  0.10984999999999992  0.5111  0.8748499999999998  1.0000
  C   C75       1.0  0.19263  0.6706100000000002  0.017759999999999995  1.0000
  C   C76       1.0  0.18198  0.73807  0.08014999999999997  1.0000
  C   C77       1.0  0.3995199999999999  0.86276  0.48324  1.0000
  C   C78       1.0  0.3365599999999998  0.8724899999999999  0.4166499999999999  1.0000
  C   C79       1.0  0.98656  0.6361300000000001  0.99987  1.0000
  C   C80       1.0  0.9948  0.56542  0.9381899999999997  1.0000
  C   C81       1.0  0.32053  0.67346  0.3938  1.0000
  C   C82       1.0  0.3937  0.76276  0.4740499999999999  1.0000
  C   C83       1.0  0.46448  0.75452  0.54653  1.0000
  C   C84       1.0  0.2577999999999999  0.6846600000000002  0.3279899999999999  1.0000
  C   C85       1.0  0.3438999999999999  0.36124  0.94364  1.0000
  C   C86       1.0  0.26362999999999986  0.36392  0.8749599999999997  1.0000
  C   C87       1.0  0.32527  0.34763000000000005  0.018039999999999994  1.0000
  C   C88       1.0  0.39867  0.34259  0.08008  1.0000
  C   C89       1.0  0.5839299999999998  0.6200800000000001  0.48295  1.0000
  C   C90       1.0  0.5802  0.54392  0.4161399999999999  1.0000
  C   C91       1.0  0.5124999999999998  0.36374  0.9987099999999999  1.0000
  C   C92       1.0  0.4422199999999998  0.37271999999999994  0.9373899999999997  1.0000
  C   C93       1.0  0.5737799999999997  0.72038  0.39389  1.0000
  C   C94       1.0  0.58072  0.71109  0.4740999999999999  1.0000
  C   C95       1.0  0.582  0.79133  0.54674  1.0000
  C   C96       1.0  0.5706299999999999  0.6434800000000002  0.32782  1.0000
  N   N1        1.0  0.22401  0.5804700000000002  0.56906  1.0000
  N   N2        1.0  0.28398999999999985  0.7673399999999999  0.8385799999999998  1.0000
  N   N3        1.0  0.84484  0.9885300000000002  0.5682  1.0000
  N   N4        1.0  0.05464999999999998  0.07143999999999999  0.83829  1.0000
  N   N5        1.0  0.9195299999999998  0.27589  0.9309399999999999  1.0000
  N   N6        1.0  0.73253  0.21594999999999998  0.6613099999999997  1.0000
  N   N7        1.0  0.51147  0.6551000000000001  0.9318399999999998  1.0000
  N   N8        1.0  0.4285599999999999  0.44541999999999987  0.6617799999999998  1.0000
  N   N9        1.0  0.77599  0.41952999999999996  0.4309399999999999  1.0000
  N   N10       1.0  0.7160199999999998  0.23265999999999998  0.16141999999999995  1.0000
  N   N11       1.0  0.15516999999999986  0.011459999999999965  0.4317999999999999  1.0000
  N   N12       1.0  0.94535  0.92855  0.16171  1.0000
  N   N13       1.0  0.0804700000000001  0.7241100000000003  0.06905999999999997  1.0000
  N   N14       1.0  0.26747000000000004  0.7840500000000001  0.33868999999999994  1.0000
  N   N15       1.0  0.4885300000000001  0.3449  0.06815999999999997  1.0000
  N   N16       1.0  0.5714499999999998  0.55457  0.33822  1.0000
  O   O1        1.0  0.2985599999999999  0.57361  0.62384  1.0000
  O   O2        1.0  0.2952  0.71175  0.7736099999999998  1.0000
  O   O3        1.0  0.04946999999999999  0.7053  0.37111  1.0000
  O   O4        1.0  0.9168899999999999  0.52185  0.3238299999999999  1.0000
  O   O5        1.0  0.8246599999999998  0.05046000000000001  0.6223799999999999  1.0000
  O   O6        1.0  0.9787399999999996  0.06221999999999987  0.7733299999999997  1.0000
  O   O7        1.0  0.8218599999999998  0.6645400000000001  0.37135  1.0000
  O   O8        1.0  0.9075599999999998  0.8003500000000001  0.32384  1.0000
  O   O9        1.0  0.9263299999999998  0.20126999999999995  0.8760799999999997  1.0000
  O   O10       1.0  0.7880400000000001  0.20482000000000009  0.7263  1.0000
  O   O11       1.0  0.7945500000000001  0.4506000000000001  0.12884  1.0000
  O   O12       1.0  0.9780399999999998  0.58325  0.17607999999999996  1.0000
  O   O13       1.0  0.4495499999999999  0.6751700000000002  0.8776899999999997  1.0000
  O   O14       1.0  0.4378199999999998  0.5214499999999999  0.7267799999999999  1.0000
  O   O15       1.0  0.8355599999999999  0.67814  0.12848999999999994  1.0000
  O   O16       1.0  0.6997399999999998  0.5922400000000001  0.17598  1.0000
  O   O17       1.0  0.7014399999999998  0.42638999999999994  0.3761599999999999  1.0000
  O   O18       1.0  0.7047999999999998  0.28825000000000006  0.22639  1.0000
  O   O19       1.0  0.9505399999999996  0.2947000000000001  0.6289  1.0000
  O   O20       1.0  0.08311000000000003  0.4781500000000001  0.67617  1.0000
  O   O21       1.0  0.17533999999999988  0.94954  0.3776199999999999  1.0000
  O   O22       1.0  0.021270000000000094  0.9377700000000002  0.22667999999999996  1.0000
  O   O23       1.0  0.17815000000000006  0.3354600000000001  0.62865  1.0000
  O   O24       1.0  0.09245  0.19965000000000002  0.67616  1.0000
  O   O25       1.0  0.07366999999999999  0.79873  0.12393  1.0000
  O   O26       1.0  0.21196000000000015  0.7951800000000003  0.2737  1.0000
  O   O27       1.0  0.20545999999999984  0.5494  0.8711699999999998  1.0000
  O   O28       1.0  0.021969999999999937  0.41675  0.8239199999999998  1.0000
  O   O29       1.0  0.55046  0.32483  0.12231999999999997  1.0000
  O   O30       1.0  0.56218  0.4785500000000001  0.27322  1.0000
  O   O31       1.0  0.16444999999999996  0.32186  0.87152  1.0000
  O   O32       1.0  0.3002599999999998  0.40775  0.8240199999999998  1.0000
