data_image0
_chemical_formula_structural       Mg16H64C128O64
_chemical_formula_sum              "Mg16 H64 C128 O64"
_cell_length_a       14.5045
_cell_length_b       16.82457
_cell_length_c       18.73887
_cell_angle_alpha    90.0
_cell_angle_beta     90.0
_cell_angle_gamma    90.0

_space_group_name_H-M_alt    "P 1"
_space_group_IT_number       1

loop_
  _space_group_symop_operation_xyz
  'x, y, z'

loop_
  _atom_site_type_symbol
  _atom_site_label
  _atom_site_symmetry_multiplicity
  _atom_site_fract_x
  _atom_site_fract_y
  _atom_site_fract_z
  _atom_site_occupancy
  Mg  Mg1       1.0  0.52671  0.23707  0.46371000000000007  1.0000
  Mg  Mg2       1.0  0.30499  0.24221000000000004  0.55992  1.0000
  Mg  Mg3       1.0  0.9732899999999998  0.76293  0.9637100000000001  1.0000
  Mg  Mg4       1.0  0.19501  0.75779  0.05993  1.0000
  Mg  Mg5       1.0  0.47329  0.7370700000000002  0.03628  1.0000
  Mg  Mg6       1.0  0.695  0.7422100000000003  0.9400700000000001  1.0000
  Mg  Mg7       1.0  0.02671  0.26293  0.53628  1.0000
  Mg  Mg8       1.0  0.80499  0.25779  0.44007000000000007  1.0000
  Mg  Mg9       1.0  0.47329  0.76293  0.53628  1.0000
  Mg  Mg10      1.0  0.695  0.75779  0.44007000000000007  1.0000
  Mg  Mg11      1.0  0.02671  0.23707  0.03628  1.0000
  Mg  Mg12      1.0  0.80499  0.24221000000000004  0.9400700000000001  1.0000
  Mg  Mg13      1.0  0.52671  0.26293  0.9637100000000001  1.0000
  Mg  Mg14      1.0  0.30499  0.25779  0.05993  1.0000
  Mg  Mg15      1.0  0.9732899999999998  0.7370700000000002  0.46371000000000007  1.0000
  Mg  Mg16      1.0  0.19501  0.7422100000000003  0.55992  1.0000
  H   H1        1.0  0.28922  0.5046600000000001  0.51708  1.0000
  H   H2        1.0  0.49562  0.39351000000000014  0.38572000000000006  1.0000
  H   H3        1.0  0.5374  0.52547  0.33496  1.0000
  H   H4        1.0  0.45774  0.64789  0.37817  1.0000
  H   H5        1.0  0.4936  0.2753  0.23683000000000004  1.0000
  H   H6        1.0  0.77172  0.35219  0.27603  1.0000
  H   H7        1.0  0.63979  0.4064  0.07504  1.0000
  H   H8        1.0  0.7747199999999997  0.41961  0.15685  1.0000
  H   H9        1.0  0.21078  0.49533  0.01708  1.0000
  H   H10       1.0  0.00438  0.60649  0.88572  1.0000
  H   H11       1.0  0.96259  0.47453  0.83495  1.0000
  H   H12       1.0  0.04226  0.3521  0.8781700000000001  1.0000
  H   H13       1.0  0.006389999999999999  0.7247  0.73683  1.0000
  H   H14       1.0  0.72828  0.6478  0.77602  1.0000
  H   H15       1.0  0.86021  0.5936  0.57504  1.0000
  H   H16       1.0  0.72528  0.58038  0.65684  1.0000
  H   H17       1.0  0.7107799999999999  0.00467  0.9829100000000001  1.0000
  H   H18       1.0  0.50438  0.89351  0.11428000000000002  1.0000
  H   H19       1.0  0.46258999999999995  0.02547  0.16504  1.0000
  H   H20       1.0  0.54225  0.1479  0.12182000000000001  1.0000
  H   H21       1.0  0.50639  0.7753  0.26317  1.0000
  H   H22       1.0  0.22828  0.85219  0.22397  1.0000
  H   H23       1.0  0.36021  0.9063900000000003  0.42496  1.0000
  H   H24       1.0  0.22528  0.91961  0.34315  1.0000
  H   H25       1.0  0.78922  0.9953300000000002  0.48291000000000006  1.0000
  H   H26       1.0  0.99562  0.10649  0.61428  1.0000
  H   H27       1.0  0.03741  0.97453  0.66504  1.0000
  H   H28       1.0  0.95774  0.8521000000000001  0.62182  1.0000
  H   H29       1.0  0.99361  0.22470000000000004  0.76317  1.0000
  H   H30       1.0  0.27172  0.14781  0.72397  1.0000
  H   H31       1.0  0.13979  0.0936  0.92496  1.0000
  H   H32       1.0  0.27472  0.08038  0.84315  1.0000
  H   H33       1.0  0.7107799999999999  0.49533  0.48291000000000006  1.0000
  H   H34       1.0  0.50438  0.60649  0.61428  1.0000
  H   H35       1.0  0.46258999999999995  0.47453  0.66504  1.0000
  H   H36       1.0  0.54225  0.3521  0.62182  1.0000
  H   H37       1.0  0.50639  0.7247  0.76317  1.0000
  H   H38       1.0  0.22828  0.6478  0.72397  1.0000
  H   H39       1.0  0.36021  0.5936  0.92496  1.0000
  H   H40       1.0  0.22528  0.58038  0.84315  1.0000
  H   H41       1.0  0.78922  0.5046600000000001  0.9829100000000001  1.0000
  H   H42       1.0  0.99562  0.39351000000000014  0.11428000000000002  1.0000
  H   H43       1.0  0.03741  0.52547  0.16504  1.0000
  H   H44       1.0  0.95774  0.64789  0.12182000000000001  1.0000
  H   H45       1.0  0.99361  0.2753  0.26317  1.0000
  H   H46       1.0  0.27172  0.35219  0.22397  1.0000
  H   H47       1.0  0.13979  0.4064  0.42496  1.0000
  H   H48       1.0  0.27472  0.41961  0.34315  1.0000
  H   H49       1.0  0.28922  0.9953300000000002  0.01708  1.0000
  H   H50       1.0  0.49562  0.10649  0.88572  1.0000
  H   H51       1.0  0.5374  0.97453  0.83495  1.0000
  H   H52       1.0  0.45774  0.8521000000000001  0.8781700000000001  1.0000
  H   H53       1.0  0.4936  0.22470000000000004  0.73683  1.0000
  H   H54       1.0  0.77172  0.14781  0.77602  1.0000
  H   H55       1.0  0.63979  0.0936  0.57504  1.0000
  H   H56       1.0  0.7747199999999997  0.08038  0.65684  1.0000
  H   H57       1.0  0.21078  0.00467  0.51708  1.0000
  H   H58       1.0  0.00438  0.89351  0.38572000000000006  1.0000
  H   H59       1.0  0.96259  0.02547  0.33496  1.0000
  H   H60       1.0  0.04226  0.1479  0.37817  1.0000
  H   H61       1.0  0.006389999999999999  0.7753  0.23683000000000004  1.0000
  H   H62       1.0  0.72828  0.85219  0.27603  1.0000
  H   H63       1.0  0.86021  0.9063900000000003  0.07504  1.0000
  H   H64       1.0  0.72528  0.91961  0.15685  1.0000
  C   C1        1.0  0.32137  0.65622  0.47847000000000006  1.0000
  C   C2        1.0  0.36831  0.58392  0.45011000000000007  1.0000
  C   C3        1.0  0.34385  0.50968  0.47764  1.0000
  C   C4        1.0  0.39148  0.44137  0.45609  1.0000
  C   C5        1.0  0.46086  0.44707  0.4041  1.0000
  C   C6        1.0  0.48381  0.52113  0.37536  1.0000
  C   C7        1.0  0.43908  0.58972  0.39923  1.0000
  C   C8        1.0  0.63208  0.27099  0.33486  1.0000
  C   C9        1.0  0.55523  0.3063400000000001  0.21908000000000002  1.0000
  C   C10       1.0  0.6325  0.31023  0.26354  1.0000
  C   C11       1.0  0.71209  0.35059  0.24073999999999998  1.0000
  C   C12       1.0  0.48115  0.3255  0.10003  1.0000
  C   C13       1.0  0.55862  0.3398400000000001  0.15066  1.0000
  C   C14       1.0  0.63795  0.38084  0.12837  1.0000
  C   C15       1.0  0.36689  0.3644700000000001  0.48985999999999996  1.0000
  C   C16       1.0  0.71371  0.38731  0.174  1.0000
  C   C17       1.0  0.17863  0.34378  0.9784700000000001  1.0000
  C   C18       1.0  0.13169  0.41608  0.95011  1.0000
  C   C19       1.0  0.15615  0.49032000000000003  0.97764  1.0000
  C   C20       1.0  0.10852  0.55863  0.9560900000000001  1.0000
  C   C21       1.0  0.03914  0.55292  0.9041000000000001  1.0000
  C   C22       1.0  0.01619  0.47887  0.87536  1.0000
  C   C23       1.0  0.06092  0.41028000000000003  0.8992300000000001  1.0000
  C   C24       1.0  0.86792  0.72901  0.83486  1.0000
  C   C25       1.0  0.94477  0.69365  0.71907  1.0000
  C   C26       1.0  0.8675  0.68977  0.76354  1.0000
  C   C27       1.0  0.78791  0.6494  0.74074  1.0000
  C   C28       1.0  0.01885  0.67449  0.60002  1.0000
  C   C29       1.0  0.94138  0.66015  0.65066  1.0000
  C   C30       1.0  0.86205  0.61916  0.62837  1.0000
  C   C31       1.0  0.13311  0.63553  0.98986  1.0000
  C   C32       1.0  0.78629  0.61269  0.67399  1.0000
  C   C33       1.0  0.6786199999999999  0.15622  0.02153  1.0000
  C   C34       1.0  0.6316899999999998  0.08392  0.04989  1.0000
  C   C35       1.0  0.65615  0.00968  0.02236  1.0000
  C   C36       1.0  0.60851  0.94136  0.04391  1.0000
  C   C37       1.0  0.53914  0.94707  0.0959  1.0000
  C   C38       1.0  0.51619  0.021130000000000006  0.12464  1.0000
  C   C39       1.0  0.5609199999999999  0.08972  0.10077  1.0000
  C   C40       1.0  0.36792  0.77099  0.16514  1.0000
  C   C41       1.0  0.44477  0.80634  0.28092  1.0000
  C   C42       1.0  0.3675  0.81022  0.23645000000000002  1.0000
  C   C43       1.0  0.28791  0.85059  0.25926  1.0000
  C   C44       1.0  0.51885  0.8255  0.39997  1.0000
  C   C45       1.0  0.44138  0.83984  0.34934  1.0000
  C   C46       1.0  0.36205  0.88084  0.37163  1.0000
  C   C47       1.0  0.6331099999999997  0.86447  0.01014  1.0000
  C   C48       1.0  0.28629  0.8873100000000003  0.326  1.0000
  C   C49       1.0  0.82137  0.84378  0.52153  1.0000
  C   C50       1.0  0.86831  0.91608  0.54989  1.0000
  C   C51       1.0  0.8438499999999999  0.99032  0.52235  1.0000
  C   C52       1.0  0.8914799999999998  0.05863  0.54391  1.0000
  C   C53       1.0  0.96086  0.05293  0.5959  1.0000
  C   C54       1.0  0.98381  0.97887  0.62464  1.0000
  C   C55       1.0  0.93908  0.91028  0.60077  1.0000
  C   C56       1.0  0.13208  0.22901  0.66514  1.0000
  C   C57       1.0  0.05523  0.19365  0.78092  1.0000
  C   C58       1.0  0.1325  0.18977  0.73645  1.0000
  C   C59       1.0  0.21209  0.14941000000000002  0.75925  1.0000
  C   C60       1.0  0.98115  0.17449  0.89997  1.0000
  C   C61       1.0  0.05862  0.16015  0.84933  1.0000
  C   C62       1.0  0.13795  0.11916  0.87163  1.0000
  C   C63       1.0  0.86689  0.13553  0.51014  1.0000
  C   C64       1.0  0.21371  0.11269000000000003  0.826  1.0000
  C   C65       1.0  0.6786199999999999  0.34378  0.52153  1.0000
  C   C66       1.0  0.6316899999999998  0.41608  0.54989  1.0000
  C   C67       1.0  0.65615  0.49032000000000003  0.52235  1.0000
  C   C68       1.0  0.60851  0.55863  0.54391  1.0000
  C   C69       1.0  0.53914  0.55292  0.5959  1.0000
  C   C70       1.0  0.51619  0.47887  0.62464  1.0000
  C   C71       1.0  0.5609199999999999  0.41028000000000003  0.60077  1.0000
  C   C72       1.0  0.36792  0.72901  0.66514  1.0000
  C   C73       1.0  0.44477  0.69365  0.78092  1.0000
  C   C74       1.0  0.3675  0.68977  0.73645  1.0000
  C   C75       1.0  0.28791  0.6494  0.75925  1.0000
  C   C76       1.0  0.51885  0.67449  0.89997  1.0000
  C   C77       1.0  0.44138  0.66015  0.84933  1.0000
  C   C78       1.0  0.36205  0.61916  0.87163  1.0000
  C   C79       1.0  0.6331099999999997  0.63553  0.51014  1.0000
  C   C80       1.0  0.28629  0.61269  0.826  1.0000
  C   C81       1.0  0.82137  0.65622  0.02153  1.0000
  C   C82       1.0  0.86831  0.58392  0.04989  1.0000
  C   C83       1.0  0.8438499999999999  0.50968  0.02236  1.0000
  C   C84       1.0  0.8914799999999998  0.44137  0.04391  1.0000
  C   C85       1.0  0.96086  0.44707  0.0959  1.0000
  C   C86       1.0  0.98381  0.52113  0.12464  1.0000
  C   C87       1.0  0.93908  0.58972  0.10077  1.0000
  C   C88       1.0  0.13208  0.27099  0.16514  1.0000
  C   C89       1.0  0.05523  0.3063400000000001  0.28092  1.0000
  C   C90       1.0  0.1325  0.31023  0.23645000000000002  1.0000
  C   C91       1.0  0.21209  0.35059  0.25926  1.0000
  C   C92       1.0  0.98115  0.3255  0.39997  1.0000
  C   C93       1.0  0.05862  0.3398400000000001  0.34934  1.0000
  C   C94       1.0  0.13795  0.38084  0.37163  1.0000
  C   C95       1.0  0.86689  0.3644700000000001  0.01014  1.0000
  C   C96       1.0  0.21371  0.38731  0.326  1.0000
  C   C97       1.0  0.32137  0.84378  0.9784700000000001  1.0000
  C   C98       1.0  0.36831  0.91608  0.95011  1.0000
  C   C99       1.0  0.34385  0.99032  0.97764  1.0000
  C   C100      1.0  0.39148  0.05863  0.9560900000000001  1.0000
  C   C101      1.0  0.46086  0.05293  0.9041000000000001  1.0000
  C   C102      1.0  0.48381  0.97887  0.87536  1.0000
  C   C103      1.0  0.43908  0.91028  0.8992300000000001  1.0000
  C   C104      1.0  0.63208  0.22901  0.83486  1.0000
  C   C105      1.0  0.55523  0.19365  0.71907  1.0000
  C   C106      1.0  0.6325  0.18977  0.76354  1.0000
  C   C107      1.0  0.71209  0.14941000000000002  0.74074  1.0000
  C   C108      1.0  0.48115  0.17449  0.60002  1.0000
  C   C109      1.0  0.55862  0.16015  0.65066  1.0000
  C   C110      1.0  0.63795  0.11916  0.62837  1.0000
  C   C111      1.0  0.36689  0.13553  0.98986  1.0000
  C   C112      1.0  0.71371  0.11269000000000003  0.67399  1.0000
  C   C113      1.0  0.17863  0.15622  0.47847000000000006  1.0000
  C   C114      1.0  0.13169  0.08392  0.45011000000000007  1.0000
  C   C115      1.0  0.15615  0.00968  0.47764  1.0000
  C   C116      1.0  0.10852  0.94136  0.45609  1.0000
  C   C117      1.0  0.03914  0.94707  0.4041  1.0000
  C   C118      1.0  0.01619  0.021130000000000006  0.37536  1.0000
  C   C119      1.0  0.06092  0.08972  0.39923  1.0000
  C   C120      1.0  0.86792  0.77099  0.33486  1.0000
  C   C121      1.0  0.94477  0.80634  0.21908000000000002  1.0000
  C   C122      1.0  0.8675  0.81022  0.26354  1.0000
  C   C123      1.0  0.78791  0.85059  0.24073999999999998  1.0000
  C   C124      1.0  0.01885  0.8255  0.10003  1.0000
  C   C125      1.0  0.94138  0.83984  0.15066  1.0000
  C   C126      1.0  0.86205  0.88084  0.12837  1.0000
  C   C127      1.0  0.13311  0.86447  0.48985999999999996  1.0000
  C   C128      1.0  0.78629  0.8873100000000003  0.174  1.0000
  O   O1        1.0  0.4123  0.30042  0.47503000000000006  1.0000
  O   O2        1.0  0.36717  0.7213600000000002  0.48217  1.0000
  O   O3        1.0  0.55395  0.24971  0.36125  1.0000
  O   O4        1.0  0.4913599999999999  0.34527  0.03418  1.0000
  O   O5        1.0  0.23838  0.65046  0.49966  1.0000
  O   O6        1.0  0.30056  0.36104  0.53401  1.0000
  O   O7        1.0  0.40921  0.29053  0.12387999999999999  1.0000
  O   O8        1.0  0.70867  0.26160000000000005  0.36586  1.0000
  O   O9        1.0  0.0877  0.69958  0.9750300000000001  1.0000
  O   O10       1.0  0.13283  0.27864  0.9821599999999999  1.0000
  O   O11       1.0  0.94605  0.75029  0.86125  1.0000
  O   O12       1.0  0.00864  0.65472  0.53418  1.0000
  O   O13       1.0  0.26162  0.34954  0.9996599999999999  1.0000
  O   O14       1.0  0.19944  0.63896  0.03402  1.0000
  O   O15       1.0  0.09078999999999998  0.70947  0.62388  1.0000
  O   O16       1.0  0.79133  0.7384  0.8658500000000001  1.0000
  O   O17       1.0  0.5877  0.8004200000000002  0.02496  1.0000
  O   O18       1.0  0.63283  0.22136  0.01783  1.0000
  O   O19       1.0  0.44605  0.74971  0.13875  1.0000
  O   O20       1.0  0.50864  0.84527  0.46580999999999995  1.0000
  O   O21       1.0  0.76162  0.15046000000000004  0.00034  1.0000
  O   O22       1.0  0.69944  0.8610300000000001  0.9659800000000001  1.0000
  O   O23       1.0  0.59079  0.7905300000000002  0.37612  1.0000
  O   O24       1.0  0.29133  0.7616  0.13414  1.0000
  O   O25       1.0  0.9123  0.19958  0.52496  1.0000
  O   O26       1.0  0.86717  0.77864  0.51783  1.0000
  O   O27       1.0  0.05395  0.25029  0.63875  1.0000
  O   O28       1.0  0.99136  0.15473  0.96581  1.0000
  O   O29       1.0  0.73838  0.8495400000000002  0.50034  1.0000
  O   O30       1.0  0.80056  0.13896  0.46598  1.0000
  O   O31       1.0  0.9092099999999997  0.20947  0.87611  1.0000
  O   O32       1.0  0.20867  0.23839999999999997  0.63414  1.0000
  O   O33       1.0  0.5877  0.69958  0.52496  1.0000
  O   O34       1.0  0.63283  0.27864  0.51783  1.0000
  O   O35       1.0  0.44605  0.75029  0.63875  1.0000
  O   O36       1.0  0.50864  0.65472  0.96581  1.0000
  O   O37       1.0  0.76162  0.34954  0.50034  1.0000
  O   O38       1.0  0.69944  0.63896  0.46598  1.0000
  O   O39       1.0  0.59079  0.70947  0.87611  1.0000
  O   O40       1.0  0.29133  0.7384  0.63414  1.0000
  O   O41       1.0  0.9123  0.30042  0.02496  1.0000
  O   O42       1.0  0.86717  0.7213600000000002  0.01783  1.0000
  O   O43       1.0  0.05395  0.24971  0.13875  1.0000
  O   O44       1.0  0.99136  0.34527  0.46580999999999995  1.0000
  O   O45       1.0  0.73838  0.65046  0.00034  1.0000
  O   O46       1.0  0.80056  0.36104  0.9659800000000001  1.0000
  O   O47       1.0  0.9092099999999997  0.29053  0.37612  1.0000
  O   O48       1.0  0.20867  0.26160000000000005  0.13414  1.0000
  O   O49       1.0  0.4123  0.19958  0.9750300000000001  1.0000
  O   O50       1.0  0.36717  0.77864  0.9821599999999999  1.0000
  O   O51       1.0  0.55395  0.25029  0.86125  1.0000
  O   O52       1.0  0.4913599999999999  0.15473  0.53418  1.0000
  O   O53       1.0  0.23838  0.8495400000000002  0.9996599999999999  1.0000
  O   O54       1.0  0.30056  0.13896  0.03402  1.0000
  O   O55       1.0  0.40921  0.20947  0.62388  1.0000
  O   O56       1.0  0.70867  0.23839999999999997  0.8658500000000001  1.0000
  O   O57       1.0  0.0877  0.8004200000000002  0.47503000000000006  1.0000
  O   O58       1.0  0.13283  0.22136  0.48217  1.0000
  O   O59       1.0  0.94605  0.74971  0.36125  1.0000
  O   O60       1.0  0.00864  0.84527  0.03418  1.0000
  O   O61       1.0  0.26162  0.15046000000000004  0.49966  1.0000
  O   O62       1.0  0.19944  0.8610300000000001  0.53401  1.0000
  O   O63       1.0  0.09078999999999998  0.7905300000000002  0.12387999999999999  1.0000
  O   O64       1.0  0.79133  0.7616  0.36586  1.0000
