data_image0
_chemical_formula_structural       Cu16H64C96N80
_chemical_formula_sum              "Cu16 H64 C96 N80"
_cell_length_a       14.26961
_cell_length_b       14.25261
_cell_length_c       23.708520000000004
_cell_angle_alpha    92.17948000000001
_cell_angle_beta     90.4288
_cell_angle_gamma    112.25569

_space_group_name_H-M_alt    "P 1"
_space_group_IT_number       1

loop_
  _space_group_symop_operation_xyz
  'x, y, z'

loop_
  _atom_site_type_symbol
  _atom_site_label
  _atom_site_symmetry_multiplicity
  _atom_site_fract_x
  _atom_site_fract_y
  _atom_site_fract_z
  _atom_site_occupancy
  Cu  Cu1       1.0  0.14874000000000007  0.7777200000000002  0.1944  1.0000
  Cu  Cu2       1.0  0.06008000000000001  0.42165  0.023799999999999998  1.0000
  Cu  Cu3       1.0  0.06897  0.31454  0.6650299999999999  1.0000
  Cu  Cu4       1.0  0.13885  0.027099999999999992  0.3993299999999999  1.0000
  Cu  Cu5       1.0  0.9545199999999998  0.18883000000000005  0.22681999999999994  1.0000
  Cu  Cu6       1.0  0.06943000000000009  0.9511800000000002  0.53545  1.0000
  Cu  Cu7       1.0  0.13013999999999995  0.52257  0.8928199999999997  1.0000
  Cu  Cu8       1.0  0.85117  0.22249  0.8062999999999998  1.0000
  Cu  Cu9       1.0  0.9397599999999999  0.5745000000000001  0.97839  1.0000
  Cu  Cu10      1.0  0.9303599999999999  0.6852100000000002  0.33542  1.0000
  Cu  Cu11      1.0  0.8657300000000001  0.9827500000000002  0.6011499999999999  1.0000
  Cu  Cu12      1.0  0.03753000000000012  0.8014900000000003  0.7707899999999999  1.0000
  Cu  Cu13      1.0  0.9310499999999999  0.05085000000000001  0.46253  1.0000
  Cu  Cu14      1.0  0.8704699999999997  0.4774700000000001  0.10953999999999997  1.0000
  Cu  Cu15      1.0  0.50014  0.49973  0.00128  1.0000
  Cu  Cu16      1.0  0.5004  0.9999800000000001  0.49983  1.0000
  H   H1        1.0  0.6276699999999997  0.04043000000000001  0.39009  1.0000
  H   H2        1.0  0.8423599999999996  0.24453  0.33407  1.0000
  H   H3        1.0  0.71039  0.34172  0.16254  1.0000
  H   H4        1.0  0.7038399999999999  0.31134  0.34347  1.0000
  H   H5        1.0  0.63367  0.3575800000000001  0.25569  1.0000
  H   H6        1.0  0.33656999999999987  0.72317  0.15401  1.0000
  H   H7        1.0  0.4780099999999999  0.69716  0.20537999999999995  1.0000
  H   H8        1.0  0.50728  0.7474300000000003  0.30892  1.0000
  H   H9        1.0  0.38749  0.8152400000000002  0.3575499999999999  1.0000
  H   H10       1.0  0.4423699999999998  0.4213700000000001  0.21378999999999998  1.0000
  H   H11       1.0  0.54152  0.45354  0.12554  1.0000
  H   H12       1.0  0.26065  0.41081  0.20984999999999995  1.0000
  H   H13       1.0  0.1876  0.4304  0.11684999999999997  1.0000
  H   H14       1.0  0.86123  0.88147  0.04999  1.0000
  H   H15       1.0  0.91801  0.73772  0.0259  1.0000
  H   H16       1.0  0.05629000000000008  0.9497200000000001  0.19857999999999998  1.0000
  H   H17       1.0  0.9311999999999999  0.9886000000000003  0.13941  1.0000
  H   H18       1.0  0.21662000000000003  0.3815100000000001  0.8640999999999999  1.0000
  H   H19       1.0  0.20713  0.18990000000000007  0.68529  1.0000
  H   H20       1.0  0.3150699999999999  0.26897  0.8586599999999998  1.0000
  H   H21       1.0  0.3101599999999999  0.16994  0.7670699999999999  1.0000
  H   H22       1.0  0.92792  0.2529  0.46465999999999996  1.0000
  H   H23       1.0  0.8516399999999998  0.38586  0.4652299999999999  1.0000
  H   H24       1.0  0.95487  0.46199  0.63956  1.0000
  H   H25       1.0  0.8666400000000001  0.4932500000000002  0.55453  1.0000
  H   H26       1.0  0.33102  0.12827  0.3521199999999999  1.0000
  H   H27       1.0  0.4565099999999999  0.14725  0.27532  1.0000
  H   H28       1.0  0.6045699999999998  0.09469000000000001  0.29428999999999994  1.0000
  H   H29       1.0  0.2734  0.16254  0.12591  1.0000
  H   H30       1.0  0.1301  0.22228  0.13629  1.0000
  H   H31       1.0  0.20917  0.04573  0.29293  1.0000
  H   H32       1.0  0.31459  0.07218000000000002  0.20653  1.0000
  H   H33       1.0  0.37449  0.96034  0.61003  1.0000
  H   H34       1.0  0.16770000000000002  0.7749400000000001  0.66879  1.0000
  H   H35       1.0  0.28263  0.64658  0.8352999999999999  1.0000
  H   H36       1.0  0.2967799999999999  0.69749  0.6560499999999999  1.0000
  H   H37       1.0  0.36015  0.63637  0.74174  1.0000
  H   H38       1.0  0.66191  0.2767700000000001  0.84716  1.0000
  H   H39       1.0  0.52116  0.30362  0.7956799999999998  1.0000
  H   H40       1.0  0.49131999999999987  0.25255  0.6922  1.0000
  H   H41       1.0  0.611  0.18467  0.64365  1.0000
  H   H42       1.0  0.5594099999999997  0.58306  0.78932  1.0000
  H   H43       1.0  0.45924999999999994  0.5468  0.87725  1.0000
  H   H44       1.0  0.74171  0.5961  0.7933199999999999  1.0000
  H   H45       1.0  0.81414  0.57332  0.88575  1.0000
  H   H46       1.0  0.13780000000000003  0.11608000000000003  0.94986  1.0000
  H   H47       1.0  0.08282999999999999  0.26105  0.9740799999999997  1.0000
  H   H48       1.0  0.9417599999999998  0.04888999999999999  0.8016099999999999  1.0000
  H   H49       1.0  0.06597  0.008749999999999997  0.8607  1.0000
  H   H50       1.0  0.7834199999999999  0.6220500000000001  0.13745  1.0000
  H   H51       1.0  0.7933899999999999  0.8101300000000002  0.31776  1.0000
  H   H52       1.0  0.6840199999999999  0.7337200000000001  0.14443  1.0000
  H   H53       1.0  0.69034  0.8313600000000002  0.23711  1.0000
  H   H54       1.0  0.07592999999999998  0.74735  0.5336  1.0000
  H   H55       1.0  0.14964  0.61282  0.53219  1.0000
  H   H56       1.0  0.04050999999999999  0.53508  0.3589  1.0000
  H   H57       1.0  0.13058999999999996  0.50416  0.4426399999999999  1.0000
  H   H58       1.0  0.6704900000000001  0.8715400000000002  0.64718  1.0000
  H   H59       1.0  0.54568  0.8527300000000001  0.72426  1.0000
  H   H60       1.0  0.39851999999999993  0.9065699999999999  0.7059999999999998  1.0000
  H   H61       1.0  0.73597  0.84679  0.8750999999999998  1.0000
  H   H62       1.0  0.8861799999999999  0.7990900000000002  0.8673799999999998  1.0000
  H   H63       1.0  0.7850599999999998  0.9442100000000001  0.7032899999999999  1.0000
  H   H64       1.0  0.6844099999999997  0.92386  0.79111  1.0000
  C   C1        1.0  0.5618799999999998  0.05776000000000001  0.37925  1.0000
  C   C2        1.0  0.8129  0.26959  0.29754  1.0000
  C   C3        1.0  0.7384399999999998  0.3229  0.20166999999999996  1.0000
  C   C4        1.0  0.73489  0.3056100000000001  0.30231  1.0000
  C   C5        1.0  0.69625  0.33166  0.25347  1.0000
  C   C6        1.0  0.3516599999999999  0.74408  0.19876  1.0000
  C   C7        1.0  0.43005999999999994  0.7294100000000002  0.22771  1.0000
  C   C8        1.0  0.4459500000000001  0.7570300000000002  0.28538  1.0000
  C   C9        1.0  0.38067000000000006  0.7951500000000001  0.31255  1.0000
  C   C10       1.0  0.40708000000000005  0.42909000000000014  0.17435999999999996  1.0000
  C   C11       1.0  0.32420000000000004  0.4489300000000001  0.07239  1.0000
  C   C12       1.0  0.46293999999999996  0.4468000000000001  0.1255  1.0000
  C   C13       1.0  0.30571  0.4224  0.17204999999999998  1.0000
  C   C14       1.0  0.26442  0.4323300000000001  0.12043  1.0000
  C   C15       1.0  0.81983  0.29092  0.20058  1.0000
  C   C16       1.0  0.30258  0.8060000000000002  0.28085  1.0000
  C   C17       1.0  0.9155199999999999  0.8668700000000003  0.07719999999999999  1.0000
  C   C18       1.0  0.9469599999999999  0.7876300000000003  0.06333  1.0000
  C   C19       1.0  0.018039999999999994  0.77191  0.09868  1.0000
  C   C20       1.0  0.024820000000000005  0.90594  0.15967  1.0000
  C   C21       1.0  0.9541199999999997  0.9263700000000002  0.12662  1.0000
  C   C22       1.0  0.16204  0.34551  0.77814  1.0000
  C   C23       1.0  0.21711  0.33816  0.8255599999999998  1.0000
  C   C24       1.0  0.21264  0.23137000000000005  0.7255799999999999  1.0000
  C   C25       1.0  0.27172999999999997  0.27526000000000006  0.82202  1.0000
  C   C26       1.0  0.26926  0.22053000000000006  0.7713299999999998  1.0000
  C   C27       1.0  0.93245  0.30155  0.50198  1.0000
  C   C28       1.0  0.8901399999999999  0.37510000000000004  0.5027199999999998  1.0000
  C   C29       1.0  0.9826699999999999  0.29086  0.55065  1.0000
  C   C30       1.0  0.9481899999999999  0.41901999999999995  0.5996699999999999  1.0000
  C   C31       1.0  0.89846  0.43497  0.55236  1.0000
  C   C32       1.0  0.40934  0.06862  0.40945999999999994  1.0000
  C   C33       1.0  0.39651  0.10786000000000003  0.3581  1.0000
  C   C34       1.0  0.466  0.11815  0.31579  1.0000
  C   C35       1.0  0.54916  0.08982000000000002  0.32636  1.0000
  C   C36       1.0  0.05371000000000008  0.6899000000000002  0.09008  1.0000
  C   C37       1.0  0.22485999999999998  0.83678  0.30475  1.0000
  C   C38       1.0  0.33746  0.03938000000000001  0.45368  1.0000
  C   C39       1.0  0.29349  0.46621000000000007  0.01725  1.0000
  C   C40       1.0  0.03282999999999998  0.22051  0.55568  1.0000
  C   C41       1.0  0.87787  0.28797000000000006  0.15103  1.0000
  C   C42       1.0  0.10083000000000003  0.4068600000000001  0.7757399999999999  1.0000
  C   C43       1.0  0.047189999999999996  0.10612  0.30606  1.0000
  C   C44       1.0  0.23101999999999998  0.15031  0.16468  1.0000
  C   C45       1.0  0.15181  0.18457000000000007  0.1702  1.0000
  C   C46       1.0  0.11779  0.12239000000000001  0.26034  1.0000
  C   C47       1.0  0.19672999999999993  0.08708000000000002  0.25799  1.0000
  C   C48       1.0  0.25455  0.10156  0.20957999999999993  1.0000
  C   C49       1.0  0.44043000000000004  0.9432400000000002  0.62081  1.0000
  C   C50       1.0  0.19400000000000003  0.7440200000000001  0.7041299999999998  1.0000
  C   C51       1.0  0.25865000000000005  0.6730800000000002  0.79734  1.0000
  C   C52       1.0  0.26648  0.7015000000000001  0.69761  1.0000
  C   C53       1.0  0.30126  0.6672  0.74535  1.0000
  C   C54       1.0  0.6470899999999999  0.25606000000000007  0.80238  1.0000
  C   C55       1.0  0.5688  0.27093000000000006  0.7734  1.0000
  C   C56       1.0  0.55265  0.24301000000000006  0.7157799999999997  1.0000
  C   C57       1.0  0.61796  0.20495  0.68863  1.0000
  C   C58       1.0  0.59443  0.5741000000000002  0.8285599999999999  1.0000
  C   C59       1.0  0.67649  0.55122  0.9301099999999999  1.0000
  C   C60       1.0  0.53799  0.5541300000000001  0.87725  1.0000
  C   C61       1.0  0.6960200000000001  0.5820200000000001  0.8309399999999999  1.0000
  C   C62       1.0  0.7369699999999998  0.5702900000000001  0.8822999999999999  1.0000
  C   C63       1.0  0.18165999999999996  0.71128  0.8004999999999999  1.0000
  C   C64       1.0  0.69646  0.19475000000000006  0.72028  1.0000
  C   C65       1.0  0.08388  0.13136  0.9227  1.0000
  C   C66       1.0  0.053470000000000004  0.21129  0.93663  1.0000
  C   C67       1.0  0.9825499999999998  0.22751999999999994  0.9014299999999997  1.0000
  C   C68       1.0  0.9740299999999997  0.09292000000000003  0.84036  1.0000
  C   C69       1.0  0.044300000000000006  0.07177000000000001  0.87343  1.0000
  C   C70       1.0  0.83837  0.6557500000000003  0.22330999999999998  1.0000
  C   C71       1.0  0.78266  0.66429  0.1764  1.0000
  C   C72       1.0  0.7876299999999999  0.7689600000000004  0.27739  1.0000
  C   C73       1.0  0.72769  0.72663  0.18070999999999998  1.0000
  C   C74       1.0  0.7308899999999999  0.7805800000000003  0.23212  1.0000
  C   C75       1.0  0.06954  0.69834  0.49618  1.0000
  C   C76       1.0  0.11033000000000003  0.62381  0.4951  1.0000
  C   C77       1.0  0.01826999999999999  0.70991  0.44806999999999997  1.0000
  C   C78       1.0  0.048760000000000005  0.57886  0.39859  1.0000
  C   C79       1.0  0.09955000000000006  0.5630100000000001  0.44526  1.0000
  C   C80       1.0  0.5928500000000001  0.9328000000000002  0.5903699999999998  1.0000
  C   C81       1.0  0.60554  0.8927800000000002  0.64147  1.0000
  C   C82       1.0  0.53629  0.8824600000000002  0.6839499999999998  1.0000
  C   C83       1.0  0.45352999999999993  0.9113400000000001  0.6737399999999999  1.0000
  C   C84       1.0  0.9468499999999999  0.3093500000000001  0.91054  1.0000
  C   C85       1.0  0.7752199999999998  0.16607000000000002  0.6960299999999998  1.0000
  C   C86       1.0  0.66477  0.9626600000000002  0.54606  1.0000
  C   C87       1.0  0.7067999999999999  0.53265  0.98516  1.0000
  C   C88       1.0  0.9697799999999999  0.78103  0.44308  1.0000
  C   C89       1.0  0.12004000000000004  0.7086000000000001  0.84884  1.0000
  C   C90       1.0  0.89986  0.5955  0.22509999999999994  1.0000
  C   C91       1.0  0.9471699999999998  0.8842900000000002  0.6899  1.0000
  C   C92       1.0  0.77692  0.85733  0.83586  1.0000
  C   C93       1.0  0.8602999999999998  0.83014  0.8319299999999997  1.0000
  C   C94       1.0  0.88517  0.8793400000000001  0.7378499999999999  1.0000
  C   C95       1.0  0.80291  0.9100200000000002  0.73995  1.0000
  C   C96       1.0  0.74762  0.8990600000000002  0.78898  1.0000
  N   N1        1.0  0.059080000000000125  0.8321700000000002  0.14587  1.0000
  N   N2        1.0  0.11864000000000006  0.6776300000000002  0.12810999999999997  1.0000
  N   N3        1.0  0.0817  0.85625  0.30602999999999997  1.0000
  N   N4        1.0  0.13703  0.81628  0.27491  1.0000
  N   N5        1.0  0.2896900000000001  0.7839500000000003  0.22402  1.0000
  N   N6        1.0  0.9745099999999998  0.3293200000000001  0.07991  1.0000
  N   N7        1.0  0.3647699999999999  0.0041299999999999965  0.501  1.0000
  N   N8        1.0  0.9302099999999998  0.22617  0.14856  1.0000
  N   N9        1.0  0.2832399999999999  0.9698600000000002  0.53381  1.0000
  N   N10       1.0  0.08308000000000004  0.5588000000000001  0.06312  1.0000
  N   N11       1.0  0.20886  0.98442  0.5074799999999999  1.0000
  N   N12       1.0  0.13672000000000006  0.8994000000000002  0.35336  1.0000
  N   N13       1.0  0.05536  0.08732000000000002  0.3608799999999999  1.0000
  N   N14       1.0  0.05401000000000003  0.40877000000000013  0.72646  1.0000
  N   N15       1.0  0.8563699999999997  0.26328  0.24793  1.0000
  N   N16       1.0  0.99032  0.25321  0.10342  1.0000
  N   N17       1.0  0.014680000000000007  0.50192  0.7888999999999999  1.0000
  N   N18       1.0  0.91087  0.10696000000000004  0.34561  1.0000
  N   N19       1.0  0.22182000000000002  0.49231000000000025  0.94291  1.0000
  N   N20       1.0  0.9899999999999998  0.3486  0.59932  1.0000
  N   N21       1.0  0.12533  0.15188000000000001  0.59739  1.0000
  N   N22       1.0  0.028770000000000018  0.61546  0.04945  1.0000
  N   N23       1.0  0.07808999999999996  0.46468999999999994  0.8153999999999998  1.0000
  N   N24       1.0  0.9030399999999998  0.3521300000000001  0.10856  1.0000
  N   N25       1.0  0.23949  0.02876  0.45713  1.0000
  N   N26       1.0  0.0005000000000000442  0.4682300000000001  0.73588  1.0000
  N   N27       1.0  0.09491000000000001  0.23024000000000006  0.6009  1.0000
  N   N28       1.0  0.20247  0.45766  0.99603  1.0000
  N   N29       1.0  0.1375  0.59621  0.11021999999999998  1.0000
  N   N30       1.0  0.16064  0.2929  0.7284999999999999  1.0000
  N   N31       1.0  0.08328  0.09685  0.55109  1.0000
  N   N32       1.0  0.02467  0.13785000000000003  0.52362  1.0000
  N   N33       1.0  0.22583999999999999  0.8869200000000002  0.35375  1.0000
  N   N34       1.0  0.36525  0.5012  0.97737  1.0000
  N   N35       1.0  0.9581  0.11655999999999998  0.2960999999999999  1.0000
  N   N36       1.0  0.31898  0.5176900000000001  0.9312  1.0000
  N   N37       1.0  0.9692  0.09000000000000002  0.3844  1.0000
  N   N38       1.0  0.42436  0.4575700000000001  0.07477  1.0000
  N   N39       1.0  0.49452  0.04719999999999999  0.4209599999999999  1.0000
  N   N40       1.0  0.09661  0.17315000000000003  0.21722  1.0000
  N   N41       1.0  0.94109  0.16762000000000005  0.85413  1.0000
  N   N42       1.0  0.8805299999999998  0.32109  0.87324  1.0000
  N   N43       1.0  0.92089  0.15214  0.69336  1.0000
  N   N44       1.0  0.86405  0.18911  0.72527  1.0000
  N   N45       1.0  0.70927  0.21643000000000004  0.7771199999999999  1.0000
  N   N46       1.0  0.02466000000000006  0.6672300000000002  0.9208999999999998  1.0000
  N   N47       1.0  0.6361699999999999  0.9960500000000002  0.49851  1.0000
  N   N48       1.0  0.05773000000000005  0.7605200000000002  0.84838  1.0000
  N   N49       1.0  0.7172699999999997  0.03101  0.46552  1.0000
  N   N50       1.0  0.9170599999999999  0.43966  0.93836  1.0000
  N   N51       1.0  0.79276  0.01868  0.4919799999999999  1.0000
  N   N52       1.0  0.86549  0.10791000000000003  0.64627  1.0000
  N   N53       1.0  0.9444799999999998  0.9149200000000002  0.63672  1.0000
  N   N54       1.0  0.9487099999999998  0.5956700000000001  0.27422  1.0000
  N   N55       1.0  0.15163000000000001  0.74983  0.7543399999999999  1.0000
  N   N56       1.0  0.9992  0.73392  0.89404  1.0000
  N   N57       1.0  0.98605  0.4999300000000001  0.21273  1.0000
  N   N58       1.0  0.0704400000000001  0.8614800000000002  0.64513  1.0000
  N   N59       1.0  0.7780699999999998  0.50579  0.059419999999999994  1.0000
  N   N60       1.0  0.007810000000000075  0.6503900000000002  0.3991799999999999  1.0000
  N   N61       1.0  0.87802  0.85018  0.4003  1.0000
  N   N62       1.0  0.9724499999999998  0.3836500000000001  0.9512699999999997  1.0000
  N   N63       1.0  0.9217299999999998  0.5359500000000001  0.18607  1.0000
  N   N64       1.0  0.10089000000000006  0.6494500000000002  0.8936999999999999  1.0000
  N   N65       1.0  0.7633200000000001  0.9755000000000003  0.54275  1.0000
  N   N66       1.0  0.002090000000000006  0.53579  0.26519999999999994  1.0000
  N   N67       1.0  0.90958  0.77252  0.39701  1.0000
  N   N68       1.0  0.7976599999999999  0.54095  0.0064  1.0000
  N   N69       1.0  0.8614499999999999  0.4021100000000001  0.89164  1.0000
  N   N70       1.0  0.83978  0.7071800000000001  0.27398  1.0000
  N   N71       1.0  0.9173899999999998  0.9036700000000001  0.44729  1.0000
  N   N72       1.0  0.9755799999999999  0.8629100000000001  0.47522  1.0000
  N   N73       1.0  0.77486  0.11699  0.64675  1.0000
  N   N74       1.0  0.63481  0.497  0.02482  1.0000
  N   N75       1.0  0.024420000000000018  0.85127  0.6951299999999999  1.0000
  N   N76       1.0  0.6808  0.48018  0.07097  1.0000
  N   N77       1.0  0.022860000000000002  0.89944  0.61047  1.0000
  N   N78       1.0  0.5764300000000001  0.5422100000000001  0.92772  1.0000
  N   N79       1.0  0.5075499999999998  0.95384  0.5790299999999999  1.0000
  N   N80       1.0  0.9151800000000001  0.8402200000000001  0.7844399999999998  1.0000
