data_image0
_chemical_formula_structural       Zn8H96C136N12O36
_chemical_formula_sum              "Zn8 H96 C136 N12 O36"
_cell_length_a       13.9468
_cell_length_b       16.20085
_cell_length_c       18.20761
_cell_angle_alpha    113.2644
_cell_angle_beta     99.55388
_cell_angle_gamma    99.81255

_symmetry_space_group_name_H-M    'P 1'
_symmetry_Int_Tables_number       1

loop_
  _symmetry_equiv_pos_as_xyz
  'x,y,z'

loop_
  _atom_site_type_symbol
  _atom_site_label
  _atom_site_symmetry_multiplicity
  _atom_site_fract_x
  _atom_site_fract_y
  _atom_site_fract_z
  _atom_site_occupancy
  Zn  Zn1       1.0  0.1595  0.33545  0.85127  1.0000
  Zn  Zn2       1.0  0.8215  0.15847  0.15532  1.0000
  Zn  Zn3       1.0  0.12658999999999998  0.9360800000000001  0.59817  1.0000
  Zn  Zn4       1.0  0.13501999999999995  0.4272299999999999  0.60674  1.0000
  Zn  Zn5       1.0  0.8404800000000001  0.66455  0.14872  1.0000
  Zn  Zn6       1.0  0.17849  0.84152  0.84467  1.0000
  Zn  Zn7       1.0  0.8733999999999997  0.06392  0.40182  1.0000
  Zn  Zn8       1.0  0.8649700000000001  0.57277  0.39325  1.0000
  H   H1        1.0  0.81762  0.39049  0.84928  1.0000
  H   H2        1.0  0.6169999999999998  0.31045  0.61228  1.0000
  H   H3        1.0  0.7653  0.30882  0.54989  1.0000
  H   H4        1.0  0.4547699999999999  0.38213  0.7831  1.0000
  H   H5        1.0  0.6240699999999998  0.1785  0.70509  1.0000
  H   H6        1.0  0.4663199999999999  0.05166  0.66489  1.0000
  H   H7        1.0  0.51725  0.13429  0.20324  1.0000
  H   H8        1.0  0.35932  0.34756  0.27444  1.0000
  H   H9        1.0  0.5237899999999998  0.46923  0.32296  1.0000
  H   H10       1.0  0.14982999999999994  0.11428999999999997  0.14173  1.0000
  H   H11       1.0  0.38291  0.21155  0.3658700000000001  1.0000
  H   H12       1.0  0.24968999999999994  0.19420999999999997  0.44071000000000005  1.0000
  H   H13       1.0  0.20577  0.21403000000000005  0.93797  1.0000
  H   H14       1.0  0.19955999999999996  0.21337999999999993  0.07359  1.0000
  H   H15       1.0  0.0384  0.4277000000000001  0.11348000000000003  1.0000
  H   H16       1.0  0.05492999999999995  0.42125  0.979  1.0000
  H   H17       1.0  0.27771  0.4439400000000001  0.5104800000000003  1.0000
  H   H18       1.0  0.27376  0.45173  0.37564  1.0000
  H   H19       1.0  0.94886  0.3691899999999999  0.31877  1.0000
  H   H20       1.0  0.9662099999999998  0.36094  0.45407  1.0000
  H   H21       1.0  0.17952  0.30326  0.21334  1.0000
  H   H22       1.0  0.048659999999999995  0.26628  0.18029  1.0000
  H   H23       1.0  0.16674999999999998  0.4717799999999999  0.2602  1.0000
  H   H24       1.0  0.03439999999999999  0.43032  0.23367  1.0000
  H   H25       1.0  0.20768  0.48017  0.79737  1.0000
  H   H26       1.0  0.31399  0.64418  0.85456  1.0000
  H   H27       1.0  0.41455999999999993  0.6276799999999998  0.08485  1.0000
  H   H28       1.0  0.30344  0.4655299999999999  0.018750000000000006  1.0000
  H   H29       1.0  0.78433  0.011040000000000008  0.20864  1.0000
  H   H30       1.0  0.68511  0.84473  0.14987000000000006  1.0000
  H   H31       1.0  0.5562899999999998  0.8694899999999998  0.92932  1.0000
  H   H32       1.0  0.6629700000000001  0.03370000000000007  0.9957600000000001  1.0000
  H   H33       1.0  0.4454699999999999  0.78224  0.07732  1.0000
  H   H34       1.0  0.40745999999999993  0.78588  0.98081  1.0000
  H   H35       1.0  0.58071  0.70688  0.02878  1.0000
  H   H36       1.0  0.54201  0.70982  0.93197  1.0000
  H   H37       1.0  0.78516  0.27786  0.06939  1.0000
  H   H38       1.0  0.7982999999999999  0.28371  0.93663  1.0000
  H   H39       1.0  0.95602  0.06684999999999997  0.89513  1.0000
  H   H40       1.0  0.9309199999999997  0.06799  0.02737  1.0000
  H   H41       1.0  0.7249399999999998  0.04620999999999998  0.49226  1.0000
  H   H42       1.0  0.72215  0.040220000000000006  0.62705  1.0000
  H   H43       1.0  0.04721000000000001  0.12841000000000005  0.69407  1.0000
  H   H44       1.0  0.03670999999999997  0.13253999999999994  0.55771  1.0000
  H   H45       1.0  0.81909  0.19782  0.79836  1.0000
  H   H46       1.0  0.9501499999999998  0.22884999999999994  0.83125  1.0000
  H   H47       1.0  0.82268  0.026220000000000025  0.74691  1.0000
  H   H48       1.0  0.9554799999999999  0.06284  0.77438  1.0000
  H   H49       1.0  0.18237  0.60951  0.15072  1.0000
  H   H50       1.0  0.38299  0.68955  0.38772  1.0000
  H   H51       1.0  0.23467999999999994  0.6911799999999998  0.4501100000000001  1.0000
  H   H52       1.0  0.54522  0.61787  0.21689000000000005  1.0000
  H   H53       1.0  0.37592  0.8215  0.29491  1.0000
  H   H54       1.0  0.5336699999999999  0.94834  0.3351100000000001  1.0000
  H   H55       1.0  0.48273999999999984  0.8657  0.79675  1.0000
  H   H56       1.0  0.6406699999999999  0.65243  0.72555  1.0000
  H   H57       1.0  0.4762  0.5307699999999997  0.67703  1.0000
  H   H58       1.0  0.8501599999999998  0.8857  0.85827  1.0000
  H   H59       1.0  0.6170799999999997  0.78844  0.63413  1.0000
  H   H60       1.0  0.7502999999999997  0.80578  0.55928  1.0000
  H   H61       1.0  0.7942199999999998  0.78597  0.06203000000000001  1.0000
  H   H62       1.0  0.80043  0.78662  0.92641  1.0000
  H   H63       1.0  0.96159  0.5723  0.88652  1.0000
  H   H64       1.0  0.9450599999999998  0.57875  0.02099  1.0000
  H   H65       1.0  0.7222799999999997  0.5560599999999998  0.48952  1.0000
  H   H66       1.0  0.72623  0.54827  0.62435  1.0000
  H   H67       1.0  0.05112999999999998  0.6308  0.68123  1.0000
  H   H68       1.0  0.03377999999999997  0.63906  0.54592  1.0000
  H   H69       1.0  0.8204699999999999  0.69674  0.78666  1.0000
  H   H70       1.0  0.95133  0.7337199999999998  0.8197  1.0000
  H   H71       1.0  0.8332300000000001  0.5282200000000001  0.7397900000000002  1.0000
  H   H72       1.0  0.9655899999999998  0.56967  0.7663200000000002  1.0000
  H   H73       1.0  0.79231  0.51983  0.20263  1.0000
  H   H74       1.0  0.6859999999999998  0.35582  0.14544  1.0000
  H   H75       1.0  0.58543  0.37231  0.91515  1.0000
  H   H76       1.0  0.69655  0.53447  0.98124  1.0000
  H   H77       1.0  0.21566000000000007  0.9889500000000002  0.7913600000000002  1.0000
  H   H78       1.0  0.31487000000000004  0.15527  0.85013  1.0000
  H   H79       1.0  0.44369  0.13050999999999993  0.07067  1.0000
  H   H80       1.0  0.33701999999999993  0.9663  0.00423  1.0000
  H   H81       1.0  0.55451  0.21776  0.92268  1.0000
  H   H82       1.0  0.59253  0.21412  0.01918  1.0000
  H   H83       1.0  0.4192799999999999  0.29311999999999994  0.97122  1.0000
  H   H84       1.0  0.4579799999999998  0.29017  0.06802  1.0000
  H   H85       1.0  0.21482999999999994  0.72214  0.93061  1.0000
  H   H86       1.0  0.20168999999999995  0.7162899999999998  0.06337  1.0000
  H   H87       1.0  0.043969999999999995  0.93315  0.10487  1.0000
  H   H88       1.0  0.06906999999999992  0.9320099999999998  0.97263  1.0000
  H   H89       1.0  0.27504000000000006  0.9537900000000001  0.5077400000000002  1.0000
  H   H90       1.0  0.27784  0.9597799999999997  0.3729500000000001  1.0000
  H   H91       1.0  0.9527799999999996  0.87159  0.30592  1.0000
  H   H92       1.0  0.9632799999999999  0.8674499999999998  0.44229  1.0000
  H   H93       1.0  0.1809  0.80218  0.20164  1.0000
  H   H94       1.0  0.04983999999999998  0.77114  0.16875  1.0000
  H   H95       1.0  0.17730999999999994  0.97377  0.25309  1.0000
  H   H96       1.0  0.044509999999999994  0.93715  0.22561  1.0000
  C   C1        1.0  0.87365  0.34757  0.66394  1.0000
  C   C2        1.0  0.8884299999999999  0.3692999999999999  0.74857  1.0000
  C   C3        1.0  0.80617  0.3717199999999999  0.78355  1.0000
  C   C4        1.0  0.7096199999999999  0.35104  0.73425  1.0000
  C   C5        1.0  0.6930399999999998  0.3263700000000001  0.6495400000000002  1.0000
  C   C6        1.0  0.7753599999999998  0.3252  0.61518  1.0000
  C   C7        1.0  0.9587199999999997  0.3550699999999999  0.62405  1.0000
  C   C8        1.0  0.98922  0.38535  0.80408  1.0000
  C   C9        1.0  0.3732299999999999  0.14517  0.70159  1.0000
  C   C10       1.0  0.37027  0.23916000000000004  0.737  1.0000
  C   C11       1.0  0.45746  0.30971  0.75818  1.0000
  C   C12       1.0  0.5478199999999998  0.28747999999999996  0.7462  1.0000
  C   C13       1.0  0.55301  0.19470999999999988  0.71362  1.0000
  C   C14       1.0  0.4653899999999999  0.12455999999999996  0.69137  1.0000
  C   C15       1.0  0.27953  0.06800000000000002  0.66866  1.0000
  C   C16       1.0  0.27935  0.27122  0.75915  1.0000
  C   C17       1.0  0.6121399999999999  0.37034  0.2898000000000001  1.0000
  C   C18       1.0  0.61087  0.27536  0.25473  1.0000
  C   C19       1.0  0.51937  0.20788  0.22853000000000007  1.0000
  C   C20       1.0  0.4301099999999999  0.23429  0.23542  1.0000
  C   C21       1.0  0.42982  0.3283399999999999  0.26941  1.0000
  C   C22       1.0  0.52107  0.3954799999999999  0.2963  1.0000
  C   C23       1.0  0.7093299999999998  0.44366  0.3244  1.0000
  C   C24       1.0  0.7017499999999998  0.23889  0.23955000000000007  1.0000
  C   C25       1.0  0.12628000000000006  0.14889000000000005  0.33484000000000014  1.0000
  C   C26       1.0  0.09794999999999998  0.12768999999999994  0.25019  1.0000
  C   C27       1.0  0.17161999999999994  0.13268  0.20750000000000005  1.0000
  C   C28       1.0  0.27326999999999996  0.1632  0.24929  1.0000
  C   C29       1.0  0.3032799999999999  0.18765999999999994  0.334  1.0000
  C   C30       1.0  0.22925999999999996  0.17888999999999994  0.37545  1.0000
  C   C31       1.0  0.05147999999999997  0.13386  0.38189  1.0000
  C   C32       1.0  0.9913199999999998  0.10556999999999997  0.20114  1.0000
  C   C33       1.0  0.1699000000000001  0.2601700000000001  0.9792900000000002  1.0000
  C   C34       1.0  0.16523  0.25993  0.05482  1.0000
  C   C35       1.0  0.11808999999999997  0.32036  0.10659  1.0000
  C   C36       1.0  0.07622999999999994  0.37817999999999985  0.07795  1.0000
  C   C37       1.0  0.08476999999999997  0.37567  0.00222  1.0000
  C   C38       1.0  0.20695999999999995  0.42781  0.46569  1.0000
  C   C39       1.0  0.20365999999999995  0.43186999999999987  0.39067  1.0000
  C   C40       1.0  0.11054  0.41212000000000004  0.3356600000000001  1.0000
  C   C41       1.0  0.02358999999999999  0.38608  0.35871  1.0000
  C   C42       1.0  0.03184  0.38233  0.43441  1.0000
  C   C43       1.0  0.11328999999999997  0.32191  0.18894  1.0000
  C   C44       1.0  0.10522999999999998  0.41502  0.25366  1.0000
  C   C45       1.0  0.25527999999999995  0.5158899999999997  0.86038  1.0000
  C   C46       1.0  0.3152999999999999  0.60623  0.89248  1.0000
  C   C47       1.0  0.37377  0.64909  0.97456  1.0000
  C   C48       1.0  0.3703299999999998  0.5976599999999997  0.02092  1.0000
  C   C49       1.0  0.30893999999999994  0.50738  0.98453  1.0000
  C   C50       1.0  0.73248  0.9768499999999998  0.14731  1.0000
  C   C51       1.0  0.67614  0.88506  0.11454  1.0000
  C   C52       1.0  0.61164  0.8439099999999998  0.03478  1.0000
  C   C53       1.0  0.60559  0.8983899999999998  0.9913900000000001  1.0000
  C   C54       1.0  0.6642699999999999  0.9896599999999998  0.028  1.0000
  C   C55       1.0  0.44000999999999985  0.7463799999999998  0.01084  1.0000
  C   C56       1.0  0.54733  0.74575  0.9984600000000001  1.0000
  C   C57       1.0  0.8211  0.23203999999999994  0.02802  1.0000
  C   C58       1.0  0.8293  0.23472999999999994  0.95404  1.0000
  C   C59       1.0  0.8762099999999998  0.17411999999999997  0.90234  1.0000
  C   C60       1.0  0.9159299999999998  0.11456000000000001  0.93017  1.0000
  C   C61       1.0  0.9035799999999998  0.11482  0.00449  1.0000
  C   C62       1.0  0.79407  0.06448000000000005  0.53947  1.0000
  C   C63       1.0  0.79361  0.06195000000000005  0.61469  1.0000
  C   C64       1.0  0.88489  0.08439999999999995  0.67284  1.0000
  C   C65       1.0  0.9736799999999998  0.11073000000000001  0.65223  1.0000
  C   C66       1.0  0.96939  0.11238  0.57603  1.0000
  C   C67       1.0  0.88289  0.17505999999999988  0.8211  1.0000
  C   C68       1.0  0.8868399999999999  0.08135000000000003  0.75451  1.0000
  C   C69       1.0  0.12633999999999998  0.6524199999999999  0.33606  1.0000
  C   C70       1.0  0.11155999999999995  0.6306999999999998  0.25143  1.0000
  C   C71       1.0  0.19381999999999996  0.62827  0.21645  1.0000
  C   C72       1.0  0.29037  0.64895  0.26575  1.0000
  C   C73       1.0  0.30695  0.67363  0.35046  1.0000
  C   C74       1.0  0.22462999999999997  0.67479  0.38482  1.0000
  C   C75       1.0  0.04126999999999998  0.6449299999999998  0.3759400000000001  1.0000
  C   C76       1.0  0.010769999999999988  0.61464  0.19592  1.0000
  C   C77       1.0  0.62676  0.8548299999999998  0.29841  1.0000
  C   C78       1.0  0.6297199999999997  0.7608299999999998  0.2629900000000001  1.0000
  C   C79       1.0  0.54253  0.69029  0.24181  1.0000
  C   C80       1.0  0.4521699999999999  0.71252  0.25379  1.0000
  C   C81       1.0  0.4469799999999999  0.80529  0.28638  1.0000
  C   C82       1.0  0.5345999999999999  0.8754400000000001  0.30862  1.0000
  C   C83       1.0  0.72046  0.932  0.33134  1.0000
  C   C84       1.0  0.7206399999999997  0.7287699999999998  0.24085  1.0000
  C   C85       1.0  0.38784999999999986  0.62965  0.7102  1.0000
  C   C86       1.0  0.3891199999999999  0.72464  0.74527  1.0000
  C   C87       1.0  0.48061999999999994  0.79212  0.77147  1.0000
  C   C88       1.0  0.56987  0.7657  0.76457  1.0000
  C   C89       1.0  0.57017  0.67166  0.73059  1.0000
  C   C90       1.0  0.4789199999999999  0.6045100000000001  0.7037000000000002  1.0000
  C   C91       1.0  0.29066  0.55634  0.67559  1.0000
  C   C92       1.0  0.29824000000000006  0.7611100000000001  0.7604500000000002  1.0000
  C   C93       1.0  0.8737099999999998  0.8511  0.66516  1.0000
  C   C94       1.0  0.9020399999999998  0.87231  0.74981  1.0000
  C   C95       1.0  0.82837  0.86732  0.79249  1.0000
  C   C96       1.0  0.7267199999999998  0.83679  0.7507  1.0000
  C   C97       1.0  0.69671  0.81234  0.66599  1.0000
  C   C98       1.0  0.77073  0.8211  0.62454  1.0000
  C   C99       1.0  0.9485099999999997  0.8661300000000002  0.6181100000000003  1.0000
  C   C100      1.0  0.00867  0.89443  0.7988500000000002  1.0000
  C   C101      1.0  0.8300899999999999  0.7398299999999998  0.02071  1.0000
  C   C102      1.0  0.83476  0.74007  0.94517  1.0000
  C   C103      1.0  0.8819  0.6796399999999998  0.89341  1.0000
  C   C104      1.0  0.9237599999999998  0.62181  0.92205  1.0000
  C   C105      1.0  0.9152199999999997  0.6243299999999998  0.9977699999999999  1.0000
  C   C106      1.0  0.7930299999999998  0.57219  0.5343  1.0000
  C   C107      1.0  0.79633  0.56813  0.60933  1.0000
  C   C108      1.0  0.88945  0.58788  0.66433  1.0000
  C   C109      1.0  0.9763999999999999  0.61391  0.64128  1.0000
  C   C110      1.0  0.96815  0.6176699999999998  0.56558  1.0000
  C   C111      1.0  0.8866999999999999  0.67809  0.81106  1.0000
  C   C112      1.0  0.89476  0.58497  0.74634  1.0000
  C   C113      1.0  0.7447099999999999  0.4841099999999999  0.13961  1.0000
  C   C114      1.0  0.68468  0.39376  0.10752  1.0000
  C   C115      1.0  0.6262199999999999  0.35091  0.02544  1.0000
  C   C116      1.0  0.62965  0.40233999999999986  0.97908  1.0000
  C   C117      1.0  0.69105  0.49262  0.01546  1.0000
  C   C118      1.0  0.2675099999999999  0.02313999999999998  0.85269  1.0000
  C   C119      1.0  0.3238399999999999  0.11493999999999999  0.88545  1.0000
  C   C120      1.0  0.38835  0.15609000000000003  0.96522  1.0000
  C   C121      1.0  0.3944  0.10159999999999998  0.0086  1.0000
  C   C122      1.0  0.33571  0.010340000000000031  0.972  1.0000
  C   C123      1.0  0.55998  0.25361  0.98915  1.0000
  C   C124      1.0  0.45266  0.25424999999999986  0.00154  1.0000
  C   C125      1.0  0.17888999999999997  0.7679599999999998  0.97198  1.0000
  C   C126      1.0  0.17068999999999998  0.7652699999999998  0.04596  1.0000
  C   C127      1.0  0.12376999999999995  0.82587  0.09766000000000002  1.0000
  C   C128      1.0  0.08405999999999994  0.8854299999999998  0.06982  1.0000
  C   C129      1.0  0.09640999999999998  0.8851799999999997  0.9955000000000002  1.0000
  C   C130      1.0  0.20591999999999994  0.93552  0.46052  1.0000
  C   C131      1.0  0.20637999999999995  0.9380499999999998  0.3853  1.0000
  C   C132      1.0  0.11509999999999998  0.91559  0.32715  1.0000
  C   C133      1.0  0.026310000000000014  0.88927  0.34777000000000013  1.0000
  C   C134      1.0  0.030600000000000037  0.8876099999999999  0.42397  1.0000
  C   C135      1.0  0.11709999999999995  0.8249399999999999  0.1789  1.0000
  C   C136      1.0  0.11313999999999994  0.9186499999999999  0.24549  1.0000
  N   N1        1.0  0.13142  0.31807  0.95329  1.0000
  N   N2        1.0  0.12228  0.40428  0.48793  1.0000
  N   N3        1.0  0.25223999999999996  0.46716999999999986  0.90572  1.0000
  N   N4        1.0  0.72682  0.02837  0.10466  1.0000
  N   N5        1.0  0.85585  0.17179  0.05269  1.0000
  N   N6        1.0  0.8806499999999999  0.08849999999999994  0.51984  1.0000
  N   N7        1.0  0.8685599999999998  0.68192  0.0467  1.0000
  N   N8        1.0  0.87771  0.59571  0.51207  1.0000
  N   N9        1.0  0.74775  0.53283  0.09428  1.0000
  N   N10       1.0  0.27317  0.97163  0.8953400000000002  1.0000
  N   N11       1.0  0.14413999999999993  0.82821  0.94731  1.0000
  N   N12       1.0  0.11934  0.9115  0.48016  1.0000
  O   O1        1.0  0.04306999999999994  0.41653  0.67317  1.0000
  O   O2        1.0  0.94538  0.3091  0.54821  1.0000
  O   O3        1.0  0.029869999999999973  0.3164599999999999  0.77801  1.0000
  O   O4        1.0  0.02321999999999999  0.45685  0.87127  1.0000
  O   O5        1.0  0.28539999999999993  0.9836600000000001  0.64877  1.0000
  O   O6        1.0  0.19409999999999994  0.08555  0.65665  1.0000
  O   O7        1.0  0.24261999999999995  0.31934  0.72935  1.0000
  O   O8        1.0  0.25214  0.2539500000000001  0.8181700000000002  1.0000
  O   O9        1.0  0.6314199999999998  0.3624199999999999  0.77336  1.0000
  O   O10       1.0  0.7086799999999998  0.52978  0.34754  1.0000
  O   O11       1.0  0.79205  0.4210799999999999  0.33339  1.0000
  O   O12       1.0  0.73287  0.2457  0.17775  1.0000
  O   O13       1.0  0.7344499999999999  0.19633999999999988  0.27759  1.0000
  O   O14       1.0  0.96015  0.08503  0.3359  1.0000
  O   O15       1.0  0.07767999999999997  0.16304  0.45833  1.0000
  O   O16       1.0  0.9517399999999999  0.17547999999999994  0.22575  1.0000
  O   O17       1.0  0.9530699999999999  0.029769999999999984  0.13836  1.0000
  O   O18       1.0  0.3414699999999999  0.16319  0.2014  1.0000
  O   O19       1.0  0.9569200000000001  0.58346  0.3268200000000001  1.0000
  O   O20       1.0  0.05460999999999996  0.6909  0.45179  1.0000
  O   O21       1.0  0.9701099999999998  0.6835399999999999  0.22199000000000005  1.0000
  O   O22       1.0  0.97677  0.54314  0.12873  1.0000
  O   O23       1.0  0.7145899999999998  0.016339999999999997  0.35123  1.0000
  O   O24       1.0  0.80589  0.91445  0.34334  1.0000
  O   O25       1.0  0.7573699999999997  0.6806599999999998  0.27064  1.0000
  O   O26       1.0  0.7478499999999999  0.74605  0.18182  1.0000
  O   O27       1.0  0.36857  0.6375799999999998  0.22664  1.0000
  O   O28       1.0  0.29131  0.47022  0.65246  1.0000
  O   O29       1.0  0.20794  0.57891  0.6666  1.0000
  O   O30       1.0  0.26711  0.7543  0.8222500000000003  1.0000
  O   O31       1.0  0.26553999999999994  0.8036599999999998  0.72241  1.0000
  O   O32       1.0  0.039830000000000004  0.91496  0.6641  1.0000
  O   O33       1.0  0.92231  0.83695  0.54166  1.0000
  O   O34       1.0  0.048249999999999925  0.8245099999999997  0.77424  1.0000
  O   O35       1.0  0.04691999999999996  0.9702199999999997  0.86164  1.0000
  O   O36       1.0  0.6585199999999999  0.8368099999999998  0.79859  1.0000
