data_image0
_chemical_formula_structural       Cd4H168C152N16O32
_chemical_formula_sum              "Cd4 H168 C152 N16 O32"
_cell_length_a       13.57764
_cell_length_b       15.13523
_cell_length_c       19.49454
_cell_angle_alpha    90.03725
_cell_angle_beta     90.13303
_cell_angle_gamma    89.96724

_symmetry_space_group_name_H-M    'P 1'
_symmetry_Int_Tables_number       1

loop_
  _symmetry_equiv_pos_as_xyz
  'x,y,z'

loop_
  _atom_site_type_symbol
  _atom_site_label
  _atom_site_symmetry_multiplicity
  _atom_site_fract_x
  _atom_site_fract_y
  _atom_site_fract_z
  _atom_site_occupancy
  Cd  Cd1       1.0  0.69302  0.86202  0.03378  1.0000
  Cd  Cd2       1.0  0.8077499999999997  0.13635  0.5347400000000001  1.0000
  Cd  Cd3       1.0  0.3073599999999999  0.36281  0.46499000000000007  1.0000
  Cd  Cd4       1.0  0.19233  0.63562  0.9645300000000001  1.0000
  H   H1        1.0  0.73477  0.9636399999999998  0.89474  1.0000
  H   H2        1.0  0.6603499999999998  0.9138999999999999  0.30056  1.0000
  H   H3        1.0  0.54583  0.77191  0.36261000000000004  1.0000
  H   H4        1.0  0.75871  0.8226399999999999  0.89401  1.0000
  H   H5        1.0  0.91291  0.78315  0.9459600000000001  1.0000
  H   H6        1.0  0.07235999999999998  0.87685  0.09372000000000001  1.0000
  H   H7        1.0  0.8798099999999998  0.9515599999999997  0.76755  1.0000
  H   H8        1.0  0.95871  0.89408  0.6606800000000002  1.0000
  H   H9        1.0  0.12301  0.9454299999999998  0.9854800000000001  1.0000
  H   H10       1.0  0.82501  0.68501  0.9017900000000001  1.0000
  H   H11       1.0  0.97251  0.59448  0.67844  1.0000
  H   H12       1.0  0.0092  0.02563  0.07038  1.0000
  H   H13       1.0  0.9984299999999999  0.06545  0.98529  1.0000
  H   H14       1.0  0.8397  0.014009999999999998  0.9719700000000001  1.0000
  H   H15       1.0  0.83681  0.003  0.06246  1.0000
  H   H16       1.0  0.69568  0.69192  0.37768  1.0000
  H   H17       1.0  0.9893699999999999  0.9562899999999998  0.89047  1.0000
  H   H18       1.0  0.04721  0.8516599999999998  0.89666  1.0000
  H   H19       1.0  0.66353  0.9438499999999997  0.17422000000000004  1.0000
  H   H20       1.0  0.80577  0.5358  0.10449  1.0000
  H   H21       1.0  0.7738499999999998  0.61071  0.31572000000000006  1.0000
  H   H22       1.0  0.9301999999999999  0.4810799999999999  0.76706  1.0000
  H   H23       1.0  0.75019  0.68507  0.06702  1.0000
  H   H24       1.0  0.90266  0.86597  0.11073000000000001  1.0000
  H   H25       1.0  0.9069299999999998  0.769  0.05938  1.0000
  H   H26       1.0  0.83532  0.47182  0.98357  1.0000
  H   H27       1.0  0.90319  0.5737199999999998  0.97674  1.0000
  H   H28       1.0  0.7729899999999997  0.5723  0.9597200000000001  1.0000
  H   H29       1.0  0.8892299999999997  0.39604  0.29273000000000005  1.0000
  H   H30       1.0  0.9191799999999998  0.5097  0.30999  1.0000
  H   H31       1.0  0.7992899999999997  0.4672099999999999  0.33068  1.0000
  H   H32       1.0  0.76632  0.8815599999999998  0.39294000000000007  1.0000
  H   H33       1.0  0.7147099999999997  0.7442999999999999  0.49934  1.0000
  H   H34       1.0  0.70899  0.8600299999999997  0.50483  1.0000
  H   H35       1.0  0.016570000000000005  0.8314099999999998  0.4067  1.0000
  H   H36       1.0  0.9295999999999998  0.91365  0.38317  1.0000
  H   H37       1.0  0.84494  0.6511599999999997  0.41222000000000003  1.0000
  H   H38       1.0  0.9706799999999998  0.67926  0.4057  1.0000
  H   H39       1.0  0.98046  0.71324  0.52414  1.0000
  H   H40       1.0  0.86415  0.6616999999999997  0.53197  1.0000
  H   H41       1.0  0.8492099999999998  0.8127899999999998  0.57748  1.0000
  H   H42       1.0  0.9930599999999998  0.8754399999999998  0.52072  1.0000
  H   H43       1.0  0.7607699999999997  0.03179  0.39465  1.0000
  H   H44       1.0  0.84026  0.08575  0.80227  1.0000
  H   H45       1.0  0.9542  0.22661  0.86348  1.0000
  H   H46       1.0  0.7408699999999998  0.17299999999999996  0.39408000000000004  1.0000
  H   H47       1.0  0.5865399999999998  0.21554999999999994  0.44615000000000005  1.0000
  H   H48       1.0  0.4275499999999999  0.12013999999999997  0.59384  1.0000
  H   H49       1.0  0.61787  0.047439999999999996  0.26653  1.0000
  H   H50       1.0  0.53987  0.10696  0.15991  1.0000
  H   H51       1.0  0.3767099999999999  0.052249999999999984  0.48524  1.0000
  H   H52       1.0  0.6747199999999999  0.3117199999999999  0.40354  1.0000
  H   H53       1.0  0.52738  0.40633999999999987  0.18075000000000002  1.0000
  H   H54       1.0  0.49095  0.9714299999999999  0.56928  1.0000
  H   H55       1.0  0.50275  0.93323  0.48378000000000004  1.0000
  H   H56       1.0  0.66132  0.98492  0.47287  1.0000
  H   H57       1.0  0.66278  0.99647  0.56333  1.0000
  H   H58       1.0  0.80345  0.30779  0.8789  1.0000
  H   H59       1.0  0.50983  0.04281999999999999  0.39022  1.0000
  H   H60       1.0  0.4515699999999999  0.14718  0.39694  1.0000
  H   H61       1.0  0.8372799999999998  0.055109999999999985  0.67596  1.0000
  H   H62       1.0  0.6949  0.4627799999999999  0.6048000000000001  1.0000
  H   H63       1.0  0.7266  0.38895  0.81627  1.0000
  H   H64       1.0  0.57006  0.51802  0.27087  1.0000
  H   H65       1.0  0.75097  0.31353  0.56779  1.0000
  H   H66       1.0  0.5971499999999997  0.13252999999999995  0.61103  1.0000
  H   H67       1.0  0.59187  0.22961  0.56004  1.0000
  H   H68       1.0  0.6662099999999997  0.52469  0.48685  1.0000
  H   H69       1.0  0.59826  0.4228499999999999  0.48039  1.0000
  H   H70       1.0  0.7281599999999998  0.4242899999999999  0.46268  1.0000
  H   H71       1.0  0.6102699999999998  0.6040899999999998  0.79147  1.0000
  H   H72       1.0  0.57973  0.4906599999999999  0.809  1.0000
  H   H73       1.0  0.6994199999999996  0.5331899999999998  0.83084  1.0000
  H   H74       1.0  0.7337299999999999  0.11772999999999999  0.8933  1.0000
  H   H75       1.0  0.7846599999999998  0.25487  0.00032  1.0000
  H   H76       1.0  0.7913099999999997  0.13914  0.00538  1.0000
  H   H77       1.0  0.4835599999999999  0.16764  0.906  1.0000
  H   H78       1.0  0.57033  0.08572999999999997  0.88185  1.0000
  H   H79       1.0  0.65437  0.34803  0.91346  1.0000
  H   H80       1.0  0.52886  0.31948  0.90614  1.0000
  H   H81       1.0  0.51871  0.28415  0.02424  1.0000
  H   H82       1.0  0.6346  0.33619  0.03311  1.0000
  H   H83       1.0  0.65035  0.18442  0.07747  1.0000
  H   H84       1.0  0.50711  0.12175999999999997  0.019500000000000003  1.0000
  H   H85       1.0  0.26545  0.46417  0.60528  1.0000
  H   H86       1.0  0.3401599999999999  0.41399999999999987  0.1979  1.0000
  H   H87       1.0  0.4550599999999999  0.2732  0.13605  1.0000
  H   H88       1.0  0.24258999999999997  0.32314999999999994  0.60575  1.0000
  H   H89       1.0  0.08776999999999997  0.28352  0.5538500000000001  1.0000
  H   H90       1.0  0.9287399999999998  0.3781899999999999  0.40684  1.0000
  H   H91       1.0  0.12411999999999998  0.4502599999999999  0.73403  1.0000
  H   H92       1.0  0.04280999999999999  0.39222  0.8397400000000002  1.0000
  H   H93       1.0  0.87769  0.44547  0.5155900000000001  1.0000
  H   H94       1.0  0.17404999999999995  0.18572  0.59643  1.0000
  H   H95       1.0  0.028939999999999997  0.09286  0.8198200000000001  1.0000
  H   H96       1.0  0.99076  0.5265  0.43095  1.0000
  H   H97       1.0  0.0020199999999999992  0.56571  0.51625  1.0000
  H   H98       1.0  0.16115999999999997  0.51472  0.52843  1.0000
  H   H99       1.0  0.16314999999999993  0.50365  0.43802  1.0000
  H   H100      1.0  0.30534  0.19153999999999993  0.12108  1.0000
  H   H101      1.0  0.0124  0.45659999999999995  0.61016  1.0000
  H   H102      1.0  0.9543099999999998  0.3521199999999999  0.60443  1.0000
  H   H103      1.0  0.33595  0.4445999999999999  0.32410000000000005  1.0000
  H   H104      1.0  0.19375999999999993  0.03716  0.39449  1.0000
  H   H105      1.0  0.22901  0.10999  0.18320000000000003  1.0000
  H   H106      1.0  0.07334999999999997  0.98019  0.73093  1.0000
  H   H107      1.0  0.25108  0.18584999999999993  0.4317  1.0000
  H   H108      1.0  0.09815999999999997  0.36694  0.38962  1.0000
  H   H109      1.0  0.09439999999999997  0.2698099999999999  0.44073  1.0000
  H   H110      1.0  0.16401  0.9735099999999998  0.51325  1.0000
  H   H111      1.0  0.09636  0.07545  0.52108  1.0000
  H   H112      1.0  0.22659999999999994  0.07355999999999997  0.53768  1.0000
  H   H113      1.0  0.1097  0.8964199999999999  0.20722000000000002  1.0000
  H   H114      1.0  0.08003  0.0102  0.19013  1.0000
  H   H115      1.0  0.19934  0.9670599999999998  0.1685  1.0000
  H   H116      1.0  0.23445999999999997  0.38106  0.10589  1.0000
  H   H117      1.0  0.28604999999999997  0.24392999999999995  0.9992400000000001  1.0000
  H   H118      1.0  0.29131  0.35965999999999987  0.99394  1.0000
  H   H119      1.0  0.98437  0.3298999999999999  0.09263  1.0000
  H   H120      1.0  0.07031  0.4125999999999999  0.11683  1.0000
  H   H121      1.0  0.15592999999999999  0.15046  0.08675000000000001  1.0000
  H   H122      1.0  0.030409999999999993  0.17889999999999995  0.09364  1.0000
  H   H123      1.0  0.019899999999999998  0.21290999999999993  0.9752700000000001  1.0000
  H   H124      1.0  0.13621  0.16124  0.967  1.0000
  H   H125      1.0  0.15064999999999998  0.3125599999999999  0.92178  1.0000
  H   H126      1.0  0.007419999999999999  0.37551  0.97909  1.0000
  H   H127      1.0  0.23888999999999994  0.5319099999999998  0.10532000000000001  1.0000
  H   H128      1.0  0.15838999999999995  0.58561  0.6969600000000001  1.0000
  H   H129      1.0  0.04498  0.73016  0.6363400000000001  1.0000
  H   H130      1.0  0.2582  0.67274  0.10539  1.0000
  H   H131      1.0  0.4124299999999999  0.7156499999999998  0.053430000000000005  1.0000
  H   H132      1.0  0.57102  0.6192199999999998  0.90562  1.0000
  H   H133      1.0  0.3767799999999999  0.5480699999999997  0.23347000000000004  1.0000
  H   H134      1.0  0.45621  0.60587  0.34028  1.0000
  H   H135      1.0  0.6231899999999999  0.55301  0.014620000000000001  1.0000
  H   H136      1.0  0.32697  0.8138299999999999  0.09683  1.0000
  H   H137      1.0  0.4713  0.9048599999999998  0.32153  1.0000
  H   H138      1.0  0.50973  0.4713199999999999  0.93068  1.0000
  H   H139      1.0  0.4979899999999999  0.43330999999999986  0.01616  1.0000
  H   H140      1.0  0.33868  0.4840699999999999  0.026490000000000003  1.0000
  H   H141      1.0  0.33796999999999994  0.49615  0.93611  1.0000
  H   H142      1.0  0.19743  0.8092299999999998  0.6218700000000001  1.0000
  H   H143      1.0  0.4905599999999999  0.5436799999999998  0.10977  1.0000
  H   H144      1.0  0.54785  0.64832  0.10261  1.0000
  H   H145      1.0  0.16099  0.5546199999999998  0.82312  1.0000
  H   H146      1.0  0.31048  0.9597299999999997  0.89546  1.0000
  H   H147      1.0  0.27283  0.8883299999999997  0.68391  1.0000
  H   H148      1.0  0.42641  0.01832  0.23338  1.0000
  H   H149      1.0  0.25115  0.8114799999999999  0.93211  1.0000
  H   H150      1.0  0.40163  0.6326199999999997  0.8888100000000001  1.0000
  H   H151      1.0  0.40705  0.72937  0.9404000000000001  1.0000
  H   H152      1.0  0.33541  0.027309999999999994  0.01579  1.0000
  H   H153      1.0  0.40339  0.92548  0.02279  1.0000
  H   H154      1.0  0.27318  0.92688  0.03923  1.0000
  H   H155      1.0  0.39366  0.10026999999999997  0.70785  1.0000
  H   H156      1.0  0.41993999999999987  0.9863599999999998  0.68853  1.0000
  H   H157      1.0  0.30043  0.03201  0.6701800000000001  1.0000
  H   H158      1.0  0.26463999999999993  0.6187799999999999  0.60556  1.0000
  H   H159      1.0  0.21403999999999995  0.75662  0.4990600000000001  1.0000
  H   H160      1.0  0.20721999999999996  0.6409499999999998  0.49354000000000003  1.0000
  H   H161      1.0  0.5151299999999999  0.6684499999999998  0.5929100000000002  1.0000
  H   H162      1.0  0.42863  0.5863299999999998  0.6169800000000001  1.0000
  H   H163      1.0  0.34496  0.84905  0.58622  1.0000
  H   H164      1.0  0.4702499999999999  0.8197799999999997  0.59356  1.0000
  H   H165      1.0  0.48041999999999996  0.78489  0.47531  1.0000
  H   H166      1.0  0.36496999999999996  0.8376999999999998  0.46652  1.0000
  H   H167      1.0  0.34826  0.68614  0.42177  1.0000
  H   H168      1.0  0.4910899999999999  0.62251  0.47946  1.0000
  C   C1        1.0  0.68175  0.8619199999999998  0.26503000000000004  1.0000
  C   C2        1.0  0.8235699999999998  0.8624899999999998  0.8799500000000001  1.0000
  C   C3        1.0  0.8994199999999998  0.85391  0.9388500000000001  1.0000
  C   C4        1.0  0.70511  0.7789  0.29014  1.0000
  C   C5        1.0  0.9275499999999998  0.7049099999999998  0.74101  1.0000
  C   C6        1.0  0.03527  0.8542699999999998  0.04681  1.0000
  C   C7        1.0  0.73133  0.73458  0.17047  1.0000
  C   C8        1.0  0.86737  0.8245399999999998  0.8144800000000001  1.0000
  C   C9        1.0  0.8846999999999999  0.73198  0.805  1.0000
  C   C10       1.0  0.8934599999999999  0.88132  0.7619000000000001  1.0000
  C   C11       1.0  0.93772  0.8489199999999998  0.70177  1.0000
  C   C12       1.0  0.04508999999999999  0.9284599999999997  0.99222  1.0000
  C   C13       1.0  0.86119  0.66617  0.8544100000000001  1.0000
  C   C14       1.0  0.9421199999999997  0.6135  0.7278900000000001  1.0000
  C   C15       1.0  0.9858399999999998  0.00785  0.01819  1.0000
  C   C16       1.0  0.87578  0.98273  0.01577  1.0000
  C   C17       1.0  0.6928299999999997  0.76327  0.36667  1.0000
  C   C18       1.0  0.8807099999999999  0.57795  0.84085  1.0000
  C   C19       1.0  0.7350399999999998  0.7127  0.24223  1.0000
  C   C20       1.0  0.9993399999999999  0.89841  0.9238400000000001  1.0000
  C   C21       1.0  0.68301  0.87908  0.1945  1.0000
  C   C22       1.0  0.7857099999999998  0.5862799999999998  0.14166  1.0000
  C   C23       1.0  0.7681  0.62709  0.26174  1.0000
  C   C24       1.0  0.91937  0.55121  0.7765400000000002  1.0000
  C   C25       1.0  0.75579  0.66893  0.12135000000000001  1.0000
  C   C26       1.0  0.7940799999999998  0.56543  0.21244000000000002  1.0000
  C   C27       1.0  0.9240599999999998  0.8396999999999999  0.06047  1.0000
  C   C28       1.0  0.09007  0.7725  0.02226  1.0000
  C   C29       1.0  0.8419499999999998  0.53441  0.9557200000000001  1.0000
  C   C30       1.0  0.8606399999999997  0.4636699999999999  0.29426  1.0000
  C   C31       1.0  0.7722399999999998  0.8120099999999998  0.40833  1.0000
  C   C32       1.0  0.75479  0.80528  0.48673  1.0000
  C   C33       1.0  0.9408299999999998  0.8545699999999998  0.41471  1.0000
  C   C34       1.0  0.8996099999999998  0.70154  0.42615  1.0000
  C   C35       1.0  0.9042699999999999  0.71449  0.50531  1.0000
  C   C36       1.0  0.85614  0.8038  0.52196  1.0000
  C   C37       1.0  0.9233099999999999  0.8773099999999998  0.4918  1.0000
  C   C38       1.0  0.8796499999999998  0.9688399999999998  0.50467  1.0000
  C   C39       1.0  0.81901  0.13754  0.7664700000000001  1.0000
  C   C40       1.0  0.6746899999999999  0.13477  0.3801  1.0000
  C   C41       1.0  0.5996599999999997  0.1447  0.43917000000000006  1.0000
  C   C42       1.0  0.79558  0.22066999999999995  0.79131  1.0000
  C   C43       1.0  0.57193  0.2947599999999999  0.24221  1.0000
  C   C44       1.0  0.46420999999999996  0.14348  0.54711  1.0000
  C   C45       1.0  0.76943  0.26435  0.67142  1.0000
  C   C46       1.0  0.6312599999999998  0.1737  0.31473  1.0000
  C   C47       1.0  0.6146199999999998  0.2664699999999999  0.30606000000000005  1.0000
  C   C48       1.0  0.60485  0.11786  0.26149  1.0000
  C   C49       1.0  0.56115  0.15148  0.20143  1.0000
  C   C50       1.0  0.45453999999999994  0.06964  0.4920800000000001  1.0000
  C   C51       1.0  0.63853  0.33131  0.35627  1.0000
  C   C52       1.0  0.55775  0.38640999999999986  0.23007  1.0000
  C   C53       1.0  0.51449  0.99031  0.51749  1.0000
  C   C54       1.0  0.62436  0.0162  0.51616  1.0000
  C   C55       1.0  0.8072999999999998  0.23644  0.86791  1.0000
  C   C56       1.0  0.61921  0.4197  0.34364  1.0000
  C   C57       1.0  0.7655799999999998  0.2866499999999999  0.74313  1.0000
  C   C58       1.0  0.4996699999999999  0.10035999999999998  0.42394  1.0000
  C   C59       1.0  0.81769  0.11998999999999997  0.69596  1.0000
  C   C60       1.0  0.71503  0.41254  0.64214  1.0000
  C   C61       1.0  0.73233  0.37236999999999987  0.76233  1.0000
  C   C62       1.0  0.5806  0.44771  0.2795500000000001  1.0000
  C   C63       1.0  0.7452599999999998  0.32985  0.6220900000000001  1.0000
  C   C64       1.0  0.7063499999999999  0.43381  0.71282  1.0000
  C   C65       1.0  0.57535  0.15878999999999993  0.56083  1.0000
  C   C66       1.0  0.40814  0.22496999999999995  0.52332  1.0000
  C   C67       1.0  0.65912  0.4621  0.45899  1.0000
  C   C68       1.0  0.63866  0.5364099999999998  0.79373  1.0000
  C   C69       1.0  0.72784  0.18723999999999993  0.90891  1.0000
  C   C70       1.0  0.74505  0.19365999999999994  0.98737  1.0000
  C   C71       1.0  0.5593  0.14433  0.9139700000000001  1.0000
  C   C72       1.0  0.5999599999999998  0.29724  0.92675  1.0000
  C   C73       1.0  0.59499  0.2834599999999999  0.00581  1.0000
  C   C74       1.0  0.64352  0.19416  0.02202  1.0000
  C   C75       1.0  0.57693  0.12068999999999998  0.99086  1.0000
  C   C76       1.0  0.62023  0.02898999999999999  0.00345  1.0000
  C   C77       1.0  0.31903999999999993  0.36204  0.23349  1.0000
  C   C78       1.0  0.17748  0.36253  0.62011  1.0000
  C   C79       1.0  0.10152  0.35415999999999986  0.5613300000000001  1.0000
  C   C80       1.0  0.2963  0.2788199999999999  0.20846  1.0000
  C   C81       1.0  0.07274  0.20386999999999997  0.75779  1.0000
  C   C82       1.0  0.9657399999999998  0.35491  0.45354000000000005  1.0000
  C   C83       1.0  0.26956  0.23505  0.32819  1.0000
  C   C84       1.0  0.13402  0.32405  0.68548  1.0000
  C   C85       1.0  0.11581  0.23151  0.6940500000000001  1.0000
  C   C86       1.0  0.10892999999999997  0.38017  0.73877  1.0000
  C   C87       1.0  0.0637  0.34729  0.79841  1.0000
  C   C88       1.0  0.95564  0.4286699999999999  0.50867  1.0000
  C   C89       1.0  0.1389  0.16627999999999996  0.644  1.0000
  C   C90       1.0  0.05906999999999999  0.11228  0.77041  1.0000
  C   C91       1.0  0.014489999999999998  0.50838  0.48296000000000006  1.0000
  C   C92       1.0  0.12462999999999998  0.4833899999999999  0.48484000000000005  1.0000
  C   C93       1.0  0.30842  0.26297  0.13188000000000002  1.0000
  C   C94       1.0  0.11999999999999997  0.07787  0.657  1.0000
  C   C95       1.0  0.26634  0.21275  0.25646  1.0000
  C   C96       1.0  0.00183  0.39868  0.57687  1.0000
  C   C97       1.0  0.31717999999999996  0.3795699999999999  0.30401  1.0000
  C   C98       1.0  0.21453  0.0872  0.35725  1.0000
  C   C99       1.0  0.23349  0.12692  0.23715  1.0000
  C   C100      1.0  0.08262  0.050459999999999984  0.72149  1.0000
  C   C101      1.0  0.24499  0.16971999999999995  0.37740000000000007  1.0000
  C   C102      1.0  0.20655999999999994  0.06581  0.28658  1.0000
  C   C103      1.0  0.07692  0.34047  0.43981  1.0000
  C   C104      1.0  0.91087  0.27277  0.47701  1.0000
  C   C105      1.0  0.15766  0.03576  0.54161  1.0000
  C   C106      1.0  0.13858  0.96391  0.20542000000000002  1.0000
  C   C107      1.0  0.22869999999999993  0.3115099999999999  0.0905  1.0000
  C   C108      1.0  0.24577  0.30482  0.01206  1.0000
  C   C109      1.0  0.05984999999999999  0.35375  0.08488  1.0000
  C   C110      1.0  0.10138999999999998  0.20104999999999995  0.07307  1.0000
  C   C111      1.0  0.09622  0.21404999999999996  0.9939100000000001  1.0000
  C   C112      1.0  0.14413  0.30344  0.97728  1.0000
  C   C113      1.0  0.07722  0.3769999999999999  0.00792  1.0000
  C   C114      1.0  0.12040999999999999  0.4686799999999999  0.99529  1.0000
  C   C115      1.0  0.17987  0.63727  0.7328200000000001  1.0000
  C   C116      1.0  0.3246399999999999  0.6350199999999998  0.11961000000000001  1.0000
  C   C117      1.0  0.3997299999999999  0.64477  0.0606  1.0000
  C   C118      1.0  0.20383  0.7204  0.70831  1.0000
  C   C119      1.0  0.42741  0.7943599999999997  0.25856  1.0000
  C   C120      1.0  0.53506  0.6432499999999998  0.9523800000000001  1.0000
  C   C121      1.0  0.23136999999999994  0.7629999999999998  0.8283600000000001  1.0000
  C   C122      1.0  0.36743999999999993  0.6743199999999998  0.18516  1.0000
  C   C123      1.0  0.3850999999999999  0.7669699999999998  0.19431  1.0000
  C   C124      1.0  0.39178  0.61815  0.23862  1.0000
  C   C125      1.0  0.4360699999999999  0.65081  0.29877000000000004  1.0000
  C   C126      1.0  0.54523  0.56998  0.00774  1.0000
  C   C127      1.0  0.36204999999999987  0.8327599999999997  0.14468  1.0000
  C   C128      1.0  0.44120999999999994  0.88583  0.2719  1.0000
  C   C129      1.0  0.4858999999999999  0.49025  0.98243  1.0000
  C   C130      1.0  0.37588  0.51575  0.98352  1.0000
  C   C131      1.0  0.19222999999999998  0.73776  0.63191  1.0000
  C   C132      1.0  0.38038  0.92107  0.15864  1.0000
  C   C133      1.0  0.23449999999999993  0.7856899999999998  0.7567800000000001  1.0000
  C   C134      1.0  0.50007  0.6010199999999999  0.07584  1.0000
  C   C135      1.0  0.18122  0.61937  0.80329  1.0000
  C   C136      1.0  0.28892  0.91002  0.8580300000000001  1.0000
  C   C137      1.0  0.26842999999999995  0.8710999999999998  0.7377700000000001  1.0000
  C   C138      1.0  0.4175699999999999  0.9480999999999998  0.22339000000000003  1.0000
  C   C139      1.0  0.25715  0.82782  0.8778700000000002  1.0000
  C   C140      1.0  0.29681  0.93147  0.78737  1.0000
  C   C141      1.0  0.42379  0.6585999999999997  0.93907  1.0000
  C   C142      1.0  0.59173  0.72476  0.97539  1.0000
  C   C143      1.0  0.34208  0.9647299999999998  0.04364  1.0000
  C   C144      1.0  0.3632199999999999  0.03332  0.70571  1.0000
  C   C145      1.0  0.27086  0.6883599999999997  0.59028  1.0000
  C   C146      1.0  0.25355  0.6952899999999997  0.51183  1.0000
  C   C147      1.0  0.43939  0.64514  0.5851  1.0000
  C   C148      1.0  0.39908  0.79803  0.57281  1.0000
  C   C149      1.0  0.4041  0.7846199999999998  0.49372  1.0000
  C   C150      1.0  0.3551299999999999  0.6956899999999998  0.4772300000000001  1.0000
  C   C151      1.0  0.42131999999999986  0.62189  0.50821  1.0000
  C   C152      1.0  0.3773  0.53063  0.49535  1.0000
  N   N1        1.0  0.7052599999999999  0.81736  0.14802  1.0000
  N   N2        1.0  0.9548999999999997  0.76355  0.69123  1.0000
  N   N3        1.0  0.8620599999999998  0.8849799999999999  0.0076  1.0000
  N   N4        1.0  0.87341  0.7844499999999998  0.39048000000000005  1.0000
  N   N5        1.0  0.79541  0.18140999999999993  0.64922  1.0000
  N   N6        1.0  0.54448  0.23707999999999996  0.19163000000000002  1.0000
  N   N7        1.0  0.6374899999999999  0.11392  0.50798  1.0000
  N   N8        1.0  0.62669  0.21480999999999995  0.89064  1.0000
  N   N9        1.0  0.2950699999999999  0.31805  0.3506  1.0000
  N   N10       1.0  0.0452  0.26197999999999994  0.80802  1.0000
  N   N11       1.0  0.13871  0.38568  0.49274000000000007  1.0000
  N   N12       1.0  0.1278  0.28386  0.10875  1.0000
  N   N13       1.0  0.20454  0.68023  0.85026  1.0000
  N   N14       1.0  0.45433999999999997  0.7360699999999998  0.30878  1.0000
  N   N15       1.0  0.36211000000000004  0.61342  0.9918700000000001  1.0000
  N   N16       1.0  0.37206999999999996  0.7155699999999998  0.60866  1.0000
  O   O1        1.0  0.79505  0.9518999999999997  0.86781  1.0000
  O   O2        1.0  0.6012799999999999  0.79896  0.39001  1.0000
  O   O3        1.0  0.8621199999999998  0.50977  0.8856100000000001  1.0000
  O   O4        1.0  0.8289699999999998  0.48236  0.22543000000000002  1.0000
  O   O5        1.0  0.1843  0.7728199999999997  0.02819  1.0000
  O   O6        1.0  0.04332  0.7096199999999999  0.9937  1.0000
  O   O7        1.0  0.85295  0.01797  0.45445000000000013  1.0000
  O   O8        1.0  0.87127  0.9949  0.56669  1.0000
  O   O9        1.0  0.7005  0.04463  0.36783  1.0000
  O   O10       1.0  0.89908  0.20139  0.89208  1.0000
  O   O11       1.0  0.63799  0.48699  0.38911  1.0000
  O   O12       1.0  0.6712899999999998  0.5170099999999999  0.7253200000000001  1.0000
  O   O13       1.0  0.31402999999999986  0.22282  0.52812  1.0000
  O   O14       1.0  0.45382  0.28969  0.4964800000000001  1.0000
  O   O15       1.0  0.6425199999999998  0.9783599999999998  0.9530600000000001  1.0000
  O   O16       1.0  0.6324399999999998  0.004519999999999998  0.06566  1.0000
  O   O17       1.0  0.20544999999999997  0.45206  0.6324  1.0000
  O   O18       1.0  0.39954999999999996  0.29874  0.10777000000000002  1.0000
  O   O19       1.0  0.13803  0.010269999999999996  0.61155  1.0000
  O   O20       1.0  0.17118999999999995  0.98273  0.27406  1.0000
  O   O21       1.0  0.81704  0.2726  0.46900000000000003  1.0000
  O   O22       1.0  0.9568199999999999  0.21013  0.50658  1.0000
  O   O23       1.0  0.14702  0.5178  0.04553  1.0000
  O   O24       1.0  0.12844  0.49485  0.93325  1.0000
  O   O25       1.0  0.29925  0.54481  0.13201  1.0000
  O   O26       1.0  0.09996999999999999  0.70498  0.6074500000000002  1.0000
  O   O27       1.0  0.36194  0.9892399999999998  0.11383  1.0000
  O   O28       1.0  0.33366999999999997  0.013789999999999997  0.77474  1.0000
  O   O29       1.0  0.6856  0.7228999999999998  0.96881  1.0000
  O   O30       1.0  0.54666  0.7890999999999998  0.00337  1.0000
  O   O31       1.0  0.3575699999999999  0.4785099999999999  0.54532  1.0000
  O   O32       1.0  0.3622499999999999  0.50791  0.43313000000000007  1.0000
