data_image0
_chemical_formula_structural       Cd4H100C104N36O16
_chemical_formula_sum              "Cd4 H100 C104 N36 O16"
_cell_length_a       12.21667
_cell_length_b       12.21676
_cell_length_c       23.11827
_cell_angle_alpha    86.77634000000002
_cell_angle_beta     86.77594
_cell_angle_gamma    65.56377

_symmetry_space_group_name_H-M    'P 1'
_symmetry_Int_Tables_number       1

loop_
  _symmetry_equiv_pos_as_xyz
  'x,y,z'

loop_
  _atom_site_type_symbol
  _atom_site_label
  _atom_site_symmetry_multiplicity
  _atom_site_fract_x
  _atom_site_fract_y
  _atom_site_fract_z
  _atom_site_occupancy
  Cd  Cd1       1.0  0.05715999999999993  0.5229600000000002  0.7336799999999999  1.0000
  Cd  Cd2       1.0  0.4769799999999998  0.9428600000000001  0.7663199999999999  1.0000
  Cd  Cd3       1.0  0.9428399999999999  0.47704  0.26632999999999996  1.0000
  Cd  Cd4       1.0  0.52302  0.05714  0.23367999999999994  1.0000
  H   H1        1.0  0.36551000000000006  0.54482  0.8478599999999998  1.0000
  H   H2        1.0  0.4625199999999996  0.50945  0.94204  1.0000
  H   H3        1.0  0.5480599999999999  0.3015400000000001  0.98817  1.0000
  H   H4        1.0  0.5347099999999999  0.13322000000000003  0.9374699999999998  1.0000
  H   H5        1.0  0.14565  0.63153  0.8483499999999999  1.0000
  H   H6        1.0  0.7932699999999997  0.7685000000000002  0.7894799999999998  1.0000
  H   H7        1.0  0.6964199999999999  0.94518  0.8627099999999998  1.0000
  H   H8        1.0  0.7375099999999998  0.85666  0.92712  1.0000
  H   H9        1.0  0.67625  0.12968000000000002  0.81136  1.0000
  H   H10       1.0  0.80184  0.16602000000000003  0.7953199999999998  1.0000
  H   H11       1.0  0.8219899999999998  0.014680000000000012  0.8004399999999998  1.0000
  H   H12       1.0  0.7441499999999998  0.8904700000000002  0.030239999999999993  1.0000
  H   H13       1.0  0.87274  0.7992300000000002  0.9884499999999999  1.0000
  H   H14       1.0  0.8903499999999999  0.86282  0.05138  1.0000
  H   H15       1.0  0.7570699999999999  0.36468  0.00353  1.0000
  H   H16       1.0  0.8975599999999998  0.27032  0.03114  1.0000
  H   H17       1.0  0.8914099999999999  0.33333  0.9603699999999998  1.0000
  H   H18       1.0  0.73355  0.38811000000000007  0.9029499999999999  1.0000
  H   H19       1.0  0.70676  0.32506  0.8416999999999999  1.0000
  H   H20       1.0  0.15598000000000006  0.26303  0.82326  1.0000
  H   H21       1.0  0.79278  0.48002000000000006  0.7860399999999998  1.0000
  H   H22       1.0  0.92955  0.12693  0.07267  1.0000
  H   H23       1.0  0.9317100000000001  0.98239  0.07861999999999998  1.0000
  H   H24       1.0  0.77318  0.95635  0.14609  1.0000
  H   H25       1.0  0.5329099999999999  0.31935  0.15776  1.0000
  H   H26       1.0  0.45513  0.6344800000000002  0.6521499999999999  1.0000
  H   H27       1.0  0.49048  0.53751  0.55797  1.0000
  H   H28       1.0  0.6983800000000001  0.45203  0.5118299999999999  1.0000
  H   H29       1.0  0.8666999999999999  0.46535000000000004  0.56252  1.0000
  H   H30       1.0  0.36843  0.8544200000000002  0.6516499999999998  1.0000
  H   H31       1.0  0.23146000000000003  0.20679  0.7105099999999999  1.0000
  H   H32       1.0  0.054749999999999986  0.30362  0.63729  1.0000
  H   H33       1.0  0.14326999999999998  0.26255  0.57289  1.0000
  H   H34       1.0  0.8702699999999995  0.3237800000000001  0.68865  1.0000
  H   H35       1.0  0.83391  0.19819  0.7046799999999999  1.0000
  H   H36       1.0  0.98525  0.17803000000000005  0.6995799999999998  1.0000
  H   H37       1.0  0.10947999999999995  0.25588000000000005  0.46974999999999995  1.0000
  H   H38       1.0  0.20072000000000004  0.1273  0.5115499999999998  1.0000
  H   H39       1.0  0.13713  0.10966000000000001  0.44862  1.0000
  H   H40       1.0  0.6352899999999998  0.24293  0.49647999999999987  1.0000
  H   H41       1.0  0.7296499999999998  0.10243000000000001  0.46887  1.0000
  H   H42       1.0  0.6666399999999998  0.10858  0.53965  1.0000
  H   H43       1.0  0.6118599999999997  0.26646  0.59707  1.0000
  H   H44       1.0  0.6749199999999997  0.29325  0.65831  1.0000
  H   H45       1.0  0.7369599999999998  0.84402  0.67673  1.0000
  H   H46       1.0  0.51996  0.20721000000000003  0.7139799999999997  1.0000
  H   H47       1.0  0.87306  0.07044000000000002  0.4273299999999999  1.0000
  H   H48       1.0  0.017609999999999994  0.06825  0.42141  1.0000
  H   H49       1.0  0.043700000000000024  0.22673  0.3538799999999999  1.0000
  H   H50       1.0  0.6806999999999997  0.46705  0.34223  1.0000
  H   H51       1.0  0.6344899999999998  0.45518  0.15214  1.0000
  H   H52       1.0  0.5374799999999997  0.49055  0.057959999999999984  1.0000
  H   H53       1.0  0.45194000000000006  0.69846  0.01183  1.0000
  H   H54       1.0  0.46529000000000004  0.86678  0.06252999999999999  1.0000
  H   H55       1.0  0.85435  0.3684700000000001  0.15166  1.0000
  H   H56       1.0  0.20672  0.23150000000000004  0.21051999999999998  1.0000
  H   H57       1.0  0.3035799999999999  0.05482  0.13729  1.0000
  H   H58       1.0  0.2624799999999998  0.14334  0.07289  1.0000
  H   H59       1.0  0.32374999999999987  0.8703200000000001  0.18864  1.0000
  H   H60       1.0  0.19815  0.83398  0.20467999999999997  1.0000
  H   H61       1.0  0.17800999999999995  0.98532  0.19957  1.0000
  H   H62       1.0  0.25584999999999997  0.10953000000000003  0.9697699999999999  1.0000
  H   H63       1.0  0.12726  0.20077  0.011549999999999996  1.0000
  H   H64       1.0  0.10963999999999996  0.13718000000000002  0.94862  1.0000
  H   H65       1.0  0.24292999999999995  0.6353200000000001  0.9964699999999999  1.0000
  H   H66       1.0  0.10242999999999987  0.7296800000000002  0.9688599999999999  1.0000
  H   H67       1.0  0.10857999999999993  0.6666700000000001  0.03964  1.0000
  H   H68       1.0  0.26644  0.61189  0.09705  1.0000
  H   H69       1.0  0.2932399999999999  0.67494  0.1583  1.0000
  H   H70       1.0  0.84402  0.7369700000000001  0.17674  1.0000
  H   H71       1.0  0.20721999999999996  0.5199800000000001  0.21395999999999998  1.0000
  H   H72       1.0  0.07043999999999996  0.8730700000000002  0.9273299999999999  1.0000
  H   H73       1.0  0.06829  0.01761000000000002  0.9213899999999998  1.0000
  H   H74       1.0  0.22681999999999994  0.04365000000000001  0.8539199999999999  1.0000
  H   H75       1.0  0.46708  0.68065  0.84225  1.0000
  H   H76       1.0  0.54487  0.36552  0.34785  1.0000
  H   H77       1.0  0.5095199999999999  0.46249  0.44203999999999993  1.0000
  H   H78       1.0  0.3016199999999999  0.54796  0.48817999999999995  1.0000
  H   H79       1.0  0.13328999999999996  0.53465  0.43748999999999993  1.0000
  H   H80       1.0  0.6315699999999999  0.14558000000000001  0.3483499999999999  1.0000
  H   H81       1.0  0.7685400000000001  0.79321  0.28949  1.0000
  H   H82       1.0  0.9452499999999999  0.6963800000000001  0.3627099999999999  1.0000
  H   H83       1.0  0.8567199999999998  0.73745  0.42712  1.0000
  H   H84       1.0  0.12973  0.67622  0.31134999999999996  1.0000
  H   H85       1.0  0.16609000000000002  0.80181  0.29531999999999997  1.0000
  H   H86       1.0  0.014749999999999968  0.82197  0.3004299999999999  1.0000
  H   H87       1.0  0.8905199999999999  0.7441200000000001  0.53025  1.0000
  H   H88       1.0  0.79927  0.8726900000000001  0.4884499999999999  1.0000
  H   H89       1.0  0.86286  0.8903400000000001  0.5513799999999999  1.0000
  H   H90       1.0  0.36471000000000003  0.75707  0.50352  1.0000
  H   H91       1.0  0.27035  0.8975700000000001  0.53113  1.0000
  H   H92       1.0  0.33336000000000005  0.89142  0.46034999999999987  1.0000
  H   H93       1.0  0.3881399999999998  0.7335400000000002  0.4029399999999999  1.0000
  H   H94       1.0  0.32506999999999997  0.7067500000000001  0.34168999999999994  1.0000
  H   H95       1.0  0.2630299999999999  0.15596999999999997  0.32327  1.0000
  H   H96       1.0  0.48002999999999996  0.7927900000000001  0.28603  1.0000
  H   H97       1.0  0.1269399999999999  0.92955  0.57267  1.0000
  H   H98       1.0  0.9823799999999999  0.9317500000000002  0.5786  1.0000
  H   H99       1.0  0.9563  0.77327  0.64612  1.0000
  H   H100      1.0  0.31929  0.5329500000000001  0.6577799999999999  1.0000
  C   C1        1.0  0.32927  0.38975  0.78222  1.0000
  C   C2        1.0  0.39459  0.36019  0.83879  1.0000
  C   C3        1.0  0.40334999999999993  0.4544000000000001  0.86734  1.0000
  C   C4        1.0  0.45786999999999994  0.4342400000000001  0.9207499999999998  1.0000
  C   C5        1.0  0.50491  0.31854000000000005  0.9466699999999999  1.0000
  C   C6        1.0  0.4975599999999998  0.22401000000000001  0.9183799999999999  1.0000
  C   C7        1.0  0.4425699999999999  0.24358  0.86473  1.0000
  C   C8        1.0  0.43618999999999997  0.14044  0.83521  1.0000
  C   C9        1.0  0.050059999999999986  0.6857  0.8449799999999998  1.0000
  C   C10       1.0  0.8717099999999999  0.75375  0.8139  1.0000
  C   C11       1.0  0.7694899999999999  0.9034800000000002  0.8930399999999998  1.0000
  C   C12       1.0  0.7998099999999997  0.9985100000000001  0.9184099999999997  1.0000
  C   C13       1.0  0.7930999999999999  0.09872000000000002  0.88314  1.0000
  C   C14       1.0  0.772  0.10287  0.81928  1.0000
  C   C15       1.0  0.8041099999999998  0.19542  0.9083999999999999  1.0000
  C   C16       1.0  0.83293  0.18856  0.9670999999999997  1.0000
  C   C17       1.0  0.84655  0.08435  0.00113  1.0000
  C   C18       1.0  0.8269999999999998  0.98998  0.97737  1.0000
  C   C19       1.0  0.83403  0.88064  0.01378  1.0000
  C   C20       1.0  0.84583  0.29424000000000006  0.9917799999999999  1.0000
  C   C21       1.0  0.7736699999999999  0.3124400000000001  0.87399  1.0000
  C   C22       1.0  0.05824999999999998  0.29781  0.8235999999999999  1.0000
  C   C23       1.0  0.8754199999999999  0.40993000000000007  0.8032499999999998  1.0000
  C   C24       1.0  0.8777499999999999  0.07533000000000001  0.06406999999999999  1.0000
  C   C25       1.0  0.72959  0.053170000000000016  0.1396  1.0000
  C   C26       1.0  0.6091  0.23882  0.14393999999999998  1.0000
  C   C27       1.0  0.6102  0.67073  0.7177899999999999  1.0000
  C   C28       1.0  0.63977  0.6054  0.66123  1.0000
  C   C29       1.0  0.5455599999999998  0.5966500000000001  0.63268  1.0000
  C   C30       1.0  0.56568  0.54215  0.57927  1.0000
  C   C31       1.0  0.6813699999999999  0.49514  0.55334  1.0000
  C   C32       1.0  0.7759199999999999  0.5024800000000001  0.5816199999999999  1.0000
  C   C33       1.0  0.75638  0.55743  0.63528  1.0000
  C   C34       1.0  0.8595499999999997  0.56374  0.6647899999999999  1.0000
  C   C35       1.0  0.3142599999999998  0.9500000000000002  0.6550199999999999  1.0000
  C   C36       1.0  0.24620999999999996  0.12836  0.6860999999999999  1.0000
  C   C37       1.0  0.09645999999999999  0.23056000000000004  0.6069599999999999  1.0000
  C   C38       1.0  0.001450000000000017  0.20022  0.5816  1.0000
  C   C39       1.0  0.9012399999999998  0.20692000000000005  0.6168599999999999  1.0000
  C   C40       1.0  0.8970699999999998  0.22803000000000012  0.6807299999999998  1.0000
  C   C41       1.0  0.80454  0.19591000000000003  0.5915999999999999  1.0000
  C   C42       1.0  0.8113999999999998  0.16708000000000006  0.53291  1.0000
  C   C43       1.0  0.9156199999999999  0.15346000000000004  0.4988799999999999  1.0000
  C   C44       1.0  0.00997  0.17302999999999996  0.52263  1.0000
  C   C45       1.0  0.11931000000000004  0.16600000000000004  0.48620999999999986  1.0000
  C   C46       1.0  0.70572  0.15416  0.50823  1.0000
  C   C47       1.0  0.6875299999999999  0.22634  0.62602  1.0000
  C   C48       1.0  0.70217  0.94175  0.6763999999999999  1.0000
  C   C49       1.0  0.5900499999999999  0.12456000000000002  0.69677  1.0000
  C   C50       1.0  0.9246699999999999  0.12223  0.43594  1.0000
  C   C51       1.0  0.9468699999999998  0.27035  0.3603799999999999  1.0000
  C   C52       1.0  0.7612299999999999  0.39086  0.35605  1.0000
  C   C53       1.0  0.6707199999999999  0.61025  0.21778  1.0000
  C   C54       1.0  0.6053999999999998  0.6398100000000001  0.16121999999999997  1.0000
  C   C55       1.0  0.59664  0.5456  0.13265999999999997  1.0000
  C   C56       1.0  0.5421199999999999  0.5657500000000001  0.07924999999999999  1.0000
  C   C57       1.0  0.4950799999999999  0.68146  0.053339999999999985  1.0000
  C   C58       1.0  0.5024299999999999  0.7759900000000001  0.08163  1.0000
  C   C59       1.0  0.55743  0.75642  0.13527  1.0000
  C   C60       1.0  0.5638  0.85955  0.1648  1.0000
  C   C61       1.0  0.9499399999999998  0.3143  0.15502999999999997  1.0000
  C   C62       1.0  0.12829  0.24625000000000005  0.1861  1.0000
  C   C63       1.0  0.2305099999999999  0.09652000000000004  0.10695999999999997  1.0000
  C   C64       1.0  0.20018999999999998  0.0014899999999999998  0.0816  1.0000
  C   C65       1.0  0.20688999999999988  0.9012800000000002  0.11685999999999999  1.0000
  C   C66       1.0  0.22799999999999998  0.8971300000000001  0.18071999999999994  1.0000
  C   C67       1.0  0.19589  0.80458  0.0916  1.0000
  C   C68       1.0  0.16706999999999983  0.8114400000000002  0.03291  1.0000
  C   C69       1.0  0.15344999999999995  0.9156500000000002  0.99888  1.0000
  C   C70       1.0  0.17299999999999996  0.010010000000000002  0.02263  1.0000
  C   C71       1.0  0.16596999999999998  0.11936  0.9862199999999999  1.0000
  C   C72       1.0  0.15416999999999995  0.7057600000000002  0.00822  1.0000
  C   C73       1.0  0.22632999999999992  0.6875600000000001  0.12601  1.0000
  C   C74       1.0  0.9417399999999999  0.7021900000000001  0.1764  1.0000
  C   C75       1.0  0.12456999999999997  0.59007  0.19674999999999995  1.0000
  C   C76       1.0  0.12224000000000004  0.9246700000000001  0.9359299999999998  1.0000
  C   C77       1.0  0.2704099999999999  0.9468300000000001  0.8603999999999998  1.0000
  C   C78       1.0  0.3908900000000001  0.76118  0.85607  1.0000
  C   C79       1.0  0.3897999999999999  0.32926000000000005  0.28221  1.0000
  C   C80       1.0  0.36022  0.39459  0.33877  1.0000
  C   C81       1.0  0.45443999999999996  0.40335  0.3673199999999999  1.0000
  C   C82       1.0  0.43432000000000015  0.45785000000000003  0.42074  1.0000
  C   C83       1.0  0.3186199999999999  0.50485  0.44667  1.0000
  C   C84       1.0  0.22407999999999995  0.49752000000000013  0.41838  1.0000
  C   C85       1.0  0.24361999999999998  0.44257  0.3647299999999999  1.0000
  C   C86       1.0  0.14045  0.43626000000000004  0.33520999999999995  1.0000
  C   C87       1.0  0.68574  0.05000000000000002  0.34498  1.0000
  C   C88       1.0  0.75379  0.87164  0.31390999999999997  1.0000
  C   C89       1.0  0.9035299999999999  0.7694400000000001  0.39303999999999994  1.0000
  C   C90       1.0  0.9985499999999997  0.7997700000000001  0.4183999999999999  1.0000
  C   C91       1.0  0.09875999999999989  0.7930800000000002  0.38314  1.0000
  C   C92       1.0  0.10293000000000001  0.77197  0.31928  1.0000
  C   C93       1.0  0.19545999999999983  0.8040900000000002  0.4084  1.0000
  C   C94       1.0  0.18858999999999998  0.83292  0.46708999999999995  1.0000
  C   C95       1.0  0.08438  0.8465400000000001  0.50112  1.0000
  C   C96       1.0  0.9900299999999999  0.82697  0.4773699999999999  1.0000
  C   C97       1.0  0.88068  0.8340000000000001  0.51379  1.0000
  C   C98       1.0  0.29427  0.8458400000000001  0.49176999999999993  1.0000
  C   C99       1.0  0.3124700000000001  0.7736600000000001  0.3739799999999999  1.0000
  C   C100      1.0  0.29783  0.058249999999999996  0.3236  1.0000
  C   C101      1.0  0.4099499999999999  0.8754400000000001  0.30323999999999995  1.0000
  C   C102      1.0  0.07532000000000003  0.87776  0.56407  1.0000
  C   C103      1.0  0.053129999999999906  0.7296500000000002  0.6396299999999999  1.0000
  C   C104      1.0  0.23876999999999998  0.6091400000000001  0.6439499999999999  1.0000
  N   N1        1.0  0.9838399999999995  0.6733500000000002  0.80219  1.0000
  N   N2        1.0  0.9852  0.76931  0.8822799999999998  1.0000
  N   N3        1.0  0.8717599999999998  0.8122400000000001  0.8617399999999998  1.0000
  N   N4        1.0  0.9888100000000001  0.39521000000000006  0.7900599999999999  1.0000
  N   N5        1.0  0.9943599999999994  0.25076  0.85654  1.0000
  N   N6        1.0  0.87811  0.32341  0.8429399999999998  1.0000
  N   N7        1.0  0.76987  0.11873000000000003  0.10284  1.0000
  N   N8        1.0  0.69362  0.23816000000000004  0.10473  1.0000
  N   N9        1.0  0.62789  0.12689  0.16639999999999996  1.0000
  N   N10       1.0  0.32662  0.016230000000000005  0.6978  1.0000
  N   N11       1.0  0.23064000000000004  0.014849999999999995  0.61773  1.0000
  N   N12       1.0  0.18771  0.1283  0.63826  1.0000
  N   N13       1.0  0.6047700000000001  0.011180000000000023  0.7099499999999997  1.0000
  N   N14       1.0  0.7492199999999999  0.005650000000000001  0.64347  1.0000
  N   N15       1.0  0.6765699999999999  0.12189000000000004  0.6570799999999999  1.0000
  N   N16       1.0  0.88131  0.2301  0.3971499999999999  1.0000
  N   N17       1.0  0.76188  0.3063699999999999  0.39527  1.0000
  N   N18       1.0  0.87316  0.37204  0.33357999999999993  1.0000
  N   N19       1.0  0.01616000000000003  0.32665  0.19781  1.0000
  N   N20       1.0  0.014789999999999998  0.23069  0.11773  1.0000
  N   N21       1.0  0.12824  0.18776000000000004  0.13827  1.0000
  N   N22       1.0  0.011189999999999997  0.60479  0.20994  1.0000
  N   N23       1.0  0.005639999999999983  0.7492400000000001  0.14345999999999998  1.0000
  N   N24       1.0  0.12187999999999999  0.67659  0.15705999999999998  1.0000
  N   N25       1.0  0.23012999999999992  0.8812700000000001  0.8971599999999997  1.0000
  N   N26       1.0  0.3063799999999999  0.76184  0.8952699999999999  1.0000
  N   N27       1.0  0.3720999999999999  0.8731100000000002  0.83361  1.0000
  N   N28       1.0  0.6733799999999999  0.9837700000000003  0.30219999999999997  1.0000
  N   N29       1.0  0.7693499999999999  0.9851500000000001  0.38228  1.0000
  N   N30       1.0  0.8122799999999999  0.8717  0.36174  1.0000
  N   N31       1.0  0.39521999999999996  0.9888200000000003  0.29005999999999993  1.0000
  N   N32       1.0  0.25077999999999984  0.9943500000000002  0.35654  1.0000
  N   N33       1.0  0.32343  0.8781100000000001  0.34293  1.0000
  N   N34       1.0  0.11868999999999999  0.7699000000000001  0.60285  1.0000
  N   N35       1.0  0.2381099999999999  0.6936300000000001  0.60474  1.0000
  N   N36       1.0  0.12683999999999998  0.6279500000000001  0.6664199999999999  1.0000
  O   O1        1.0  0.21490999999999993  0.44633  0.79126  1.0000
  O   O2        1.0  0.38557999999999987  0.36523  0.7343  1.0000
  O   O3        1.0  0.34885  0.15876000000000004  0.8030499999999999  1.0000
  O   O4        1.0  0.52322  0.03645000000000003  0.8426799999999998  1.0000
  O   O5        1.0  0.5535099999999997  0.78508  0.70875  1.0000
  O   O6        1.0  0.6348099999999999  0.61444  0.76571  1.0000
  O   O7        1.0  0.8412899999999999  0.6510900000000001  0.6969399999999999  1.0000
  O   O8        1.0  0.9635099999999998  0.47666000000000003  0.65733  1.0000
  O   O9        1.0  0.78508  0.55367  0.20874  1.0000
  O   O10       1.0  0.61442  0.63477  0.2657  1.0000
  O   O11       1.0  0.6511499999999998  0.84124  0.19695999999999994  1.0000
  O   O12       1.0  0.4767799999999998  0.9635500000000001  0.15733  1.0000
  O   O13       1.0  0.44649  0.21492000000000003  0.29126  1.0000
  O   O14       1.0  0.3651799999999999  0.38556  0.23429  1.0000
  O   O15       1.0  0.15869999999999995  0.34891000000000005  0.30306  1.0000
  O   O16       1.0  0.03648999999999995  0.5233400000000001  0.3426699999999999  1.0000
