data_image0
_chemical_formula_structural       Cd4H104C132O48
_chemical_formula_sum              "Cd4 H104 C132 O48"
_cell_length_a       16.25175
_cell_length_b       16.25687
_cell_length_c       27.87383
_cell_angle_alpha    85.37199
_cell_angle_beta     85.29644
_cell_angle_gamma    75.55904

_space_group_name_H-M_alt    "P 1"
_space_group_IT_number       1

loop_
  _space_group_symop_operation_xyz
  'x, y, z'

loop_
  _atom_site_type_symbol
  _atom_site_label
  _atom_site_symmetry_multiplicity
  _atom_site_fract_x
  _atom_site_fract_y
  _atom_site_fract_z
  _atom_site_occupancy
  Cd  Cd1       1.0  0.0916000000000001  0.6682099999999996  0.8127900000000002  1.0000
  Cd  Cd2       1.0  0.33192  0.9082699999999998  0.68732  1.0000
  Cd  Cd3       1.0  0.9084000000000001  0.3317799999999999  0.18721000000000004  1.0000
  Cd  Cd4       1.0  0.66808  0.09172999999999995  0.3126800000000001  1.0000
  H   H1        1.0  0.3104100000000001  0.7119699999999997  0.9155600000000003  1.0000
  H   H2        1.0  0.36726  0.7120899999999998  0.9958000000000002  1.0000
  H   H3        1.0  0.17401000000000005  0.5917899999999998  0.06154000000000001  1.0000
  H   H4        1.0  0.11636  0.59487  0.98034  1.0000
  H   H5        1.0  0.34905000000000014  0.7580799999999998  0.06927  1.0000
  H   H6        1.0  0.42321000000000003  0.65647  0.07678000000000003  1.0000
  H   H7        1.0  0.35885000000000017  0.6271  0.21046000000000006  1.0000
  H   H8        1.0  0.3130600000000001  0.58959  0.16271000000000002  1.0000
  H   H9        1.0  0.3547100000000001  0.4917  0.22705000000000006  1.0000
  H   H10       1.0  0.40946  0.35331  0.2674  1.0000
  H   H11       1.0  0.6490000000000005  0.32523999999999986  0.18181  1.0000
  H   H12       1.0  0.5917  0.46628999999999987  0.14021  1.0000
  H   H13       1.0  0.21626000000000006  0.7401199999999998  0.14977000000000004  1.0000
  H   H14       1.0  0.26564  0.77306  0.19805000000000006  1.0000
  H   H15       1.0  0.12617000000000006  0.8643799999999998  0.19683000000000006  1.0000
  H   H16       1.0  0.02653999999999999  0.005679999999999992  0.21050000000000005  1.0000
  H   H17       1.0  0.17564999999999997  0.12488000000000002  0.10458000000000003  1.0000
  H   H18       1.0  0.2743900000000001  0.98553  0.09148000000000003  1.0000
  H   H19       1.0  0.49023  0.69991  0.14481000000000002  1.0000
  H   H20       1.0  0.42462000000000016  0.80492  0.133  1.0000
  H   H21       1.0  0.38709  0.8218599999999998  0.28634000000000004  1.0000
  H   H22       1.0  0.46373000000000003  0.9188299999999998  0.32054  1.0000
  H   H23       1.0  0.62969  0.9065699999999999  0.19277000000000002  1.0000
  H   H24       1.0  0.55576  0.80957  0.15815000000000004  1.0000
  H   H25       1.0  0.45598  0.23438999999999996  0.27541  1.0000
  H   H26       1.0  0.12203  0.21682  0.1423  1.0000
  H   H27       1.0  0.2879300000000001  0.6897199999999998  0.5844900000000001  1.0000
  H   H28       1.0  0.28786000000000006  0.6326899999999998  0.50423  1.0000
  H   H29       1.0  0.40842  0.82561  0.4384600000000001  1.0000
  H   H30       1.0  0.40520000000000017  0.8835  0.5196500000000002  1.0000
  H   H31       1.0  0.24169000000000002  0.65108  0.43073  1.0000
  H   H32       1.0  0.34326  0.57676  0.42320000000000013  1.0000
  H   H33       1.0  0.3730800000000001  0.64083  0.2895100000000001  1.0000
  H   H34       1.0  0.4104099999999999  0.68684  0.3372400000000001  1.0000
  H   H35       1.0  0.5087400000000001  0.6450899999999998  0.273  1.0000
  H   H36       1.0  0.6473600000000003  0.5899799999999997  0.23272000000000007  1.0000
  H   H37       1.0  0.67479  0.35085  0.3183000000000001  1.0000
  H   H38       1.0  0.53349  0.4084599999999999  0.3598600000000001  1.0000
  H   H39       1.0  0.2600200000000001  0.7835499999999997  0.35035  1.0000
  H   H40       1.0  0.22707000000000002  0.73421  0.30203000000000013  1.0000
  H   H41       1.0  0.13576000000000002  0.87354  0.3033100000000001  1.0000
  H   H42       1.0  0.99445  0.9730299999999997  0.28958  1.0000
  H   H43       1.0  0.8749000000000003  0.8242399999999998  0.39547  1.0000
  H   H44       1.0  0.014219999999999965  0.72565  0.40862  1.0000
  H   H45       1.0  0.29994000000000004  0.50976  0.3551  1.0000
  H   H46       1.0  0.1949  0.57545  0.3669800000000001  1.0000
  H   H47       1.0  0.17811000000000007  0.6128099999999997  0.21369  1.0000
  H   H48       1.0  0.08114  0.5362  0.17949000000000007  1.0000
  H   H49       1.0  0.09346000000000006  0.37026  0.30708  1.0000
  H   H50       1.0  0.1905500000000001  0.4441299999999999  0.34169  1.0000
  H   H51       1.0  0.76633  0.54355  0.22492000000000004  1.0000
  H   H52       1.0  0.7831200000000004  0.8779499999999998  0.35785  1.0000
  H   H53       1.0  0.68959  0.28803  0.08444000000000002  1.0000
  H   H54       1.0  0.63274  0.2878999999999999  0.00419  1.0000
  H   H55       1.0  0.82599  0.40820999999999985  0.93846  1.0000
  H   H56       1.0  0.8836400000000004  0.40513  0.019660000000000004  1.0000
  H   H57       1.0  0.6509500000000003  0.24192000000000002  0.93072  1.0000
  H   H58       1.0  0.57679  0.34352999999999984  0.9232100000000002  1.0000
  H   H59       1.0  0.64115  0.3729  0.78954  1.0000
  H   H60       1.0  0.68694  0.4104099999999999  0.83729  1.0000
  H   H61       1.0  0.6452900000000003  0.5082999999999996  0.7729500000000001  1.0000
  H   H62       1.0  0.59054  0.64669  0.7326  1.0000
  H   H63       1.0  0.351  0.67475  0.8181900000000002  1.0000
  H   H64       1.0  0.40830000000000005  0.5337099999999998  0.8597800000000001  1.0000
  H   H65       1.0  0.78375  0.2598799999999999  0.85023  1.0000
  H   H66       1.0  0.7343600000000002  0.22692999999999997  0.80195  1.0000
  H   H67       1.0  0.8738300000000001  0.13561999999999994  0.8031700000000003  1.0000
  H   H68       1.0  0.9734600000000001  0.9943199999999995  0.78949  1.0000
  H   H69       1.0  0.8243600000000001  0.8751199999999998  0.8954200000000002  1.0000
  H   H70       1.0  0.7256100000000002  0.014469999999999988  0.9085200000000001  1.0000
  H   H71       1.0  0.50977  0.30009  0.8551900000000002  1.0000
  H   H72       1.0  0.57538  0.19508  0.8670000000000001  1.0000
  H   H73       1.0  0.6129100000000001  0.17813999999999997  0.7136600000000002  1.0000
  H   H74       1.0  0.53627  0.08116999999999996  0.6794600000000002  1.0000
  H   H75       1.0  0.37031000000000003  0.09341999999999996  0.8072300000000002  1.0000
  H   H76       1.0  0.4442500000000001  0.19043  0.8418400000000003  1.0000
  H   H77       1.0  0.5440199999999998  0.76561  0.72459  1.0000
  H   H78       1.0  0.87797  0.7831799999999998  0.8577000000000001  1.0000
  H   H79       1.0  0.71208  0.31027999999999983  0.4155100000000001  1.0000
  H   H80       1.0  0.71214  0.36731  0.49576  1.0000
  H   H81       1.0  0.59158  0.17437999999999995  0.56154  1.0000
  H   H82       1.0  0.5948  0.11649  0.48035  1.0000
  H   H83       1.0  0.75831  0.3489199999999999  0.5692700000000002  1.0000
  H   H84       1.0  0.6567400000000001  0.4232399999999998  0.5768  1.0000
  H   H85       1.0  0.6269200000000003  0.35916999999999993  0.7104900000000002  1.0000
  H   H86       1.0  0.5895900000000001  0.3131599999999999  0.66276  1.0000
  H   H87       1.0  0.49126000000000003  0.35490999999999995  0.7269900000000002  1.0000
  H   H88       1.0  0.35264  0.41001999999999994  0.7672800000000002  1.0000
  H   H89       1.0  0.32520999999999994  0.64915  0.6817000000000002  1.0000
  H   H90       1.0  0.46651000000000015  0.5915399999999997  0.64014  1.0000
  H   H91       1.0  0.7399800000000001  0.21644999999999995  0.6496500000000001  1.0000
  H   H92       1.0  0.7729300000000002  0.26579  0.6979700000000001  1.0000
  H   H93       1.0  0.8642400000000001  0.12646  0.69669  1.0000
  H   H94       1.0  0.0055499999999999725  0.02696999999999998  0.7104200000000003  1.0000
  H   H95       1.0  0.12510000000000007  0.17575999999999992  0.6045300000000002  1.0000
  H   H96       1.0  0.9857800000000001  0.2743399999999999  0.5913800000000002  1.0000
  H   H97       1.0  0.7000600000000001  0.49023999999999984  0.6449000000000003  1.0000
  H   H98       1.0  0.8051000000000001  0.42455000000000004  0.63302  1.0000
  H   H99       1.0  0.8218900000000001  0.38718  0.7863100000000001  1.0000
  H   H100      1.0  0.9188600000000005  0.46379999999999977  0.82051  1.0000
  H   H101      1.0  0.9065399999999999  0.62974  0.6929200000000002  1.0000
  H   H102      1.0  0.8094500000000003  0.55587  0.6583100000000002  1.0000
  H   H103      1.0  0.23367  0.45644999999999997  0.7750800000000001  1.0000
  H   H104      1.0  0.21687999999999996  0.12203999999999995  0.6421500000000002  1.0000
  C   C1        1.0  0.17123999999999986  0.6602  0.8955000000000002  1.0000
  C   C2        1.0  0.20926000000000006  0.6546899999999998  0.94304  1.0000
  C   C3        1.0  0.28071999999999997  0.68611  0.9477500000000001  1.0000
  C   C4        1.0  0.3124300000000002  0.6863199999999998  0.9929300000000002  1.0000
  C   C5        1.0  0.27227  0.65368  0.033870000000000004  1.0000
  C   C6        1.0  0.20285000000000003  0.61852  0.029360000000000008  1.0000
  C   C7        1.0  0.17133000000000012  0.61997  0.9843700000000002  1.0000
  C   C8        1.0  0.36029  0.6951799999999998  0.08876  1.0000
  C   C9        1.0  0.35551999999999995  0.70557  0.1434  1.0000
  C   C10       1.0  0.3633700000000001  0.6191799999999997  0.17146000000000006  1.0000
  C   C11       1.0  0.47007000000000004  0.4879899999999999  0.18082  1.0000
  C   C12       1.0  0.41836  0.45555  0.21638000000000004  1.0000
  C   C13       1.0  0.45023  0.37553  0.23886000000000002  1.0000
  C   C14       1.0  0.53279  0.3274  0.22673  1.0000
  C   C15       1.0  0.58409  0.3610099999999999  0.19100000000000006  1.0000
  C   C16       1.0  0.55262  0.44012  0.16794000000000006  1.0000
  C   C17       1.0  0.56907  0.24437  0.2514  1.0000
  C   C18       1.0  0.26943999999999996  0.7650799999999998  0.15911000000000006  1.0000
  C   C19       1.0  0.2078400000000001  0.9171699999999999  0.14391000000000004  1.0000
  C   C20       1.0  0.13773  0.92157  0.17744000000000004  1.0000
  C   C21       1.0  0.08201  0.0005599999999999976  0.18521  1.0000
  C   C22       1.0  0.09565999999999998  0.0753  0.16057  1.0000
  C   C23       1.0  0.16524  0.06912  0.12629  1.0000
  C   C24       1.0  0.22063  0.99124  0.11792000000000002  1.0000
  C   C25       1.0  0.037140000000000006  0.15804  0.17095  1.0000
  C   C26       1.0  0.42885000000000006  0.7440699999999998  0.15405  1.0000
  C   C27       1.0  0.46671  0.81005  0.22048  1.0000
  C   C28       1.0  0.4410800000000002  0.83988  0.26654000000000005  1.0000
  C   C29       1.0  0.483  0.8937199999999997  0.28524  1.0000
  C   C30       1.0  0.5509  0.9185699999999998  0.25852  1.0000
  C   C31       1.0  0.5767300000000001  0.8872499999999997  0.21298000000000006  1.0000
  C   C32       1.0  0.5351900000000003  0.8329799999999998  0.19366000000000005  1.0000
  C   C33       1.0  0.5924600000000001  0.9794399999999998  0.2788300000000001  1.0000
  C   C34       1.0  0.33973999999999993  0.82879  0.60455  1.0000
  C   C35       1.0  0.34529  0.79073  0.5569800000000001  1.0000
  C   C36       1.0  0.31383  0.7192899999999998  0.5522800000000001  1.0000
  C   C37       1.0  0.3136300000000001  0.6875199999999999  0.50709  1.0000
  C   C38       1.0  0.3463099999999999  0.7275999999999998  0.46614  1.0000
  C   C39       1.0  0.38158  0.79693  0.4706500000000001  1.0000
  C   C40       1.0  0.3800900000000001  0.8285499999999998  0.51563  1.0000
  C   C41       1.0  0.3046700000000001  0.6396899999999998  0.41124  1.0000
  C   C42       1.0  0.2943900000000002  0.64438  0.35661  1.0000
  C   C43       1.0  0.38086999999999993  0.6364899999999999  0.3285100000000001  1.0000
  C   C44       1.0  0.51215  0.52988  0.31925  1.0000
  C   C45       1.0  0.54477  0.58148  0.28372  1.0000
  C   C46       1.0  0.62488  0.54947  0.26129000000000013  1.0000
  C   C47       1.0  0.6728800000000001  0.4669599999999999  0.27343  1.0000
  C   C48       1.0  0.6391100000000002  0.41576  0.30914  1.0000
  C   C49       1.0  0.55991  0.4473799999999999  0.33216  1.0000
  C   C50       1.0  0.75583  0.4305799999999999  0.24862000000000006  1.0000
  C   C51       1.0  0.23497000000000007  0.7304399999999998  0.34097  1.0000
  C   C52       1.0  0.0827800000000001  0.7920599999999997  0.35621  1.0000
  C   C53       1.0  0.07848000000000005  0.8620299999999997  0.32268000000000013  1.0000
  C   C54       1.0  0.99948  0.9176499999999997  0.3148700000000001  1.0000
  C   C55       1.0  0.9246200000000001  0.9041099999999997  0.3394900000000001  1.0000
  C   C56       1.0  0.9307200000000001  0.8346299999999998  0.37377000000000005  1.0000
  C   C57       1.0  0.008609999999999974  0.77932  0.38217  1.0000
  C   C58       1.0  0.8418599999999999  0.9627099999999997  0.32916000000000006  1.0000
  C   C59       1.0  0.25582  0.5711399999999998  0.3459100000000001  1.0000
  C   C60       1.0  0.18991000000000008  0.5332699999999998  0.27948000000000006  1.0000
  C   C61       1.0  0.16006000000000004  0.5588799999999998  0.23347  1.0000
  C   C62       1.0  0.10625000000000005  0.51695  0.21476000000000006  1.0000
  C   C63       1.0  0.08145000000000006  0.4490299999999999  0.24143000000000006  1.0000
  C   C64       1.0  0.11278999999999999  0.42322  0.2869200000000001  1.0000
  C   C65       1.0  0.16703999999999994  0.4647699999999999  0.3062400000000001  1.0000
  C   C66       1.0  0.02056999999999999  0.40742  0.22116000000000005  1.0000
  C   C67       1.0  0.8287600000000005  0.3398  0.1045  1.0000
  C   C68       1.0  0.79074  0.34531  0.05696000000000001  1.0000
  C   C69       1.0  0.71928  0.31388  0.05225  1.0000
  C   C70       1.0  0.6875700000000002  0.3136799999999999  0.007060000000000001  1.0000
  C   C71       1.0  0.72773  0.3463199999999999  0.9661300000000003  1.0000
  C   C72       1.0  0.79715  0.38148  0.9706400000000002  1.0000
  C   C73       1.0  0.82867  0.38002999999999987  0.015630000000000005  1.0000
  C   C74       1.0  0.63971  0.30481999999999987  0.91123  1.0000
  C   C75       1.0  0.64448  0.29442  0.8566000000000003  1.0000
  C   C76       1.0  0.63664  0.38082  0.8285400000000003  1.0000
  C   C77       1.0  0.52993  0.5120099999999997  0.8191800000000002  1.0000
  C   C78       1.0  0.58164  0.54445  0.78361  1.0000
  C   C79       1.0  0.54977  0.62447  0.7611400000000003  1.0000
  C   C80       1.0  0.46721000000000007  0.6725999999999998  0.77327  1.0000
  C   C81       1.0  0.41591000000000006  0.63899  0.8089900000000002  1.0000
  C   C82       1.0  0.44738000000000017  0.55988  0.8320600000000002  1.0000
  C   C83       1.0  0.43093  0.7556199999999997  0.7486  1.0000
  C   C84       1.0  0.73056  0.23491999999999996  0.8408900000000002  1.0000
  C   C85       1.0  0.7921599999999999  0.08282999999999997  0.8560800000000002  1.0000
  C   C86       1.0  0.86227  0.07842999999999996  0.8225600000000002  1.0000
  C   C87       1.0  0.9179900000000002  0.9994399999999998  0.81479  1.0000
  C   C88       1.0  0.9043400000000004  0.9246999999999999  0.83943  1.0000
  C   C89       1.0  0.8347600000000002  0.9308699999999999  0.87371  1.0000
  C   C90       1.0  0.77937  0.008759999999999995  0.88208  1.0000
  C   C91       1.0  0.9628600000000002  0.8419599999999998  0.8290500000000002  1.0000
  C   C92       1.0  0.5711499999999999  0.25592  0.8459500000000002  1.0000
  C   C93       1.0  0.53329  0.18995  0.77951  1.0000
  C   C94       1.0  0.55892  0.16012  0.7334600000000001  1.0000
  C   C95       1.0  0.517  0.10626999999999999  0.7147600000000001  1.0000
  C   C96       1.0  0.44911000000000006  0.08142999999999999  0.74148  1.0000
  C   C97       1.0  0.42327000000000004  0.11274999999999996  0.7870200000000003  1.0000
  C   C98       1.0  0.46481  0.16701999999999997  0.80633  1.0000
  C   C99       1.0  0.40753999999999996  0.020549999999999992  0.72117  1.0000
  C   C100      1.0  0.6602600000000002  0.17121  0.39545000000000013  1.0000
  C   C101      1.0  0.65471  0.20926999999999998  0.44302000000000014  1.0000
  C   C102      1.0  0.6861800000000001  0.2807099999999999  0.44772  1.0000
  C   C103      1.0  0.68637  0.31247999999999987  0.4929100000000001  1.0000
  C   C104      1.0  0.65369  0.27239999999999986  0.53385  1.0000
  C   C105      1.0  0.6184200000000001  0.20307  0.52935  1.0000
  C   C106      1.0  0.6199099999999999  0.17145  0.4843700000000001  1.0000
  C   C107      1.0  0.6953299999999999  0.36031  0.58876  1.0000
  C   C108      1.0  0.7056100000000001  0.35561999999999977  0.6433900000000002  1.0000
  C   C109      1.0  0.6191300000000002  0.36351  0.67149  1.0000
  C   C110      1.0  0.48784999999999995  0.47011999999999987  0.6807500000000002  1.0000
  C   C111      1.0  0.45523000000000025  0.4185199999999999  0.71628  1.0000
  C   C112      1.0  0.3751200000000001  0.45051999999999987  0.7387100000000001  1.0000
  C   C113      1.0  0.3271199999999998  0.53304  0.72656  1.0000
  C   C114      1.0  0.36089  0.58424  0.69086  1.0000
  C   C115      1.0  0.4400900000000001  0.5526199999999998  0.66784  1.0000
  C   C116      1.0  0.2441700000000001  0.5694199999999998  0.7513700000000002  1.0000
  C   C117      1.0  0.76503  0.2695499999999999  0.65902  1.0000
  C   C118      1.0  0.9172200000000003  0.20794000000000004  0.64379  1.0000
  C   C119      1.0  0.92152  0.13796999999999995  0.6773200000000003  1.0000
  C   C120      1.0  0.0005199999999999918  0.08234999999999992  0.6851300000000002  1.0000
  C   C121      1.0  0.07538  0.09589000000000002  0.66051  1.0000
  C   C122      1.0  0.06928000000000001  0.16536999999999996  0.62623  1.0000
  C   C123      1.0  0.9914  0.22067999999999988  0.61782  1.0000
  C   C124      1.0  0.15813999999999995  0.03727999999999997  0.6708400000000002  1.0000
  C   C125      1.0  0.74418  0.42886  0.65409  1.0000
  C   C126      1.0  0.8100900000000003  0.4667299999999999  0.7205200000000002  1.0000
  C   C127      1.0  0.8399400000000001  0.44111999999999985  0.76653  1.0000
  C   C128      1.0  0.89375  0.48304999999999987  0.7852400000000003  1.0000
  C   C129      1.0  0.91855  0.55097  0.75857  1.0000
  C   C130      1.0  0.8872100000000002  0.5767799999999996  0.7130700000000002  1.0000
  C   C131      1.0  0.8329600000000003  0.53523  0.6937600000000002  1.0000
  C   C132      1.0  0.97943  0.59258  0.77883  1.0000
  O   O1        1.0  0.09558999999999998  0.65019  0.89554  1.0000
  O   O2        1.0  0.21358999999999992  0.67531  0.8565500000000003  1.0000
  O   O3        1.0  0.2951900000000001  0.6535899999999998  0.08051000000000003  1.0000
  O   O4        1.0  0.44570000000000015  0.56642  0.15724000000000005  1.0000
  O   O5        1.0  0.64544  0.20851  0.24978000000000006  1.0000
  O   O6        1.0  0.5152900000000004  0.20420999999999992  0.27869  1.0000
  O   O7        1.0  0.26758999999999994  0.84533  0.13275000000000003  1.0000
  O   O8        1.0  0.06296999999999998  0.22962  0.1551  1.0000
  O   O9        1.0  0.96672  0.16740999999999995  0.19261000000000006  1.0000
  O   O10       1.0  0.4204700000000002  0.7580199999999998  0.20473000000000005  1.0000
  O   O11       1.0  0.6556800000000003  0.00027999999999999347  0.25458000000000003  1.0000
  O   O12       1.0  0.56275  0.00866999999999999  0.3192800000000001  1.0000
  O   O13       1.0  0.34976999999999997  0.9044  0.60451  1.0000
  O   O14       1.0  0.3247  0.7864299999999997  0.64348  1.0000
  O   O15       1.0  0.34639  0.70468  0.4195  1.0000
  O   O16       1.0  0.43358  0.55426  0.34276  1.0000
  O   O17       1.0  0.7915700000000003  0.3542499999999999  0.25019  1.0000
  O   O18       1.0  0.7959200000000002  0.48421999999999993  0.22118000000000002  1.0000
  O   O19       1.0  0.1546300000000001  0.7324  0.36738000000000004  1.0000
  O   O20       1.0  0.7702700000000001  0.93706  0.34522  1.0000
  O   O21       1.0  0.8325100000000002  0.03295999999999999  0.3074100000000001  1.0000
  O   O22       1.0  0.24193000000000006  0.5795099999999997  0.29524  1.0000
  O   O23       1.0  0.99966  0.34433999999999987  0.24545  1.0000
  O   O24       1.0  0.9913900000000001  0.43702999999999986  0.18072  1.0000
  O   O25       1.0  0.90441  0.34981  0.10446  1.0000
  O   O26       1.0  0.7864100000000003  0.3246799999999999  0.14345  1.0000
  O   O27       1.0  0.70481  0.3464  0.91949  1.0000
  O   O28       1.0  0.5542999999999999  0.4335800000000001  0.84276  1.0000
  O   O29       1.0  0.3545600000000001  0.7914899999999998  0.7502200000000002  1.0000
  O   O30       1.0  0.4847100000000002  0.7957899999999998  0.72131  1.0000
  O   O31       1.0  0.7324100000000004  0.15465999999999996  0.8672500000000002  1.0000
  O   O32       1.0  0.93703  0.77038  0.8449000000000002  1.0000
  O   O33       1.0  0.03328000000000005  0.8325899999999998  0.8073900000000003  1.0000
  O   O34       1.0  0.5795300000000002  0.24197999999999992  0.7952700000000003  1.0000
  O   O35       1.0  0.3443200000000001  0.9997199999999998  0.7454100000000001  1.0000
  O   O36       1.0  0.43725  0.9913299999999996  0.6807200000000001  1.0000
  O   O37       1.0  0.65023  0.0956  0.39549000000000006  1.0000
  O   O38       1.0  0.6753  0.21355999999999992  0.35652000000000006  1.0000
  O   O39       1.0  0.6536100000000001  0.2953099999999999  0.5805  1.0000
  O   O40       1.0  0.56642  0.44573999999999986  0.65724  1.0000
  O   O41       1.0  0.20843000000000003  0.6457499999999999  0.7498100000000002  1.0000
  O   O42       1.0  0.20408  0.51578  0.7788200000000002  1.0000
  O   O43       1.0  0.8453700000000003  0.26759  0.63262  1.0000
  O   O44       1.0  0.22973  0.06293999999999998  0.6547800000000003  1.0000
  O   O45       1.0  0.16750000000000015  0.9670399999999996  0.69259  1.0000
  O   O46       1.0  0.7580700000000002  0.42049  0.7047600000000003  1.0000
  O   O47       1.0  0.00033999999999999623  0.65566  0.7545500000000002  1.0000
  O   O48       1.0  0.008620000000000039  0.5629699999999997  0.8192700000000003  1.0000
