data_image0
_chemical_formula_structural       Zn16H88C152N24O64
_chemical_formula_sum              "Zn16 H88 C152 N24 O64"
_cell_length_a       13.93224
_cell_length_b       14.5061
_cell_length_c       27.85493
_cell_angle_alpha    90.0
_cell_angle_beta     90.0
_cell_angle_gamma    90.0

_space_group_name_H-M_alt    "P 1"
_space_group_IT_number       1

loop_
  _space_group_symop_operation_xyz
  'x, y, z'

loop_
  _atom_site_type_symbol
  _atom_site_label
  _atom_site_symmetry_multiplicity
  _atom_site_fract_x
  _atom_site_fract_y
  _atom_site_fract_z
  _atom_site_occupancy
  Zn  Zn1       1.0  0.71295  0.58997  0.40619  1.0000
  Zn  Zn2       1.0  0.71088  0.98865  0.65141  1.0000
  Zn  Zn3       1.0  0.78706  0.41003  0.90619  1.0000
  Zn  Zn4       1.0  0.78913  0.01135  0.15140999999999996  1.0000
  Zn  Zn5       1.0  0.28706  0.08997  0.09381  1.0000
  Zn  Zn6       1.0  0.28913  0.48865  0.84859  1.0000
  Zn  Zn7       1.0  0.21295  0.91003  0.59381  1.0000
  Zn  Zn8       1.0  0.21088  0.51135  0.3485899999999999  1.0000
  Zn  Zn9       1.0  0.28706  0.41003  0.59381  1.0000
  Zn  Zn10      1.0  0.28913  0.01135  0.3485899999999999  1.0000
  Zn  Zn11      1.0  0.21295  0.58997  0.09381  1.0000
  Zn  Zn12      1.0  0.21088  0.98865  0.84859  1.0000
  Zn  Zn13      1.0  0.71295  0.91003  0.90619  1.0000
  Zn  Zn14      1.0  0.71088  0.51135  0.15140999999999996  1.0000
  Zn  Zn15      1.0  0.78706  0.08997  0.40619  1.0000
  Zn  Zn16      1.0  0.78913  0.48865  0.65141  1.0000
  H   H1        1.0  0.7117  0.98451  0.54242  1.0000
  H   H2        1.0  0.7206000000000002  0.8623100000000001  0.47896999999999995  1.0000
  H   H3        1.0  0.69989  0.78767  0.6509599999999998  1.0000
  H   H4        1.0  0.25517  0.52954  0.24445  1.0000
  H   H5        1.0  0.40057  0.54718  0.19343999999999995  1.0000
  H   H6        1.0  0.4177  0.54327  0.3693899999999999  1.0000
  H   H7        1.0  0.74707  0.41236  0.35701  1.0000
  H   H8        1.0  0.87955  0.29517  0.3525399999999999  1.0000
  H   H9        1.0  0.03582  0.3291  0.39469  1.0000
  H   H10       1.0  0.04808  0.47256  0.44367  1.0000
  H   H11       1.0  0.90648  0.57919  0.4481699999999999  1.0000
  H   H12       1.0  0.7883  0.01549  0.04241999999999999  1.0000
  H   H13       1.0  0.77941  0.13768  0.9789599999999998  1.0000
  H   H14       1.0  0.80011  0.21233  0.15096  1.0000
  H   H15       1.0  0.24483000000000005  0.47046  0.74445  1.0000
  H   H16       1.0  0.09943000000000002  0.45282  0.69344  1.0000
  H   H17       1.0  0.0823  0.45672  0.86939  1.0000
  H   H18       1.0  0.7529400000000003  0.58764  0.8570099999999999  1.0000
  H   H19       1.0  0.62046  0.70483  0.8525399999999997  1.0000
  H   H20       1.0  0.4641900000000001  0.6709  0.8946899999999999  1.0000
  H   H21       1.0  0.45192  0.52743  0.94367  1.0000
  H   H22       1.0  0.59353  0.4208100000000001  0.94817  1.0000
  H   H23       1.0  0.2883  0.48451  0.95758  1.0000
  H   H24       1.0  0.27941  0.36232  0.021029999999999993  1.0000
  H   H25       1.0  0.30011  0.28767  0.84903  1.0000
  H   H26       1.0  0.74483  0.02954  0.25555  1.0000
  H   H27       1.0  0.59943  0.04718  0.30655999999999994  1.0000
  H   H28       1.0  0.5823  0.04328  0.13061  1.0000
  H   H29       1.0  0.25294  0.91236  0.14298999999999998  1.0000
  H   H30       1.0  0.12045000000000003  0.79517  0.14745999999999995  1.0000
  H   H31       1.0  0.9641900000000002  0.8291  0.10530999999999999  1.0000
  H   H32       1.0  0.9519300000000003  0.97256  0.05633  1.0000
  H   H33       1.0  0.09353  0.07919  0.05183  1.0000
  H   H34       1.0  0.2117  0.51548  0.4575799999999999  1.0000
  H   H35       1.0  0.22060000000000005  0.63768  0.52103  1.0000
  H   H36       1.0  0.19989  0.71233  0.34903  1.0000
  H   H37       1.0  0.75517  0.9704600000000001  0.75554  1.0000
  H   H38       1.0  0.90058  0.9528200000000001  0.80655  1.0000
  H   H39       1.0  0.91771  0.95672  0.63061  1.0000
  H   H40       1.0  0.24706000000000006  0.08764  0.64299  1.0000
  H   H41       1.0  0.37955  0.20483000000000004  0.6474599999999998  1.0000
  H   H42       1.0  0.53582  0.1709  0.6052999999999997  1.0000
  H   H43       1.0  0.54808  0.02744  0.55633  1.0000
  H   H44       1.0  0.40648  0.92081  0.55182  1.0000
  H   H45       1.0  0.2883  0.01549  0.4575799999999999  1.0000
  H   H46       1.0  0.27941  0.13768  0.52103  1.0000
  H   H47       1.0  0.30011  0.21233  0.34903  1.0000
  H   H48       1.0  0.74483  0.47046  0.75554  1.0000
  H   H49       1.0  0.59943  0.45282  0.80655  1.0000
  H   H50       1.0  0.5823  0.45672  0.63061  1.0000
  H   H51       1.0  0.25294  0.58764  0.64299  1.0000
  H   H52       1.0  0.12045000000000003  0.70483  0.6474599999999998  1.0000
  H   H53       1.0  0.9641900000000002  0.6709  0.6052999999999997  1.0000
  H   H54       1.0  0.9519300000000003  0.52743  0.55633  1.0000
  H   H55       1.0  0.09353  0.4208100000000001  0.55182  1.0000
  H   H56       1.0  0.2117  0.98451  0.95758  1.0000
  H   H57       1.0  0.22060000000000005  0.8623100000000001  0.021029999999999993  1.0000
  H   H58       1.0  0.19989  0.78767  0.84903  1.0000
  H   H59       1.0  0.75517  0.52954  0.25555  1.0000
  H   H60       1.0  0.90058  0.54718  0.30655999999999994  1.0000
  H   H61       1.0  0.91771  0.54327  0.13061  1.0000
  H   H62       1.0  0.24706000000000006  0.41236  0.14298999999999998  1.0000
  H   H63       1.0  0.37955  0.29517  0.14745999999999995  1.0000
  H   H64       1.0  0.53582  0.3291  0.10530999999999999  1.0000
  H   H65       1.0  0.54808  0.47256  0.05633  1.0000
  H   H66       1.0  0.40648  0.57919  0.05183  1.0000
  H   H67       1.0  0.7117  0.51548  0.04241999999999999  1.0000
  H   H68       1.0  0.7206000000000002  0.63768  0.9789599999999998  1.0000
  H   H69       1.0  0.69989  0.71233  0.15096  1.0000
  H   H70       1.0  0.25517  0.9704600000000001  0.74445  1.0000
  H   H71       1.0  0.40057  0.9528200000000001  0.69344  1.0000
  H   H72       1.0  0.4177  0.95672  0.86939  1.0000
  H   H73       1.0  0.74707  0.08764  0.8570099999999999  1.0000
  H   H74       1.0  0.87955  0.20483000000000004  0.8525399999999997  1.0000
  H   H75       1.0  0.03582  0.1709  0.8946899999999999  1.0000
  H   H76       1.0  0.04808  0.02744  0.94367  1.0000
  H   H77       1.0  0.90648  0.92081  0.94817  1.0000
  H   H78       1.0  0.7883  0.48451  0.54242  1.0000
  H   H79       1.0  0.77941  0.36232  0.47896999999999995  1.0000
  H   H80       1.0  0.80011  0.28767  0.6509599999999998  1.0000
  H   H81       1.0  0.24483000000000005  0.02954  0.24445  1.0000
  H   H82       1.0  0.09943000000000002  0.04718  0.19343999999999995  1.0000
  H   H83       1.0  0.0823  0.04328  0.3693899999999999  1.0000
  H   H84       1.0  0.7529400000000003  0.91236  0.35701  1.0000
  H   H85       1.0  0.62046  0.79517  0.3525399999999999  1.0000
  H   H86       1.0  0.4641900000000001  0.8291  0.39469  1.0000
  H   H87       1.0  0.45192  0.97256  0.44367  1.0000
  H   H88       1.0  0.59353  0.07919  0.4481699999999999  1.0000
  C   C1        1.0  0.7100400000000001  0.91165  0.5517299999999999  1.0000
  C   C2        1.0  0.71652  0.84374  0.51673  1.0000
  C   C3        1.0  0.72172  0.7511800000000001  0.53048  1.0000
  C   C4        1.0  0.7153  0.72893  0.57946  1.0000
  C   C5        1.0  0.70557  0.80079  0.61247  1.0000
  C   C6        1.0  0.7436300000000002  0.67811  0.49384  1.0000
  C   C7        1.0  0.71903  0.63103  0.5975  1.0000
  C   C8        1.0  0.32575000000000004  0.53782  0.26055  1.0000
  C   C9        1.0  0.40703  0.54844  0.23232999999999995  1.0000
  C   C10       1.0  0.49703  0.55903  0.25388  1.0000
  C   C11       1.0  0.50172  0.55888  0.30436  1.0000
  C   C12       1.0  0.41691000000000006  0.5476  0.3304  1.0000
  C   C13       1.0  0.5836700000000001  0.57237  0.22219999999999995  1.0000
  C   C14       1.0  0.59487  0.55945  0.33116  1.0000
  C   C15       1.0  0.8140500000000003  0.42121  0.37647999999999987  1.0000
  C   C16       1.0  0.8886800000000002  0.3578  0.37354  1.0000
  C   C17       1.0  0.97485  0.37584  0.39734999999999987  1.0000
  C   C18       1.0  0.98238  0.45667  0.42429999999999995  1.0000
  C   C19       1.0  0.90502  0.51697  0.42647  1.0000
  C   C20       1.0  0.78996  0.08834  0.051729999999999984  1.0000
  C   C21       1.0  0.7834900000000002  0.15626  0.01673  1.0000
  C   C22       1.0  0.77829  0.24882  0.03048  1.0000
  C   C23       1.0  0.78471  0.27107  0.07946  1.0000
  C   C24       1.0  0.79444  0.19921  0.11246999999999997  1.0000
  C   C25       1.0  0.75638  0.32189  0.99384  1.0000
  C   C26       1.0  0.7809700000000002  0.36896  0.0975  1.0000
  C   C27       1.0  0.17426000000000003  0.46218  0.76055  1.0000
  C   C28       1.0  0.09297  0.4515600000000001  0.73232  1.0000
  C   C29       1.0  0.00298  0.44097000000000003  0.7538799999999998  1.0000
  C   C30       1.0  0.9982900000000001  0.44112  0.80435  1.0000
  C   C31       1.0  0.08309000000000002  0.4524  0.8304  1.0000
  C   C32       1.0  0.9163400000000002  0.42763  0.7222  1.0000
  C   C33       1.0  0.9051300000000002  0.44054  0.8311599999999998  1.0000
  C   C34       1.0  0.68595  0.57879  0.87648  1.0000
  C   C35       1.0  0.61133  0.6422  0.8735399999999999  1.0000
  C   C36       1.0  0.52515  0.62415  0.8973499999999998  1.0000
  C   C37       1.0  0.51763  0.54333  0.9243  1.0000
  C   C38       1.0  0.59499  0.48303  0.9264699999999998  1.0000
  C   C39       1.0  0.28996  0.41165  0.9482599999999999  1.0000
  C   C40       1.0  0.28349  0.34374  0.98327  1.0000
  C   C41       1.0  0.27829  0.25118  0.9695099999999998  1.0000
  C   C42       1.0  0.2847  0.22893  0.92054  1.0000
  C   C43       1.0  0.29444  0.30079  0.8875199999999998  1.0000
  C   C44       1.0  0.25638  0.17811  0.006149999999999999  1.0000
  C   C45       1.0  0.28097  0.13103  0.9025  1.0000
  C   C46       1.0  0.67426  0.03782  0.23944999999999997  1.0000
  C   C47       1.0  0.5929800000000002  0.04844  0.26767  1.0000
  C   C48       1.0  0.50298  0.05903  0.24612  1.0000
  C   C49       1.0  0.4982900000000001  0.05888  0.19564  1.0000
  C   C50       1.0  0.5830900000000002  0.0476  0.1696  1.0000
  C   C51       1.0  0.41634  0.07237  0.27779  1.0000
  C   C52       1.0  0.40513  0.05946  0.16884  1.0000
  C   C53       1.0  0.18595  0.92121  0.12351999999999998  1.0000
  C   C54       1.0  0.11132  0.8578  0.12646  1.0000
  C   C55       1.0  0.02515  0.87584  0.10264999999999998  1.0000
  C   C56       1.0  0.01763  0.95666  0.0757  1.0000
  C   C57       1.0  0.09499  0.01697  0.07353  1.0000
  C   C58       1.0  0.21004  0.58834  0.44826  1.0000
  C   C59       1.0  0.21651  0.6562600000000001  0.48327  1.0000
  C   C60       1.0  0.22172  0.74882  0.46952  1.0000
  C   C61       1.0  0.21530000000000002  0.7710600000000001  0.42054  1.0000
  C   C62       1.0  0.20557  0.69921  0.38753  1.0000
  C   C63       1.0  0.24362  0.82188  0.50615  1.0000
  C   C64       1.0  0.21903000000000006  0.8689600000000001  0.4025  1.0000
  C   C65       1.0  0.82575  0.96217  0.73945  1.0000
  C   C66       1.0  0.90703  0.95156  0.76767  1.0000
  C   C67       1.0  0.9970300000000002  0.94097  0.7461199999999998  1.0000
  C   C68       1.0  0.00172  0.94112  0.69564  1.0000
  C   C69       1.0  0.91691  0.9524  0.6696  1.0000
  C   C70       1.0  0.08367000000000001  0.92763  0.77779  1.0000
  C   C71       1.0  0.09487  0.94054  0.6688299999999998  1.0000
  C   C72       1.0  0.31405000000000005  0.07879  0.62351  1.0000
  C   C73       1.0  0.3886800000000001  0.1422  0.62646  1.0000
  C   C74       1.0  0.47485000000000005  0.12415  0.6026499999999999  1.0000
  C   C75       1.0  0.48237  0.04333000000000001  0.5757  1.0000
  C   C76       1.0  0.40502  0.98303  0.5735299999999999  1.0000
  C   C77       1.0  0.28996  0.08834  0.44826  1.0000
  C   C78       1.0  0.28349  0.15626  0.48327  1.0000
  C   C79       1.0  0.27828  0.24882  0.46952  1.0000
  C   C80       1.0  0.2847  0.27107  0.42054  1.0000
  C   C81       1.0  0.29444  0.19921  0.38753  1.0000
  C   C82       1.0  0.25638  0.32189  0.50615  1.0000
  C   C83       1.0  0.28097  0.36896  0.4025  1.0000
  C   C84       1.0  0.67426  0.46218  0.73945  1.0000
  C   C85       1.0  0.5929800000000002  0.4515600000000001  0.76767  1.0000
  C   C86       1.0  0.50298  0.44097000000000003  0.7461199999999998  1.0000
  C   C87       1.0  0.4982900000000001  0.44112  0.69564  1.0000
  C   C88       1.0  0.5830900000000002  0.4524  0.6696  1.0000
  C   C89       1.0  0.41634  0.42763  0.77779  1.0000
  C   C90       1.0  0.40513  0.44054  0.6688299999999998  1.0000
  C   C91       1.0  0.18595  0.57879  0.62351  1.0000
  C   C92       1.0  0.11132  0.6422  0.62646  1.0000
  C   C93       1.0  0.02515  0.62415  0.6026499999999999  1.0000
  C   C94       1.0  0.01763  0.54333  0.5757  1.0000
  C   C95       1.0  0.09499  0.48303  0.5735299999999999  1.0000
  C   C96       1.0  0.21004  0.91165  0.9482599999999999  1.0000
  C   C97       1.0  0.21651  0.84374  0.98327  1.0000
  C   C98       1.0  0.22172  0.7511800000000001  0.9695099999999998  1.0000
  C   C99       1.0  0.21530000000000002  0.72893  0.92054  1.0000
  C   C100      1.0  0.20557  0.80079  0.8875199999999998  1.0000
  C   C101      1.0  0.24362  0.67811  0.006149999999999999  1.0000
  C   C102      1.0  0.21903000000000006  0.63103  0.9025  1.0000
  C   C103      1.0  0.82575  0.53782  0.23944999999999997  1.0000
  C   C104      1.0  0.90703  0.54844  0.26767  1.0000
  C   C105      1.0  0.9970300000000002  0.55903  0.24612  1.0000
  C   C106      1.0  0.00172  0.55888  0.19564  1.0000
  C   C107      1.0  0.91691  0.5476  0.1696  1.0000
  C   C108      1.0  0.08366  0.57237  0.2778  1.0000
  C   C109      1.0  0.09487  0.55945  0.16884  1.0000
  C   C110      1.0  0.31405000000000005  0.42121  0.12351999999999998  1.0000
  C   C111      1.0  0.3886800000000001  0.3578  0.12646  1.0000
  C   C112      1.0  0.47485000000000005  0.37584  0.10264999999999998  1.0000
  C   C113      1.0  0.48237  0.45667  0.0757  1.0000
  C   C114      1.0  0.40502  0.51697  0.07353  1.0000
  C   C115      1.0  0.7100400000000001  0.58834  0.051729999999999984  1.0000
  C   C116      1.0  0.71652  0.6562600000000001  0.01673  1.0000
  C   C117      1.0  0.72172  0.74882  0.03048  1.0000
  C   C118      1.0  0.7153  0.7710600000000001  0.07946  1.0000
  C   C119      1.0  0.70557  0.69921  0.11246999999999997  1.0000
  C   C120      1.0  0.7436300000000002  0.82188  0.99384  1.0000
  C   C121      1.0  0.71903  0.8689600000000001  0.0975  1.0000
  C   C122      1.0  0.32575000000000004  0.96217  0.76055  1.0000
  C   C123      1.0  0.40703  0.95156  0.73232  1.0000
  C   C124      1.0  0.49703  0.94097  0.7538799999999998  1.0000
  C   C125      1.0  0.50172  0.94112  0.80435  1.0000
  C   C126      1.0  0.41691000000000006  0.9524  0.8304  1.0000
  C   C127      1.0  0.5836700000000001  0.92763  0.7222  1.0000
  C   C128      1.0  0.59487  0.94054  0.8311599999999998  1.0000
  C   C129      1.0  0.8140500000000003  0.07879  0.87648  1.0000
  C   C130      1.0  0.8886800000000002  0.1422  0.8735399999999999  1.0000
  C   C131      1.0  0.97485  0.12415  0.8973499999999998  1.0000
  C   C132      1.0  0.98238  0.04333000000000001  0.9243  1.0000
  C   C133      1.0  0.90502  0.98303  0.9264699999999998  1.0000
  C   C134      1.0  0.78996  0.41165  0.5517299999999999  1.0000
  C   C135      1.0  0.7834900000000002  0.34374  0.51673  1.0000
  C   C136      1.0  0.77829  0.25118  0.53048  1.0000
  C   C137      1.0  0.78471  0.22893  0.57946  1.0000
  C   C138      1.0  0.79444  0.30079  0.61247  1.0000
  C   C139      1.0  0.75638  0.17811  0.49384  1.0000
  C   C140      1.0  0.7809700000000002  0.13103  0.5975  1.0000
  C   C141      1.0  0.17426000000000003  0.03782  0.26055  1.0000
  C   C142      1.0  0.09297  0.04844  0.23232999999999995  1.0000
  C   C143      1.0  0.00297  0.05903  0.25388  1.0000
  C   C144      1.0  0.9982900000000001  0.05888  0.30436  1.0000
  C   C145      1.0  0.08309000000000002  0.0476  0.3304  1.0000
  C   C146      1.0  0.9163400000000002  0.07237  0.22219999999999995  1.0000
  C   C147      1.0  0.9051300000000002  0.05946  0.33116  1.0000
  C   C148      1.0  0.68596  0.92121  0.37647999999999987  1.0000
  C   C149      1.0  0.61133  0.8578  0.37354  1.0000
  C   C150      1.0  0.52516  0.87584  0.39734999999999987  1.0000
  C   C151      1.0  0.51763  0.95666  0.42429999999999995  1.0000
  C   C152      1.0  0.59499  0.01697  0.42647  1.0000
  N   N1        1.0  0.70426  0.89018  0.59893  1.0000
  N   N2        1.0  0.33082  0.53658  0.30903  1.0000
  N   N3        1.0  0.82167  0.50003  0.40266  1.0000
  N   N4        1.0  0.7957400000000002  0.10982  0.09894  1.0000
  N   N5        1.0  0.16919000000000006  0.46341  0.80903  1.0000
  N   N6        1.0  0.67834  0.49997  0.90266  1.0000
  N   N7        1.0  0.29574  0.39018  0.9010599999999998  1.0000
  N   N8        1.0  0.66919  0.03658  0.19097  1.0000
  N   N9        1.0  0.17833  3e-05  0.09734  1.0000
  N   N10       1.0  0.20426  0.60982  0.40106  1.0000
  N   N11       1.0  0.83082  0.96341  0.69097  1.0000
  N   N12       1.0  0.32167  0.99997  0.59734  1.0000
  N   N13       1.0  0.29574  0.10982  0.40106  1.0000
  N   N14       1.0  0.66919  0.46341  0.69097  1.0000
  N   N15       1.0  0.17833  0.49997  0.59734  1.0000
  N   N16       1.0  0.20426  0.89018  0.9010599999999998  1.0000
  N   N17       1.0  0.83082  0.53658  0.19097  1.0000
  N   N18       1.0  0.32167  0.50003  0.09734  1.0000
  N   N19       1.0  0.70426  0.60982  0.09894  1.0000
  N   N20       1.0  0.33082  0.96341  0.80903  1.0000
  N   N21       1.0  0.82167  0.99997  0.90266  1.0000
  N   N22       1.0  0.7957400000000002  0.39018  0.59893  1.0000
  N   N23       1.0  0.16919000000000006  0.03658  0.30903  1.0000
  N   N24       1.0  0.67834  3e-05  0.40266  1.0000
  O   O1        1.0  0.7024500000000002  0.68994  0.45218  1.0000
  O   O2        1.0  0.79992  0.6148  0.50449  1.0000
  O   O3        1.0  0.79089  0.61579  0.62607  1.0000
  O   O4        1.0  0.65612  0.57473  0.58553  1.0000
  O   O5        1.0  0.5955  0.5051  0.19206  1.0000
  O   O6        1.0  0.6328  0.64354  0.22600999999999993  1.0000
  O   O7        1.0  0.6649500000000003  0.51445  0.31631999999999993  1.0000
  O   O8        1.0  0.5947500000000002  0.60614  0.37151  1.0000
  O   O9        1.0  0.79756  0.31005  0.9521799999999998  1.0000
  O   O10       1.0  0.70009  0.3852  0.004489999999999999  1.0000
  O   O11       1.0  0.70912  0.38421  0.12607  1.0000
  O   O12       1.0  0.84389  0.42527  0.08553  1.0000
  O   O13       1.0  0.90451  0.4949  0.6920599999999998  1.0000
  O   O14       1.0  0.86721  0.35645  0.726  1.0000
  O   O15       1.0  0.83505  0.4855400000000001  0.81632  1.0000
  O   O16       1.0  0.9052600000000001  0.39386  0.87151  1.0000
  O   O17       1.0  0.29755  0.18994  0.047819999999999994  1.0000
  O   O18       1.0  0.20008000000000006  0.11480000000000003  0.9954999999999998  1.0000
  O   O19       1.0  0.20911  0.11579  0.87393  1.0000
  O   O20       1.0  0.34388000000000013  0.07473  0.91446  1.0000
  O   O21       1.0  0.4045  0.0051  0.30794  1.0000
  O   O22       1.0  0.36721  0.14354  0.27399  1.0000
  O   O23       1.0  0.33505  0.01446  0.18367999999999995  1.0000
  O   O24       1.0  0.40526  0.10614  0.12848  1.0000
  O   O25       1.0  0.20245  0.81005  0.54782  1.0000
  O   O26       1.0  0.2999200000000001  0.8852  0.4954999999999999  1.0000
  O   O27       1.0  0.29089  0.88421  0.37393  1.0000
  O   O28       1.0  0.15612  0.92526  0.41446999999999995  1.0000
  O   O29       1.0  0.09550000000000003  0.9949  0.8079299999999999  1.0000
  O   O30       1.0  0.1328  0.85646  0.77399  1.0000
  O   O31       1.0  0.16495  0.98554  0.68368  1.0000
  O   O32       1.0  0.09474  0.89386  0.62848  1.0000
  O   O33       1.0  0.29755  0.31005  0.54782  1.0000
  O   O34       1.0  0.20008000000000006  0.3852  0.4954999999999999  1.0000
  O   O35       1.0  0.20911  0.38421  0.37393  1.0000
  O   O36       1.0  0.34389  0.42527  0.41446999999999995  1.0000
  O   O37       1.0  0.4045  0.4949  0.8079299999999999  1.0000
  O   O38       1.0  0.36721  0.35645  0.77399  1.0000
  O   O39       1.0  0.33505  0.4855400000000001  0.68368  1.0000
  O   O40       1.0  0.40526  0.39386  0.62848  1.0000
  O   O41       1.0  0.20245  0.68994  0.047819999999999994  1.0000
  O   O42       1.0  0.2999200000000001  0.6148  0.9954999999999998  1.0000
  O   O43       1.0  0.29089  0.61579  0.87393  1.0000
  O   O44       1.0  0.15612  0.57473  0.91447  1.0000
  O   O45       1.0  0.09550000000000003  0.5051  0.30793  1.0000
  O   O46       1.0  0.1328  0.64354  0.27399  1.0000
  O   O47       1.0  0.16495  0.51445  0.18367999999999995  1.0000
  O   O48       1.0  0.09474  0.60614  0.12848  1.0000
  O   O49       1.0  0.7024500000000002  0.81005  0.9521799999999998  1.0000
  O   O50       1.0  0.79992  0.8852  0.004489999999999999  1.0000
  O   O51       1.0  0.79089  0.88421  0.12607  1.0000
  O   O52       1.0  0.65612  0.92526  0.08553  1.0000
  O   O53       1.0  0.5955  0.9949  0.6920599999999998  1.0000
  O   O54       1.0  0.6328  0.85646  0.726  1.0000
  O   O55       1.0  0.6649500000000003  0.98554  0.81632  1.0000
  O   O56       1.0  0.5947500000000002  0.89386  0.87151  1.0000
  O   O57       1.0  0.79755  0.18994  0.45218  1.0000
  O   O58       1.0  0.70009  0.11480000000000003  0.50449  1.0000
  O   O59       1.0  0.70911  0.11579  0.62607  1.0000
  O   O60       1.0  0.84389  0.07473  0.58553  1.0000
  O   O61       1.0  0.9045  0.0051  0.19206  1.0000
  O   O62       1.0  0.86721  0.14354  0.22600999999999993  1.0000
  O   O63       1.0  0.83505  0.01446  0.31631999999999993  1.0000
  O   O64       1.0  0.9052600000000001  0.10614  0.37151  1.0000
