data_image0
_chemical_formula_structural       Cd6H64C112S16O32
_chemical_formula_sum              "Cd6 H64 C112 S16 O32"
_cell_length_a       12.62423
_cell_length_b       10.74942
_cell_length_c       28.62095
_cell_angle_alpha    89.84185
_cell_angle_beta     90.04119000000001
_cell_angle_gamma    118.86748

_space_group_name_H-M_alt    "P 1"
_space_group_IT_number       1

loop_
  _space_group_symop_operation_xyz
  'x, y, z'

loop_
  _atom_site_type_symbol
  _atom_site_label
  _atom_site_symmetry_multiplicity
  _atom_site_fract_x
  _atom_site_fract_y
  _atom_site_fract_z
  _atom_site_occupancy
  Cd  Cd1       1.0  0.09209000000000003  0.8962600000000001  0.8955900000000002  1.0000
  Cd  Cd2       1.0  0.40798  0.60148  0.39521  1.0000
  Cd  Cd3       1.0  0.90791  0.10373  0.10441000000000003  1.0000
  Cd  Cd4       1.0  0.59203  0.39851  0.60479  1.0000
  Cd  Cd5       1.0  0.5  0.5  0.5  1.0000
  Cd  Cd6       1.0  0.0  0.0  0.0  1.0000
  H   H1        1.0  0.9427700000000001  0.609  0.7606200000000001  1.0000
  H   H2        1.0  0.87706  0.56299  0.6764500000000001  1.0000
  H   H3        1.0  0.9557500000000001  0.7634  0.6207000000000003  1.0000
  H   H4        1.0  0.09316000000000002  0.0094  0.6477700000000001  1.0000
  H   H5        1.0  0.03768000000000002  0.2036  0.7054800000000002  1.0000
  H   H6        1.0  0.91592  0.30599  0.6721300000000002  1.0000
  H   H7        1.0  0.98885  0.46301  0.6019800000000002  1.0000
  H   H8        1.0  0.18746  0.51458  0.56556  1.0000
  H   H9        1.0  0.29396  0.20786  0.50201  1.0000
  H   H10       1.0  0.17952000000000004  0.04274  0.56557  1.0000
  H   H11       1.0  0.9702000000000001  0.9993499999999998  0.5850100000000003  1.0000
  H   H12       1.0  0.8814200000000002  0.12252  0.5406600000000001  1.0000
  H   H13       1.0  0.81124  0.14993  0.41586  1.0000
  H   H14       1.0  0.6362800000000001  0.0033499999999999997  0.365  1.0000
  H   H15       1.0  0.43349000000000004  0.97506  0.38328  1.0000
  H   H16       1.0  0.40857  0.09868  0.45351  1.0000
  H   H17       1.0  0.55813  0.89093  0.2601500000000001  1.0000
  H   H18       1.0  0.62407  0.93742  0.17591000000000004  1.0000
  H   H19       1.0  0.54855  0.73695  0.12069000000000002  1.0000
  H   H20       1.0  0.41209  0.49091  0.14806000000000005  1.0000
  H   H21       1.0  0.46031  0.29277  0.20593000000000006  1.0000
  H   H22       1.0  0.58115  0.18939  0.17269000000000007  1.0000
  H   H23       1.0  0.50852  0.03464  0.10233000000000003  1.0000
  H   H24       1.0  0.31103  0.98544  0.06568000000000003  1.0000
  H   H25       1.0  0.20651  0.29354  0.00132  1.0000
  H   H26       1.0  0.32199  0.45749  0.06479000000000003  1.0000
  H   H27       1.0  0.5303  0.49744999999999995  0.08442  1.0000
  H   H28       1.0  0.6174  0.37297  0.04007  1.0000
  H   H29       1.0  0.6850399999999999  0.35057  0.91584  1.0000
  H   H30       1.0  0.8586900000000002  0.49971000000000004  0.8645600000000002  1.0000
  H   H31       1.0  0.062000000000000034  0.52803  0.8815300000000003  1.0000
  H   H32       1.0  0.08961  0.40388  0.9513600000000002  1.0000
  H   H33       1.0  0.05724000000000003  0.39099  0.23937  1.0000
  H   H34       1.0  0.12294  0.43701  0.3235500000000001  1.0000
  H   H35       1.0  0.04424999999999997  0.23658999999999997  0.37929  1.0000
  H   H36       1.0  0.90685  0.9906  0.3522300000000001  1.0000
  H   H37       1.0  0.9623300000000001  0.7963900000000002  0.2945200000000001  1.0000
  H   H38       1.0  0.08408  0.69401  0.32787  1.0000
  H   H39       1.0  0.011159999999999998  0.53698  0.3980100000000001  1.0000
  H   H40       1.0  0.8125400000000002  0.48541  0.4344400000000001  1.0000
  H   H41       1.0  0.70604  0.79214  0.4979900000000001  1.0000
  H   H42       1.0  0.8204800000000002  0.9572600000000001  0.43443  1.0000
  H   H43       1.0  0.029810000000000007  0.0006399999999999989  0.41499000000000014  1.0000
  H   H44       1.0  0.11858000000000013  0.8774800000000001  0.4593300000000001  1.0000
  H   H45       1.0  0.18877000000000005  0.8500700000000001  0.58414  1.0000
  H   H46       1.0  0.36372  0.99665  0.6349900000000003  1.0000
  H   H47       1.0  0.56652  0.02494  0.61672  1.0000
  H   H48       1.0  0.59143  0.90132  0.5464900000000001  1.0000
  H   H49       1.0  0.44188  0.10906999999999999  0.73985  1.0000
  H   H50       1.0  0.37593  0.06258  0.8240900000000001  1.0000
  H   H51       1.0  0.45146  0.26304  0.8793100000000001  1.0000
  H   H52       1.0  0.58791  0.50909  0.8519400000000003  1.0000
  H   H53       1.0  0.53969  0.70722  0.7940700000000002  1.0000
  H   H54       1.0  0.41885  0.8106  0.8273100000000002  1.0000
  H   H55       1.0  0.49148000000000003  0.96535  0.89766  1.0000
  H   H56       1.0  0.68897  0.014560000000000002  0.93431  1.0000
  H   H57       1.0  0.7935  0.70646  0.9986700000000002  1.0000
  H   H58       1.0  0.67802  0.54251  0.9352100000000002  1.0000
  H   H59       1.0  0.4697  0.50254  0.91558  1.0000
  H   H60       1.0  0.38261  0.62702  0.9599300000000002  1.0000
  H   H61       1.0  0.31497  0.64943  0.08416  1.0000
  H   H62       1.0  0.14132  0.50028  0.13543  1.0000
  H   H63       1.0  0.9380099999999999  0.47196  0.11846  1.0000
  H   H64       1.0  0.9103900000000001  0.59611  0.04864000000000002  1.0000
  C   C1        1.0  0.07743  0.85539  0.80219  1.0000
  C   C2        1.0  0.050069999999999955  0.83309  0.75146  1.0000
  C   C3        1.0  0.9744900000000002  0.69508  0.73525  1.0000
  C   C4        1.0  0.93975  0.66945  0.6884600000000002  1.0000
  C   C5        1.0  0.9838100000000001  0.78358  0.65702  1.0000
  C   C6        1.0  0.06004  0.92113  0.67221  1.0000
  C   C7        1.0  0.09336  0.94896  0.71962  1.0000
  C   C8        1.0  0.33942000000000005  0.42271  0.5914800000000001  1.0000
  C   C9        1.0  0.22462  0.39336  0.61544  1.0000
  C   C10       1.0  0.1833  0.30464  0.6556400000000001  1.0000
  C   C11       1.0  0.07102000000000003  0.2737  0.6752900000000002  1.0000
  C   C12       1.0  0.00254999999999999  0.33152  0.6563400000000003  1.0000
  C   C13       1.0  0.043449999999999975  0.41965  0.61694  1.0000
  C   C14       1.0  0.15363  0.44896  0.5967300000000002  1.0000
  C   C15       1.0  0.22933000000000003  0.36806  0.4489500000000001  1.0000
  C   C16       1.0  0.15661  0.26506  0.48602  1.0000
  C   C17       1.0  0.20403  0.19067  0.51071  1.0000
  C   C18       1.0  0.13883  0.09666000000000001  0.5465700000000001  1.0000
  C   C19       1.0  0.02304  0.07359  0.5575400000000001  1.0000
  C   C20       1.0  0.97247  0.14319  0.5326100000000002  1.0000
  C   C21       1.0  0.038360000000000005  0.24068000000000003  0.49704  1.0000
  C   C22       1.0  0.7077300000000001  0.1996  0.46526000000000006  1.0000
  C   C23       1.0  0.72248  0.13615  0.42459  1.0000
  C   C24       1.0  0.62434  0.055720000000000006  0.3954900000000001  1.0000
  C   C25       1.0  0.51008  0.03984  0.40567  1.0000
  C   C26       1.0  0.4956  0.10682999999999998  0.4449000000000001  1.0000
  C   C27       1.0  0.59238  0.18593000000000004  0.47505000000000003  1.0000
  C   C28       1.0  0.5709200000000002  0.2514  0.5171700000000001  1.0000
  C   C29       1.0  0.42353000000000013  0.64373  0.30197  1.0000
  C   C30       1.0  0.45127  0.66668  0.25125000000000003  1.0000
  C   C31       1.0  0.52676  0.80488  0.23492000000000005  1.0000
  C   C32       1.0  0.56211  0.83078  0.18815000000000004  1.0000
  C   C33       1.0  0.51969  0.7167  0.15695  1.0000
  C   C34       1.0  0.44372  0.57907  0.17230000000000006  1.0000
  C   C35       1.0  0.40857  0.55106  0.21956000000000003  1.0000
  C   C36       1.0  0.16051000000000004  0.07982  0.09090000000000002  1.0000
  C   C37       1.0  0.27434  0.10725000000000001  0.11536000000000003  1.0000
  C   C38       1.0  0.31579  0.19525  0.15558000000000005  1.0000
  C   C39       1.0  0.42719  0.2239  0.17557  1.0000
  C   C40       1.0  0.4951  0.16543  0.15671  1.0000
  C   C41       1.0  0.45429  0.07841  0.11722000000000003  1.0000
  C   C42       1.0  0.34465  0.05055  0.09686000000000003  1.0000
  C   C43       1.0  0.26917  0.13131  0.9487200000000002  1.0000
  C   C44       1.0  0.34236000000000005  0.23391  0.9855800000000001  1.0000
  C   C45       1.0  0.2959900000000001  0.30931  0.010110000000000003  1.0000
  C   C46       1.0  0.36175000000000007  0.40257  0.04593  1.0000
  C   C47       1.0  0.47704  0.42398  0.056960000000000004  1.0000
  C   C48       1.0  0.5266  0.35348  0.0321  1.0000
  C   C49       1.0  0.46018  0.25674  0.99659  1.0000
  C   C50       1.0  0.79023  0.30073  0.9644700000000003  1.0000
  C   C51       1.0  0.77424  0.36496000000000006  0.9241100000000002  1.0000
  C   C52       1.0  0.8716500000000001  0.44672  0.8947800000000002  1.0000
  C   C53       1.0  0.98627  0.46270999999999995  0.9043300000000002  1.0000
  C   C54       1.0  0.002060000000000013  0.39524  0.9433300000000002  1.0000
  C   C55       1.0  0.9060499999999999  0.3154  0.9738300000000002  1.0000
  C   C56       1.0  0.92801  0.24928  0.01576  1.0000
  C   C57       1.0  0.9225800000000001  0.14461  0.19781000000000007  1.0000
  C   C58       1.0  0.9499400000000002  0.1669  0.24853000000000006  1.0000
  C   C59       1.0  0.025509999999999998  0.30492  0.26474  1.0000
  C   C60       1.0  0.06025  0.33054  0.31154  1.0000
  C   C61       1.0  0.01620000000000001  0.21642  0.34298  1.0000
  C   C62       1.0  0.9399600000000001  0.07887  0.32779  1.0000
  C   C63       1.0  0.9066400000000002  0.05103  0.28038  1.0000
  C   C64       1.0  0.66058  0.57729  0.4085200000000001  1.0000
  C   C65       1.0  0.77539  0.60664  0.38456  1.0000
  C   C66       1.0  0.81671  0.69535  0.3443600000000001  1.0000
  C   C67       1.0  0.9289800000000001  0.7263  0.32471  1.0000
  C   C68       1.0  0.99746  0.66848  0.3436600000000001  1.0000
  C   C69       1.0  0.95655  0.58034  0.38306  1.0000
  C   C70       1.0  0.84638  0.55103  0.4032700000000001  1.0000
  C   C71       1.0  0.77067  0.63193  0.5510400000000002  1.0000
  C   C72       1.0  0.84339  0.73494  0.5139800000000001  1.0000
  C   C73       1.0  0.7959700000000001  0.80933  0.4892900000000001  1.0000
  C   C74       1.0  0.8611700000000001  0.9033400000000001  0.45343  1.0000
  C   C75       1.0  0.97697  0.9264  0.4424500000000001  1.0000
  C   C76       1.0  0.027540000000000033  0.85681  0.46739000000000014  1.0000
  C   C77       1.0  0.9616500000000002  0.75931  0.5029600000000001  1.0000
  C   C78       1.0  0.29227  0.8004  0.53474  1.0000
  C   C79       1.0  0.27752  0.86385  0.57541  1.0000
  C   C80       1.0  0.37567000000000006  0.9442699999999999  0.60451  1.0000
  C   C81       1.0  0.48992999999999987  0.9601599999999999  0.5943200000000002  1.0000
  C   C82       1.0  0.5044100000000001  0.8931699999999999  0.5551  1.0000
  C   C83       1.0  0.40762  0.81407  0.52495  1.0000
  C   C84       1.0  0.42908  0.7486  0.48282000000000014  1.0000
  C   C85       1.0  0.57648  0.35627  0.6980300000000003  1.0000
  C   C86       1.0  0.54874  0.33332  0.74874  1.0000
  C   C87       1.0  0.47324  0.19512  0.7650800000000002  1.0000
  C   C88       1.0  0.43789  0.16922  0.8118500000000002  1.0000
  C   C89       1.0  0.48032  0.2833  0.8430500000000002  1.0000
  C   C90       1.0  0.5562800000000001  0.42092  0.8277000000000002  1.0000
  C   C91       1.0  0.59143  0.44894000000000006  0.7804400000000002  1.0000
  C   C92       1.0  0.83949  0.9201799999999999  0.9090900000000002  1.0000
  C   C93       1.0  0.72566  0.89275  0.8846400000000002  1.0000
  C   C94       1.0  0.68421  0.80474  0.8444200000000001  1.0000
  C   C95       1.0  0.57281  0.77609  0.8244300000000002  1.0000
  C   C96       1.0  0.5049  0.83457  0.84329  1.0000
  C   C97       1.0  0.54571  0.92158  0.88278  1.0000
  C   C98       1.0  0.65535  0.94945  0.9031300000000002  1.0000
  C   C99       1.0  0.73084  0.86869  0.05127000000000002  1.0000
  C   C100      1.0  0.65764  0.76609  0.014410000000000003  1.0000
  C   C101      1.0  0.7040100000000001  0.69069  0.9898900000000003  1.0000
  C   C102      1.0  0.63826  0.59742  0.9540700000000002  1.0000
  C   C103      1.0  0.52297  0.57601  0.9430400000000001  1.0000
  C   C104      1.0  0.47340000000000004  0.64652  0.9679000000000002  1.0000
  C   C105      1.0  0.53983  0.7432600000000001  0.0034000000000000007  1.0000
  C   C106      1.0  0.20978000000000002  0.69927  0.03553000000000001  1.0000
  C   C107      1.0  0.22577  0.63503  0.07588  1.0000
  C   C108      1.0  0.12836  0.55328  0.10522000000000002  1.0000
  C   C109      1.0  0.01373000000000001  0.53729  0.09566000000000001  1.0000
  C   C110      1.0  0.99795  0.6047600000000001  0.056660000000000016  1.0000
  C   C111      1.0  0.09396  0.68459  0.026160000000000006  1.0000
  C   C112      1.0  0.07198999999999998  0.75072  0.9842300000000003  1.0000
  S   S1        1.0  0.82816  0.29666  0.50533  1.0000
  S   S2        1.0  0.97892  0.33484  0.4652500000000001  1.0000
  S   S3        1.0  0.27181000000000005  0.22926  0.6780200000000002  1.0000
  S   S4        1.0  0.18207000000000004  0.12591  0.73959  1.0000
  S   S5        1.0  0.6704400000000001  0.20126  0.00466  1.0000
  S   S6        1.0  0.51905  0.16232  0.9648800000000002  1.0000
  S   S7        1.0  0.22886  0.27296  0.17759  1.0000
  S   S8        1.0  0.31786  0.37396  0.23946000000000006  1.0000
  S   S9        1.0  0.17185  0.70334  0.4946700000000001  1.0000
  S   S10       1.0  0.021090000000000005  0.66516  0.53475  1.0000
  S   S11       1.0  0.7282000000000002  0.77073  0.32198  1.0000
  S   S12       1.0  0.81794  0.8740899999999999  0.2604  1.0000
  S   S13       1.0  0.32957000000000003  0.79874  0.9953400000000002  1.0000
  S   S14       1.0  0.48095000000000004  0.83768  0.03512  1.0000
  S   S15       1.0  0.7711400000000002  0.72704  0.82241  1.0000
  S   S16       1.0  0.68215  0.62603  0.7605400000000002  1.0000
  O   O1        1.0  0.04721  0.74883  0.8292300000000002  1.0000
  O   O2        1.0  0.12813000000000005  0.98322  0.8174100000000002  1.0000
  O   O3        1.0  0.17918000000000003  0.41714  0.4220300000000001  1.0000
  O   O4        1.0  0.34341  0.40553  0.44476  1.0000
  O   O5        1.0  0.48145  0.27507  0.51873  1.0000
  O   O6        1.0  0.64613  0.28126  0.55092  1.0000
  O   O7        1.0  0.39892  0.36889  0.6111200000000002  1.0000
  O   O8        1.0  0.36759000000000003  0.4947  0.55379  1.0000
  O   O9        1.0  0.45413  0.75012  0.32895000000000013  1.0000
  O   O10       1.0  0.37246000000000007  0.51559  0.31724  1.0000
  O   O11       1.0  0.31898  0.08138999999999999  0.9221000000000003  1.0000
  O   O12       1.0  0.15527  0.09432  0.9446000000000002  1.0000
  O   O13       1.0  0.01763999999999997  0.22612999999999997  0.01677  1.0000
  O   O14       1.0  0.8528  0.21869  0.04966000000000002  1.0000
  O   O15       1.0  0.10243  0.1372  0.10921  1.0000
  O   O16       1.0  0.13194  0.00578  0.053760000000000016  1.0000
  O   O17       1.0  0.9528  0.25117  0.17076000000000005  1.0000
  O   O18       1.0  0.87187  0.01677  0.18259000000000006  1.0000
  O   O19       1.0  0.8208300000000001  0.58286  0.57797  1.0000
  O   O20       1.0  0.65659  0.59446  0.5552400000000002  1.0000
  O   O21       1.0  0.51856  0.72493  0.4812700000000001  1.0000
  O   O22       1.0  0.35388  0.71873  0.4490800000000001  1.0000
  O   O23       1.0  0.60109  0.6311  0.3888800000000001  1.0000
  O   O24       1.0  0.63242  0.5053  0.44621000000000005  1.0000
  O   O25       1.0  0.54587  0.24988000000000002  0.6710500000000001  1.0000
  O   O26       1.0  0.62754  0.48440000000000005  0.68276  1.0000
  O   O27       1.0  0.6810200000000001  0.9186100000000001  0.0779  1.0000
  O   O28       1.0  0.84474  0.90567  0.05540000000000001  1.0000
  O   O29       1.0  0.98236  0.77387  0.9832300000000002  1.0000
  O   O30       1.0  0.14719999999999997  0.78131  0.9503400000000002  1.0000
  O   O31       1.0  0.8975700000000001  0.8628  0.8907900000000002  1.0000
  O   O32       1.0  0.86806  0.99421  0.94624  1.0000
