data_image0
_chemical_formula_structural       Na4Dy4H128C152O40
_chemical_formula_sum              "Na4 Dy4 H128 C152 O40"
_cell_length_a       13.57408
_cell_length_b       24.130570000000002
_cell_length_c       24.18039
_cell_angle_alpha    89.75063
_cell_angle_beta     89.84878
_cell_angle_gamma    89.92537

_space_group_name_H-M_alt    "P 1"
_space_group_IT_number       1

loop_
  _space_group_symop_operation_xyz
  'x, y, z'

loop_
  _atom_site_type_symbol
  _atom_site_label
  _atom_site_symmetry_multiplicity
  _atom_site_fract_x
  _atom_site_fract_y
  _atom_site_fract_z
  _atom_site_occupancy
  Na  Na1       1.0  0.24763  0.92502  0.4999799999999999  1.0000
  Na  Na2       1.0  0.74295  0.07497999999999999  0.49995999999999996  1.0000
  Na  Na3       1.0  0.00473  0.5000199999999999  0.93326  1.0000
  Na  Na4       1.0  0.50473  0.49998  0.06396  1.0000
  Dy  Dy1       1.0  0.9989  0.0  0.57386  1.0000
  Dy  Dy2       1.0  0.4999000000000001  0.99998  0.42240999999999995  1.0000
  Dy  Dy3       1.0  0.75413  0.42505  0.9974  1.0000
  Dy  Dy4       1.0  0.25117  0.57483  0.00024  1.0000
  H   H1        1.0  0.83881  0.9644299999999999  0.46854  1.0000
  H   H2        1.0  0.76258  0.94542  0.29742  1.0000
  H   H3        1.0  0.052940000000000015  0.8994999999999997  0.35495  1.0000
  H   H4        1.0  0.07347999999999999  0.95125  0.26709  1.0000
  H   H5        1.0  0.7864400000000002  0.8408899999999999  0.2967  1.0000
  H   H6        1.0  0.71739  0.8712899999999999  0.24204  1.0000
  H   H7        1.0  0.7710700000000001  0.8052899999999998  0.23308  1.0000
  H   H8        1.0  0.10268  0.9536599999999998  0.07966  1.0000
  H   H9        1.0  0.09029  0.01186  0.12436  1.0000
  H   H10       1.0  0.20768  0.99413  0.09812  1.0000
  H   H11       1.0  0.24393  0.86424  0.18267  1.0000
  H   H12       1.0  0.19449  0.8657899999999998  0.11438999999999999  1.0000
  H   H13       1.0  0.29715  0.9082499999999999  0.13179  1.0000
  H   H14       1.0  0.23099  0.9506099999999997  0.24432  1.0000
  H   H15       1.0  0.27957  0.99109  0.18909  1.0000
  H   H16       1.0  0.16638000000000006  0.0103  0.21945  1.0000
  H   H17       1.0  0.33543  0.03502  0.52937  1.0000
  H   H18       1.0  0.26045  0.0515  0.70134  1.0000
  H   H19       1.0  0.54976  0.09856  0.6427  1.0000
  H   H20       1.0  0.57207  0.046919999999999996  0.73071  1.0000
  H   H21       1.0  0.28424  0.15714  0.70148  1.0000
  H   H22       1.0  0.21604  0.12696  0.7568799999999999  1.0000
  H   H23       1.0  0.2687  0.19323  0.7649  1.0000
  H   H24       1.0  0.60067  0.04707  0.91765  1.0000
  H   H25       1.0  0.58932  0.98828  0.87365  1.0000
  H   H26       1.0  0.70609  0.00615  0.9001  1.0000
  H   H27       1.0  0.74301  0.13545  0.81424  1.0000
  H   H28       1.0  0.69288  0.13416  0.88248  1.0000
  H   H29       1.0  0.7961000000000003  0.09177999999999997  0.86535  1.0000
  H   H30       1.0  0.73117  0.047969999999999985  0.75312  1.0000
  H   H31       1.0  0.77951  0.008289999999999997  0.80891  1.0000
  H   H32       1.0  0.6666100000000001  0.98863  0.77894  1.0000
  H   H33       1.0  0.58872  0.52942  0.95979  1.0000
  H   H34       1.0  0.51416  0.7018399999999999  0.94276  1.0000
  H   H35       1.0  0.8063200000000001  0.64399  0.9003699999999999  1.0000
  H   H36       1.0  0.82427  0.73232  0.95038  1.0000
  H   H37       1.0  0.54296  0.70151  0.83668  1.0000
  H   H38       1.0  0.47107000000000004  0.75581  0.86558  1.0000
  H   H39       1.0  0.52783  0.7653099999999999  0.80052  1.0000
  H   H40       1.0  0.84795  0.92028  0.95283  1.0000
  H   H41       1.0  0.8373900000000002  0.8751699999999998  0.01118  1.0000
  H   H42       1.0  0.95379  0.9026899999999999  0.99317  1.0000
  H   H43       1.0  0.99292  0.8188699999999999  0.86395  1.0000
  H   H44       1.0  0.94169  0.8869699999999999  0.86562  1.0000
  H   H45       1.0  0.044760000000000015  0.86974  0.90793  1.0000
  H   H46       1.0  0.98185  0.75636  0.95055  1.0000
  H   H47       1.0  0.02792  0.8118799999999999  0.991  1.0000
  H   H48       1.0  0.9154800000000002  0.7803099999999998  0.00979  1.0000
  H   H49       1.0  0.0899  0.4709799999999999  0.03967  1.0000
  H   H50       1.0  0.015  0.29868999999999996  0.055929999999999994  1.0000
  H   H51       1.0  0.3073100000000001  0.35582  0.09790999999999998  1.0000
  H   H52       1.0  0.32699  0.26736  0.04905000000000001  1.0000
  H   H53       1.0  0.039950000000000006  0.2972  0.15988  1.0000
  H   H54       1.0  0.96993  0.2431  0.12962  1.0000
  H   H55       1.0  0.024030000000000006  0.23292  0.19511  1.0000
  H   H56       1.0  0.35114  0.08014  0.04782999999999999  1.0000
  H   H57       1.0  0.3402200000000001  0.12508  0.9894299999999999  1.0000
  H   H58       1.0  0.45659  0.09717999999999999  0.006760000000000001  1.0000
  H   H59       1.0  0.49649  0.18191999999999997  0.13563  1.0000
  H   H60       1.0  0.44599000000000005  0.11376  0.13455  1.0000
  H   H61       1.0  0.54882  0.13093  0.09181  1.0000
  H   H62       1.0  0.48455  0.24407999999999994  0.04889999999999999  1.0000
  H   H63       1.0  0.53132  0.1885  0.00859  1.0000
  H   H64       1.0  0.41858  0.21976999999999997  0.9899099999999998  1.0000
  H   H65       1.0  0.16156  0.03833  0.47029  1.0000
  H   H66       1.0  0.23521000000000003  0.05393  0.29806  1.0000
  H   H67       1.0  0.94436  0.0988  0.35618  1.0000
  H   H68       1.0  0.92421  0.04778  0.26768  1.0000
  H   H69       1.0  0.20882000000000006  0.15961  0.29742  1.0000
  H   H70       1.0  0.2804  0.1297  0.24357  1.0000
  H   H71       1.0  0.22472  0.19503999999999996  0.23334999999999997  1.0000
  H   H72       1.0  0.8977000000000002  0.04676999999999999  0.08017  1.0000
  H   H73       1.0  0.9097200000000002  0.98834  0.12509  1.0000
  H   H74       1.0  0.79262  0.00601  0.09855999999999998  1.0000
  H   H75       1.0  0.75456  0.13560999999999998  0.18229999999999996  1.0000
  H   H76       1.0  0.80563  0.13436999999999996  0.11427  1.0000
  H   H77       1.0  0.70277  0.09175  0.1314  1.0000
  H   H78       1.0  0.7660800000000002  0.048849999999999984  0.24439  1.0000
  H   H79       1.0  0.71872  0.00887  0.18895  1.0000
  H   H80       1.0  0.8311  0.9892599999999998  0.21989  1.0000
  H   H81       1.0  0.66123  0.96404  0.52739  1.0000
  H   H82       1.0  0.7347  0.9476599999999997  0.6995  1.0000
  H   H83       1.0  0.44558  0.9008199999999998  0.64135  1.0000
  H   H84       1.0  0.42452  0.9522  0.73053  1.0000
  H   H85       1.0  0.71067  0.8411099999999999  0.69951  1.0000
  H   H86       1.0  0.78002  0.86936  0.75494  1.0000
  H   H87       1.0  0.72462  0.8036299999999998  0.76258  1.0000
  H   H88       1.0  0.40035  0.9529499999999999  0.91805  1.0000
  H   H89       1.0  0.41086000000000006  0.01163  0.8733299999999999  1.0000
  H   H90       1.0  0.29454  0.9937299999999998  0.90101  1.0000
  H   H91       1.0  0.25603  0.86452  0.8165  1.0000
  H   H92       1.0  0.3073100000000001  0.86555  0.88433  1.0000
  H   H93       1.0  0.20394  0.9080999999999998  0.86778  1.0000
  H   H94       1.0  0.26678  0.95147  0.75474  1.0000
  H   H95       1.0  0.2199  0.99175  0.81031  1.0000
  H   H96       1.0  0.33241  0.010789999999999998  0.77897  1.0000
  H   H97       1.0  0.4163400000000001  0.46988  0.96058  1.0000
  H   H98       1.0  0.4918000000000001  0.29767  0.94278  1.0000
  H   H99       1.0  0.19902  0.35574  0.90215  1.0000
  H   H100      1.0  0.18005  0.26773  0.9523199999999999  1.0000
  H   H101      1.0  0.4640100000000001  0.29623  0.8383  1.0000
  H   H102      1.0  0.53315  0.24171  0.86921  1.0000
  H   H103      1.0  0.4792  0.23180999999999996  0.8037799999999999  1.0000
  H   H104      1.0  0.14841  0.08120999999999999  0.9529099999999999  1.0000
  H   H105      1.0  0.16042  0.12593  0.01107  1.0000
  H   H106      1.0  0.043280000000000006  0.09944999999999997  0.99376  1.0000
  H   H107      1.0  0.0048000000000000004  0.18453  0.86474  1.0000
  H   H108      1.0  0.053690000000000015  0.11588  0.86617  1.0000
  H   H109      1.0  0.95215  0.13405  0.90936  1.0000
  H   H110      1.0  0.019950000000000002  0.24653999999999995  0.95123  1.0000
  H   H111      1.0  0.9713400000000002  0.19108  0.99146  1.0000
  H   H112      1.0  0.08491  0.22086  0.01028  1.0000
  H   H113      1.0  0.91611  0.53032  0.0374  1.0000
  H   H114      1.0  0.98889  0.70265  0.05498  1.0000
  H   H115      1.0  0.69721  0.64361  0.09709  1.0000
  H   H116      1.0  0.67718  0.73204  0.04785  1.0000
  H   H117      1.0  0.96211  0.7029699999999998  0.15949  1.0000
  H   H118      1.0  0.03173  0.75776  0.12929  1.0000
  H   H119      1.0  0.97698  0.7669699999999999  0.19483  1.0000
  H   H120      1.0  0.6467700000000001  0.9188699999999999  0.04619  1.0000
  H   H121      1.0  0.65945  0.8741799999999998  0.9880699999999999  1.0000
  H   H122      1.0  0.54207  0.9006799999999999  0.005359999999999999  1.0000
  H   H123      1.0  0.50494  0.8150399999999999  0.13483  1.0000
  H   H124      1.0  0.554  0.8835499999999998  0.13373  1.0000
  H   H125      1.0  0.45151  0.8661499999999998  0.09125999999999998  1.0000
  H   H126      1.0  0.51869  0.7536099999999999  0.04836  1.0000
  H   H127      1.0  0.4704000000000001  0.80899  0.00806  1.0000
  H   H128      1.0  0.5839700000000002  0.7788699999999998  0.98914  1.0000
  C   C1        1.0  0.02567  0.9221  0.46226  1.0000
  C   C2        1.0  0.95291  0.93051  0.41625  1.0000
  C   C3        1.0  0.85924  0.9524899999999997  0.42676  1.0000
  C   C4        1.0  0.7914000000000002  0.95766  0.38344  1.0000
  C   C5        1.0  0.81691  0.94099  0.33006  1.0000
  C   C6        1.0  0.91185  0.9208199999999999  0.31845  1.0000
  C   C7        1.0  0.9794500000000002  0.91603  0.36215  1.0000
  C   C8        1.0  0.6912  0.97977  0.3937899999999999  1.0000
  C   C9        1.0  0.93892  0.90549  0.26149  1.0000
  C   C10       1.0  0.87538  0.8721599999999999  0.22863  1.0000
  C   C11       1.0  0.9045000000000002  0.86077  0.17477  1.0000
  C   C12       1.0  0.9975200000000001  0.88155  0.15142  1.0000
  C   C13       1.0  0.06138000000000001  0.9158399999999999  0.18648  1.0000
  C   C14       1.0  0.02946  0.9255699999999998  0.23986  1.0000
  C   C15       1.0  0.7827800000000003  0.84612  0.25173  1.0000
  C   C16       1.0  0.15799  0.93919  0.1639  1.0000
  C   C17       1.0  0.13771  0.97681  0.11306999999999999  1.0000
  C   C18       1.0  0.22728  0.89101  0.14706  1.0000
  C   C19       1.0  0.21144000000000002  0.9745899999999997  0.20723  1.0000
  C   C20       1.0  0.52273  0.07729  0.53583  1.0000
  C   C21       1.0  0.44955  0.06809  0.58159  1.0000
  C   C22       1.0  0.35611  0.04618  0.57126  1.0000
  C   C23       1.0  0.28897  0.040019999999999986  0.61499  1.0000
  C   C24       1.0  0.3146100000000001  0.05624  0.66849  1.0000
  C   C25       1.0  0.40922  0.07686  0.6798199999999999  1.0000
  C   C26       1.0  0.47631  0.08202  0.63576  1.0000
  C   C27       1.0  0.18916  0.01747  0.60495  1.0000
  C   C28       1.0  0.43701  0.09268999999999997  0.73657  1.0000
  C   C29       1.0  0.37395  0.12663000000000002  0.76938  1.0000
  C   C30       1.0  0.404  0.13900999999999997  0.82279  1.0000
  C   C31       1.0  0.49708  0.11823  0.8458499999999999  1.0000
  C   C32       1.0  0.56065  0.08346999999999999  0.81084  1.0000
  C   C33       1.0  0.52806  0.07291  0.75785  1.0000
  C   C34       1.0  0.2809  0.15227  0.7465200000000001  1.0000
  C   C35       1.0  0.6574  0.06045  0.83348  1.0000
  C   C36       1.0  0.63645  0.023409999999999997  0.8847199999999998  1.0000
  C   C37       1.0  0.72623  0.10881999999999999  0.8499599999999999  1.0000
  C   C38       1.0  0.71141  0.02453  0.79057  1.0000
  C   C39       1.0  0.77899  0.5365  0.92163  1.0000
  C   C40       1.0  0.7047500000000001  0.58226  0.92894  1.0000
  C   C41       1.0  0.60988  0.57158  0.9491799999999999  1.0000
  C   C42       1.0  0.54204  0.61513  0.95461  1.0000
  C   C43       1.0  0.56835  0.6688999999999998  0.9387299999999998  1.0000
  C   C44       1.0  0.66378  0.6805199999999998  0.91919  1.0000
  C   C45       1.0  0.73182  0.6367299999999999  0.91542  1.0000
  C   C46       1.0  0.44144  0.60474  0.97652  1.0000
  C   C47       1.0  0.6911500000000002  0.7375699999999998  0.9034199999999999  1.0000
  C   C48       1.0  0.62852  0.77024  0.86879  1.0000
  C   C49       1.0  0.6558500000000003  0.8246  0.8582499999999998  1.0000
  C   C50       1.0  0.74644  0.84866  0.88064  1.0000
  C   C51       1.0  0.8107  0.81348  0.91499  1.0000
  C   C52       1.0  0.78028  0.75955  0.92435  1.0000
  C   C53       1.0  0.53795  0.74654  0.8415299999999999  1.0000
  C   C54       1.0  0.90626  0.83652  0.93875  1.0000
  C   C55       1.0  0.88431  0.88711  0.9761  1.0000
  C   C56       1.0  0.97535  0.85419  0.8907  1.0000
  C   C57       1.0  0.9606400000000002  0.79322  0.9743  1.0000
  C   C58       1.0  0.28002  0.46357  0.07599  1.0000
  C   C59       1.0  0.20585  0.41772  0.06971  1.0000
  C   C60       1.0  0.11099000000000002  0.42872  0.05  1.0000
  C   C61       1.0  0.04325  0.3853  0.04482  1.0000
  C   C62       1.0  0.0693  0.33142  0.06035  1.0000
  C   C63       1.0  0.16486  0.31941  0.07934  1.0000
  C   C64       1.0  0.2329  0.36316  0.08299999999999999  1.0000
  C   C65       1.0  0.94311  0.39603  0.02317  1.0000
  C   C66       1.0  0.19177  0.26214  0.09472  1.0000
  C   C67       1.0  0.12775  0.22902  0.12807  1.0000
  C   C68       1.0  0.15612  0.17487999999999998  0.13967  1.0000
  C   C69       1.0  0.24952  0.15152  0.11956  1.0000
  C   C70       1.0  0.31369000000000014  0.18668  0.08494999999999998  1.0000
  C   C71       1.0  0.28229  0.24027  0.07487  1.0000
  C   C72       1.0  0.03562  0.25222  0.15445  1.0000
  C   C73       1.0  0.40987  0.16381  0.06129  1.0000
  C   C74       1.0  0.3875  0.11312  0.02424  1.0000
  C   C75       1.0  0.47923  0.14642999999999998  0.10913  1.0000
  C   C76       1.0  0.46377  0.20707999999999996  0.02534  1.0000
  C   C77       1.0  0.97235  0.07805  0.46376999999999996  1.0000
  C   C78       1.0  0.04569  0.06984  0.41773  1.0000
  C   C79       1.0  0.1401  0.04889  0.42824999999999996  1.0000
  C   C80       1.0  0.20757  0.04308  0.38464999999999994  1.0000
  C   C81       1.0  0.18122  0.05856999999999998  0.33095  1.0000
  C   C82       1.0  0.08589  0.07821  0.31933  1.0000
  C   C83       1.0  0.01843  0.08304  0.36331  1.0000
  C   C84       1.0  0.30817  0.02138  0.39517  1.0000
  C   C85       1.0  0.058880000000000016  0.09361999999999997  0.2622  1.0000
  C   C86       1.0  0.12254  0.1274  0.22931  1.0000
  C   C87       1.0  0.09444  0.13895  0.17530999999999997  1.0000
  C   C88       1.0  0.0019200000000000005  0.11825999999999998  0.15182  1.0000
  C   C89       1.0  0.93744  0.08387  0.18698  1.0000
  C   C90       1.0  0.96869  0.07361  0.24043  1.0000
  C   C91       1.0  0.21392000000000003  0.1542  0.25256  1.0000
  C   C92       1.0  0.84111  0.06074999999999999  0.1642  1.0000
  C   C93       1.0  0.86228  0.02337  0.11357  1.0000
  C   C94       1.0  0.7722  0.10899999999999997  0.14691  1.0000
  C   C95       1.0  0.78652  0.025139999999999992  0.2074  1.0000
  C   C96       1.0  0.4741  0.92252  0.53369  1.0000
  C   C97       1.0  0.54646  0.93118  0.57987  1.0000
  C   C98       1.0  0.64007  0.9530699999999998  0.56943  1.0000
  C   C99       1.0  0.7068200000000001  0.95948  0.61306  1.0000
  C   C100      1.0  0.68089  0.94295  0.66666  1.0000
  C   C101      1.0  0.58631  0.92206  0.6781999999999999  1.0000
  C   C102      1.0  0.51924  0.91718  0.63423  1.0000
  C   C103      1.0  0.80653  0.9822799999999999  0.6025  1.0000
  C   C104      1.0  0.55895  0.9058799999999999  0.73529  1.0000
  C   C105      1.0  0.6222200000000001  0.87154  0.76802  1.0000
  C   C106      1.0  0.5947  0.8606599999999999  0.8222599999999999  1.0000
  C   C107      1.0  0.50266  0.8818  0.8460499999999999  1.0000
  C   C108      1.0  0.43821  0.9161999999999999  0.81114  1.0000
  C   C109      1.0  0.46907  0.9261599999999999  0.75742  1.0000
  C   C110      1.0  0.7141100000000001  0.84506  0.74458  1.0000
  C   C111      1.0  0.34211  0.93941  0.83451  1.0000
  C   C112      1.0  0.36394  0.97652  0.88517  1.0000
  C   C113      1.0  0.2735  0.89101  0.85194  1.0000
  C   C114      1.0  0.28745  0.97516  0.7916199999999999  1.0000
  C   C115      1.0  0.22677  0.46306999999999987  0.92367  1.0000
  C   C116      1.0  0.30077  0.41711  0.93036  1.0000
  C   C117      1.0  0.3957000000000001  0.42773999999999995  0.94998  1.0000
  C   C118      1.0  0.4637  0.38419999999999993  0.95462  1.0000
  C   C119      1.0  0.43731  0.3304999999999999  0.93901  1.0000
  C   C120      1.0  0.34144  0.31882  0.92043  1.0000
  C   C121      1.0  0.27356  0.36277  0.91692  1.0000
  C   C122      1.0  0.56458  0.39469  0.9755799999999999  1.0000
  C   C123      1.0  0.31333000000000005  0.26183  0.9051299999999999  1.0000
  C   C124      1.0  0.3752  0.22868  0.8708300000000001  1.0000
  C   C125      1.0  0.34421  0.17521  0.85875  1.0000
  C   C126      1.0  0.25115  0.15229  0.8798899999999998  1.0000
  C   C127      1.0  0.18888  0.18765  0.91513  1.0000
  C   C128      1.0  0.22277  0.24052999999999997  0.92572  1.0000
  C   C129      1.0  0.46771  0.25124  0.84421  1.0000
  C   C130      1.0  0.09217000000000002  0.16559  0.9389299999999999  1.0000
  C   C131      1.0  0.11302  0.11454  0.97625  1.0000
  C   C132      1.0  0.0218  0.14890999999999996  0.89147  1.0000
  C   C133      1.0  0.03946  0.2091  0.97478  1.0000
  C   C134      1.0  0.7261400000000001  0.53642  0.07449  1.0000
  C   C135      1.0  0.7997600000000002  0.58259  0.06822  1.0000
  C   C136      1.0  0.89471  0.5723599999999999  0.04809  1.0000
  C   C137      1.0  0.96189  0.61617  0.04307  1.0000
  C   C138      1.0  0.93502  0.66965  0.05909  1.0000
  C   C139      1.0  0.8394  0.68088  0.07847  1.0000
  C   C140      1.0  0.77189  0.63681  0.08203  1.0000
  C   C141      1.0  0.06248  0.60629  0.021539999999999997  1.0000
  C   C142      1.0  0.8112800000000001  0.7378  0.09396000000000002  1.0000
  C   C143      1.0  0.87381  0.77097  0.12759  1.0000
  C   C144      1.0  0.84398  0.82482  0.13906  1.0000
  C   C145      1.0  0.7509300000000002  0.8479599999999998  0.11819999999999999  1.0000
  C   C146      1.0  0.68791  0.81246  0.08375  1.0000
  C   C147      1.0  0.72077  0.7592399999999999  0.07377  1.0000
  C   C148      1.0  0.96596  0.7480399999999999  0.15412  1.0000
  C   C149      1.0  0.5911200000000001  0.83452  0.06026999999999999  1.0000
  C   C150      1.0  0.61167  0.88555  0.02289  1.0000
  C   C151      1.0  0.52142  0.8509299999999999  0.10834  1.0000
  C   C152      1.0  0.53845  0.79095  0.02469  1.0000
  O   O1        1.0  0.99507  0.9359899999999999  0.51169  1.0000
  O   O2        1.0  0.10915000000000001  0.9028399999999999  0.4524099999999999  1.0000
  O   O3        1.0  0.67526  0.010779999999999998  0.43606  1.0000
  O   O4        1.0  0.61954  0.9670199999999998  0.36130000000000007  1.0000
  O   O5        1.0  0.01975  0.86936  0.10229  1.0000
  O   O6        1.0  0.49502  0.06352  0.48591  1.0000
  O   O7        1.0  0.60506  0.09717999999999999  0.54705  1.0000
  O   O8        1.0  0.17209  0.9886799999999998  0.56113  1.0000
  O   O9        1.0  0.11836  0.02779999999999999  0.63869  1.0000
  O   O10       1.0  0.51964  0.13071  0.89478  1.0000
  O   O11       1.0  0.74762  0.48621999999999993  0.93253  1.0000
  O   O12       1.0  0.8645900000000001  0.54739  0.90637  1.0000
  O   O13       1.0  0.42432000000000003  0.5606999999999999  0.005509999999999999  1.0000
  O   O14       1.0  0.37072  0.63858  0.96655  1.0000
  O   O15       1.0  0.76734  0.89834  0.8690699999999999  1.0000
  O   O16       1.0  0.24761000000000002  0.5139199999999999  0.06641  1.0000
  O   O17       1.0  0.3665  0.45242999999999994  0.08917  1.0000
  O   O18       1.0  0.92787  0.4385599999999999  0.9917099999999999  1.0000
  O   O19       1.0  0.8710700000000002  0.3640499999999999  0.03596  1.0000
  O   O20       1.0  0.27211  0.10256  0.13292  1.0000
  O   O21       1.0  0.00432  0.06678  0.51372  1.0000
  O   O22       1.0  0.8874  0.09455999999999998  0.45298  1.0000
  O   O23       1.0  0.3238800000000001  0.9887699999999999  0.43638999999999994  1.0000
  O   O24       1.0  0.38044000000000006  0.03611  0.36366  1.0000
  O   O25       1.0  0.98046  0.13064  0.10258  1.0000
  O   O26       1.0  0.5051200000000001  0.9339399999999998  0.48354  1.0000
  O   O27       1.0  0.38972  0.9052799999999998  0.54462  1.0000
  O   O28       1.0  0.82369  0.011009999999999997  0.55851  1.0000
  O   O29       1.0  0.87727  0.97206  0.63638  1.0000
  O   O30       1.0  0.48078  0.8691899999999998  0.89528  1.0000
  O   O31       1.0  0.25693  0.5131  0.93589  1.0000
  O   O32       1.0  0.14166  0.45231  0.90786  1.0000
  O   O33       1.0  0.5804  0.43607999999999997  0.00792  1.0000
  O   O34       1.0  0.63729  0.36372999999999994  0.96119  1.0000
  O   O35       1.0  0.22789000000000004  0.10334  0.8673  1.0000
  O   O36       1.0  0.75765  0.48641  0.06339  1.0000
  O   O37       1.0  0.6402100000000002  0.54744  0.08924  1.0000
  O   O38       1.0  0.07967  0.56331  0.99126  1.0000
  O   O39       1.0  0.13365  0.63895  0.03341  1.0000
  O   O40       1.0  0.7279  0.8970499999999998  0.13055  1.0000
