data_image0
_chemical_formula_structural       Zn4H84C124N28O24
_chemical_formula_sum              "Zn4 H84 C124 N28 O24"
_cell_length_a       17.78598
_cell_length_b       18.20769
_cell_length_c       18.50359
_cell_angle_alpha    66.08286
_cell_angle_beta     61.24205
_cell_angle_gamma    60.66835

_space_group_name_H-M_alt    "P 1"
_space_group_IT_number       1

loop_
  _space_group_symop_operation_xyz
  'x, y, z'

loop_
  _atom_site_type_symbol
  _atom_site_label
  _atom_site_symmetry_multiplicity
  _atom_site_fract_x
  _atom_site_fract_y
  _atom_site_fract_z
  _atom_site_occupancy
  Zn  Zn1       1.0  0.5728400000000001  0.84004  0.41628  1.0000
  Zn  Zn2       1.0  0.82916  0.65961  0.08355000000000003  1.0000
  Zn  Zn3       1.0  0.4271599999999999  0.15995999999999994  0.5837200000000002  1.0000
  Zn  Zn4       1.0  0.17083999999999994  0.3403799999999999  0.9164400000000003  1.0000
  H   H1        1.0  0.27637  0.9460399999999999  0.55895  1.0000
  H   H2        1.0  0.10765000000000018  0.9718199999999997  0.61129  1.0000
  H   H3        1.0  0.13498  0.9857999999999999  0.36288  1.0000
  H   H4        1.0  0.3029000000000001  0.9597199999999999  0.3112000000000001  1.0000
  H   H5        1.0  0.8448100000000001  0.814  0.19959000000000005  1.0000
  H   H6        1.0  0.97068  0.86145  0.07692000000000003  1.0000
  H   H7        1.0  0.8207999999999996  0.11847  0.12125000000000002  1.0000
  H   H8        1.0  0.6957  0.07083999999999999  0.24449000000000007  1.0000
  H   H9        1.0  0.43481999999999993  0.75402  0.4862300000000001  1.0000
  H   H10       1.0  0.4228900000000001  0.63676  0.4592700000000001  1.0000
  H   H11       1.0  0.7053300000000003  0.58256  0.28665  1.0000
  H   H12       1.0  0.7066899999999999  0.6994  0.3216900000000001  1.0000
  H   H13       1.0  0.38918000000000014  0.4204299999999998  0.41360000000000013  1.0000
  H   H14       1.0  0.43250999999999995  0.30279999999999996  0.34510000000000013  1.0000
  H   H15       1.0  0.59597  0.24718  0.24402  1.0000
  H   H16       1.0  0.05693000000000004  0.2343099999999999  0.9716  1.0000
  H   H17       1.0  0.89949  0.23679  0.07084  1.0000
  H   H18       1.0  0.87964  0.4309  0.1653  1.0000
  H   H19       1.0  0.036839999999999984  0.41805  0.06539  1.0000
  H   H20       1.0  0.75015  0.39766  0.21015  1.0000
  H   H21       1.0  0.62351  0.50764  0.30208  1.0000
  H   H22       1.0  0.78127  0.55382  0.9410600000000002  1.0000
  H   H23       1.0  0.6906500000000001  0.5280499999999999  0.8886900000000002  1.0000
  H   H24       1.0  0.48356000000000005  0.51398  0.13708000000000006  1.0000
  H   H25       1.0  0.5734900000000003  0.54024  0.18876000000000007  1.0000
  H   H26       1.0  0.85859  0.68523  0.2994500000000001  1.0000
  H   H27       1.0  0.9089499999999999  0.63895  0.42215000000000014  1.0000
  H   H28       1.0  0.061029999999999994  0.3811599999999999  0.37925  1.0000
  H   H29       1.0  0.011499999999999982  0.4279700000000001  0.25621  1.0000
  H   H30       1.0  0.67486  0.74614  0.013530000000000004  1.0000
  H   H31       1.0  0.5184800000000003  0.86388  0.04106  1.0000
  H   H32       1.0  0.5751900000000002  0.9169  0.21335000000000007  1.0000
  H   H33       1.0  0.7286000000000001  0.79965  0.17799  1.0000
  H   H34       1.0  0.2227  0.08048  0.08648  1.0000
  H   H35       1.0  0.07977999999999999  0.19786999999999996  0.15541000000000005  1.0000
  H   H36       1.0  0.08649999999999997  0.25306  0.25661  1.0000
  H   H37       1.0  0.26184  0.26679999999999987  0.5277500000000003  1.0000
  H   H38       1.0  0.20697  0.26346999999999987  0.4284000000000001  1.0000
  H   H39       1.0  0.47607  0.06885000000000001  0.33532  1.0000
  H   H40       1.0  0.5198500000000001  0.08219999999999997  0.4353400000000001  1.0000
  H   H41       1.0  0.35777  0.10174000000000001  0.29048  1.0000
  H   H42       1.0  0.43286000000000013  0.99231  0.19853000000000007  1.0000
  H   H43       1.0  0.72363  0.05394999999999997  0.4410400000000001  1.0000
  H   H44       1.0  0.8923499999999998  0.02817999999999998  0.3887000000000001  1.0000
  H   H45       1.0  0.8650200000000001  0.014200000000000022  0.63712  1.0000
  H   H46       1.0  0.6971  0.04028  0.68879  1.0000
  H   H47       1.0  0.15518999999999994  0.18599999999999994  0.8004100000000002  1.0000
  H   H48       1.0  0.02931999999999993  0.13854999999999995  0.9230800000000002  1.0000
  H   H49       1.0  0.1792  0.88152  0.8787500000000003  1.0000
  H   H50       1.0  0.3042900000000003  0.9291599999999999  0.7555100000000002  1.0000
  H   H51       1.0  0.5651800000000001  0.24597000000000002  0.51377  1.0000
  H   H52       1.0  0.5771  0.36323999999999995  0.54072  1.0000
  H   H53       1.0  0.29466999999999993  0.41744  0.7133400000000002  1.0000
  H   H54       1.0  0.2933099999999999  0.30058999999999997  0.6783100000000002  1.0000
  H   H55       1.0  0.61082  0.57957  0.58639  1.0000
  H   H56       1.0  0.56749  0.6972  0.65489  1.0000
  H   H57       1.0  0.40402999999999994  0.75282  0.75597  1.0000
  H   H58       1.0  0.9430700000000002  0.76569  0.028390000000000006  1.0000
  H   H59       1.0  0.10051000000000007  0.7632099999999999  0.9291500000000003  1.0000
  H   H60       1.0  0.12035999999999988  0.56909  0.8347000000000002  1.0000
  H   H61       1.0  0.96316  0.5819499999999999  0.9346000000000002  1.0000
  H   H62       1.0  0.24985  0.60234  0.78984  1.0000
  H   H63       1.0  0.37649  0.49235999999999996  0.6979200000000002  1.0000
  H   H64       1.0  0.21873  0.44618  0.05893  1.0000
  H   H65       1.0  0.30935  0.47194  0.11131  1.0000
  H   H66       1.0  0.5164400000000001  0.48601999999999995  0.86292  1.0000
  H   H67       1.0  0.42650999999999994  0.45976000000000006  0.81124  1.0000
  H   H68       1.0  0.14140999999999998  0.31477  0.70055  1.0000
  H   H69       1.0  0.09105000000000005  0.36105  0.57785  1.0000
  H   H70       1.0  0.9389700000000001  0.6188400000000001  0.62075  1.0000
  H   H71       1.0  0.9885  0.57202  0.7437900000000002  1.0000
  H   H72       1.0  0.3251299999999998  0.25386  0.9864600000000002  1.0000
  H   H73       1.0  0.48151999999999995  0.13610999999999995  0.9589400000000002  1.0000
  H   H74       1.0  0.42481  0.0831  0.78664  1.0000
  H   H75       1.0  0.2714  0.20034999999999997  0.8220000000000002  1.0000
  H   H76       1.0  0.7773000000000003  0.9195199999999999  0.91352  1.0000
  H   H77       1.0  0.9202199999999999  0.80213  0.8445900000000002  1.0000
  H   H78       1.0  0.9135  0.74693  0.74339  1.0000
  H   H79       1.0  0.7381599999999999  0.7331999999999999  0.4722400000000001  1.0000
  H   H80       1.0  0.7930200000000003  0.73653  0.5716  1.0000
  H   H81       1.0  0.5239300000000001  0.9311500000000001  0.66468  1.0000
  H   H82       1.0  0.48015000000000013  0.91779  0.5646600000000003  1.0000
  H   H83       1.0  0.6422300000000002  0.8982600000000001  0.70952  1.0000
  H   H84       1.0  0.5671299999999999  0.007689999999999945  0.8014700000000002  1.0000
  C   C1        1.0  0.3992200000000001  0.9390699999999996  0.3979200000000001  1.0000
  C   C2        1.0  0.29912000000000005  0.9530999999999998  0.43142000000000014  1.0000
  C   C3        1.0  0.24473000000000006  0.95526  0.51663  1.0000
  C   C4        1.0  0.15154000000000004  0.9693799999999997  0.54565  1.0000
  C   C5        1.0  0.1119200000000001  0.9808499999999999  0.49003000000000013  1.0000
  C   C6        1.0  0.16668000000000005  0.9774499999999999  0.40471  1.0000
  C   C7        1.0  0.25932000000000033  0.96348  0.37639  1.0000
  C   C8        1.0  0.6865400000000003  0.9141  0.30106  1.0000
  C   C9        1.0  0.76242  0.94034  0.22868000000000005  1.0000
  C   C10       1.0  0.84008  0.88051  0.18171000000000007  1.0000
  C   C11       1.0  0.9095000000000001  0.9063199999999998  0.11366000000000002  1.0000
  C   C12       1.0  0.90177  0.99286  0.09142000000000003  1.0000
  C   C13       1.0  0.8250600000000001  0.0523  0.13871  1.0000
  C   C14       1.0  0.7558399999999998  0.025959999999999993  0.20699000000000006  1.0000
  C   C15       1.0  0.4979800000000001  0.49932999999999994  0.3852800000000001  1.0000
  C   C16       1.0  0.4936099999999999  0.71335  0.44361  1.0000
  C   C17       1.0  0.48657  0.6487699999999998  0.4284900000000001  1.0000
  C   C18       1.0  0.56405  0.59911  0.37154  1.0000
  C   C19       1.0  0.6447800000000001  0.6175799999999999  0.33289000000000013  1.0000
  C   C20       1.0  0.6455900000000001  0.6830599999999999  0.3519800000000001  1.0000
  C   C21       1.0  0.7319600000000002  0.30165  0.19769  1.0000
  C   C22       1.0  0.5249399999999999  0.42569999999999997  0.3488700000000001  1.0000
  C   C23       1.0  0.4581799999999999  0.39352  0.3693800000000001  1.0000
  C   C24       1.0  0.48293  0.32843  0.33171  1.0000
  C   C25       1.0  0.57302  0.29725  0.27589  1.0000
  C   C26       1.0  0.63528  0.33287  0.25977  1.0000
  C   C27       1.0  0.015429999999999994  0.27589  0.01673  1.0000
  C   C28       1.0  0.9275300000000002  0.27747999999999995  0.07170000000000003  1.0000
  C   C29       1.0  0.8751  0.33472  0.12682  1.0000
  C   C30       1.0  0.91637  0.38484  0.12516  1.0000
  C   C31       1.0  0.004640000000000043  0.3785799999999999  0.0685  1.0000
  C   C32       1.0  0.73626  0.56082  0.10184  1.0000
  C   C33       1.0  0.6834000000000001  0.547  0.06851000000000003  1.0000
  C   C34       1.0  0.7164400000000001  0.54476  0.9833200000000002  1.0000
  C   C35       1.0  0.6665300000000003  0.53056  0.9542900000000002  1.0000
  C   C36       1.0  0.58279  0.51901  0.009990000000000004  1.0000
  C   C37       1.0  0.54874  0.52245  0.09527  1.0000
  C   C38       1.0  0.5989100000000002  0.53661  0.12354000000000002  1.0000
  C   C39       1.0  0.9023300000000002  0.5842899999999998  0.19896000000000005  1.0000
  C   C40       1.0  0.9318  0.55864  0.27135  1.0000
  C   C41       1.0  0.9025300000000002  0.61884  0.3178600000000001  1.0000
  C   C42       1.0  0.9295399999999999  0.59358  0.3859200000000001  1.0000
  C   C43       1.0  0.98621  0.50704  0.4085400000000001  1.0000
  C   C44       1.0  0.016399999999999988  0.44726  0.36163  1.0000
  C   C45       1.0  0.98921  0.47308  0.29342  1.0000
  C   C46       1.0  0.3824600000000001  0.0012199999999999995  0.11488  1.0000
  C   C47       1.0  0.6505000000000001  0.78669  0.05621000000000002  1.0000
  C   C48       1.0  0.5636799999999997  0.85149  0.07168000000000002  1.0000
  C   C49       1.0  0.5347100000000001  0.90087  0.12876000000000007  1.0000
  C   C50       1.0  0.5957200000000001  0.88203  0.16712  1.0000
  C   C51       1.0  0.68118  0.81637  0.14777  1.0000
  C   C52       1.0  0.23132000000000003  0.19867999999999997  0.3021300000000001  1.0000
  C   C53       1.0  0.29911  0.07465  0.15149  1.0000
  C   C54       1.0  0.22068000000000004  0.10707000000000001  0.13083  1.0000
  C   C55       1.0  0.14255000000000004  0.17206999999999997  0.16871000000000005  1.0000
  C   C56       1.0  0.14553  0.20297999999999997  0.22468000000000005  1.0000
  C   C57       1.0  0.22747000000000003  0.16741  0.24054000000000006  1.0000
  C   C58       1.0  0.30738999999999994  0.22475999999999996  0.4830500000000001  1.0000
  C   C59       1.0  0.2764699999999999  0.22276999999999997  0.4280200000000001  1.0000
  C   C60       1.0  0.3366100000000001  0.16523999999999997  0.3732  1.0000
  C   C61       1.0  0.4263000000000001  0.11506999999999999  0.3752700000000001  1.0000
  C   C62       1.0  0.45128000000000007  0.12165999999999995  0.43196  1.0000
  C   C63       1.0  0.6007799999999999  0.06092999999999995  0.6020700000000002  1.0000
  C   C64       1.0  0.70088  0.0469  0.56858  1.0000
  C   C65       1.0  0.7552700000000003  0.044729999999999964  0.48337000000000013  1.0000
  C   C66       1.0  0.8484599999999999  0.030619999999999984  0.4543500000000001  1.0000
  C   C67       1.0  0.8880800000000001  0.019150000000000007  0.50996  1.0000
  C   C68       1.0  0.8333200000000001  0.022550000000000018  0.59529  1.0000
  C   C69       1.0  0.7406799999999999  0.03651999999999999  0.62361  1.0000
  C   C70       1.0  0.31346  0.08588999999999998  0.69894  1.0000
  C   C71       1.0  0.23757999999999987  0.05965999999999993  0.7713200000000002  1.0000
  C   C72       1.0  0.15992  0.11948  0.81829  1.0000
  C   C73       1.0  0.09048999999999989  0.09367999999999997  0.8863400000000002  1.0000
  C   C74       1.0  0.09823  0.0071399999999999545  0.9085800000000003  1.0000
  C   C75       1.0  0.17493999999999987  0.94769  0.8612900000000002  1.0000
  C   C76       1.0  0.24415999999999985  0.9740299999999998  0.7930000000000003  1.0000
  C   C77       1.0  0.5020200000000001  0.5006599999999999  0.61471  1.0000
  C   C78       1.0  0.5063900000000001  0.28664999999999985  0.55639  1.0000
  C   C79       1.0  0.51343  0.35123  0.57151  1.0000
  C   C80       1.0  0.43595  0.40089  0.62845  1.0000
  C   C81       1.0  0.35522000000000004  0.3824100000000001  0.66711  1.0000
  C   C82       1.0  0.3544100000000002  0.31692999999999993  0.64802  1.0000
  C   C83       1.0  0.26804000000000006  0.6983499999999999  0.8023000000000002  1.0000
  C   C84       1.0  0.4750600000000001  0.5743  0.65113  1.0000
  C   C85       1.0  0.54181  0.60647  0.6306100000000002  1.0000
  C   C86       1.0  0.51707  0.67157  0.6682900000000003  1.0000
  C   C87       1.0  0.42697999999999997  0.70275  0.7241100000000003  1.0000
  C   C88       1.0  0.36471999999999977  0.66713  0.7402300000000003  1.0000
  C   C89       1.0  0.9845699999999997  0.72411  0.9832600000000002  1.0000
  C   C90       1.0  0.07246999999999987  0.72252  0.9283000000000002  1.0000
  C   C91       1.0  0.1248999999999998  0.66527  0.8731800000000002  1.0000
  C   C92       1.0  0.08362999999999995  0.61516  0.87484  1.0000
  C   C93       1.0  0.9953600000000001  0.62141  0.9314900000000003  1.0000
  C   C94       1.0  0.2637400000000003  0.4391799999999999  0.8981500000000002  1.0000
  C   C95       1.0  0.3166000000000001  0.45299999999999996  0.9314900000000003  1.0000
  C   C96       1.0  0.28356  0.45524  0.01668  1.0000
  C   C97       1.0  0.33347  0.46944  0.045710000000000015  1.0000
  C   C98       1.0  0.4172100000000002  0.48098999999999986  0.9900000000000002  1.0000
  C   C99       1.0  0.45125999999999994  0.4775399999999999  0.9047200000000002  1.0000
  C   C100      1.0  0.4010900000000001  0.46337999999999985  0.8764600000000002  1.0000
  C   C101      1.0  0.09766999999999995  0.41570999999999997  0.8010400000000002  1.0000
  C   C102      1.0  0.06819999999999998  0.44135  0.7286400000000002  1.0000
  C   C103      1.0  0.09747000000000013  0.38115999999999983  0.68214  1.0000
  C   C104      1.0  0.07045999999999994  0.40641999999999995  0.6140800000000002  1.0000
  C   C105      1.0  0.01379000000000001  0.49295  0.59145  1.0000
  C   C106      1.0  0.9836000000000001  0.5527399999999998  0.63837  1.0000
  C   C107      1.0  0.010789999999999826  0.52692  0.7065800000000002  1.0000
  C   C108      1.0  0.6175399999999998  0.9987700000000002  0.88511  1.0000
  C   C109      1.0  0.34948999999999997  0.21329999999999993  0.9437900000000002  1.0000
  C   C110      1.0  0.43632  0.14849999999999994  0.9283200000000003  1.0000
  C   C111      1.0  0.4652800000000001  0.09913  0.87124  1.0000
  C   C112      1.0  0.4042800000000001  0.11796999999999998  0.8328800000000002  1.0000
  C   C113      1.0  0.31882  0.1836299999999999  0.8522300000000003  1.0000
  C   C114      1.0  0.76868  0.80131  0.69787  1.0000
  C   C115      1.0  0.70089  0.92535  0.8485100000000002  1.0000
  C   C116      1.0  0.7793200000000001  0.89293  0.86917  1.0000
  C   C117      1.0  0.8574499999999999  0.8279299999999999  0.8312900000000002  1.0000
  C   C118      1.0  0.8544700000000001  0.7970199999999997  0.7753200000000002  1.0000
  C   C119      1.0  0.7725299999999999  0.83259  0.75945  1.0000
  C   C120      1.0  0.6926  0.77523  0.51694  1.0000
  C   C121      1.0  0.7235299999999999  0.77722  0.5719800000000003  1.0000
  C   C122      1.0  0.6633899999999999  0.83476  0.6267900000000002  1.0000
  C   C123      1.0  0.5737  0.88493  0.6247200000000003  1.0000
  C   C124      1.0  0.54872  0.87834  0.56804  1.0000
  N   N1        1.0  0.57126  0.73114  0.40669  1.0000
  N   N2        1.0  0.56564  0.53321  0.35038  1.0000
  N   N3        1.0  0.7846599999999999  0.34592  0.18206  1.0000
  N   N4        1.0  0.05429  0.32526  0.01409  1.0000
  N   N5        1.0  0.6120400000000001  0.39562  0.29565  1.0000
  N   N6        1.0  0.01706000000000003  0.99439  0.5262  1.0000
  N   N7        1.0  0.9676499999999998  0.02648  0.023340000000000007  1.0000
  N   N8        1.0  0.70927  0.7685  0.09307000000000003  1.0000
  N   N9        1.0  0.44900000000000007  0.96676  0.15017  1.0000
  N   N10       1.0  0.31258999999999987  0.15385999999999994  0.3181500000000001  1.0000
  N   N11       1.0  0.39299  0.17532999999999999  0.4860500000000001  1.0000
  N   N12       1.0  0.3028799999999999  0.10457000000000001  0.20471  1.0000
  N   N13       1.0  0.53769  0.50554  0.9738100000000002  1.0000
  N   N14       1.0  0.017790000000000007  0.47358  0.47653  1.0000
  N   N15       1.0  0.42874000000000007  0.26885  0.59331  1.0000
  N   N16       1.0  0.4343599999999999  0.46678  0.64962  1.0000
  N   N17       1.0  0.21532999999999988  0.65408  0.8179400000000002  1.0000
  N   N18       1.0  0.9457100000000002  0.67474  0.9859  1.0000
  N   N19       1.0  0.3879600000000001  0.6043799999999999  0.7043500000000003  1.0000
  N   N20       1.0  0.98293  0.005609999999999982  0.4738000000000001  1.0000
  N   N21       1.0  0.032349999999999934  0.97351  0.97666  1.0000
  N   N22       1.0  0.2907299999999999  0.23148999999999995  0.9069300000000002  1.0000
  N   N23       1.0  0.5509999999999999  0.033229999999999975  0.8498300000000002  1.0000
  N   N24       1.0  0.6874099999999996  0.84614  0.6818500000000002  1.0000
  N   N25       1.0  0.60701  0.82467  0.51395  1.0000
  N   N26       1.0  0.6971199999999997  0.8954299999999996  0.7952800000000002  1.0000
  N   N27       1.0  0.46231000000000005  0.49446  0.026180000000000005  1.0000
  N   N28       1.0  0.9822100000000004  0.5264099999999998  0.52346  1.0000
  O   O1        1.0  0.6926900000000001  0.83549  0.3159000000000001  1.0000
  O   O2        1.0  0.61894  0.96657  0.3451500000000001  1.0000
  O   O3        1.0  0.43958999999999987  0.9624899999999998  0.3197700000000001  1.0000
  O   O4        1.0  0.4378700000000002  0.9023799999999997  0.45423  1.0000
  O   O5        1.0  0.4218700000000001  0.52536  0.44001  1.0000
  O   O6        1.0  0.7586800000000005  0.24200999999999998  0.16491  1.0000
  O   O7        1.0  0.84457  0.6629  0.18372  1.0000
  O   O8        1.0  0.93165  0.53134  0.1554  1.0000
  O   O9        1.0  0.7221800000000003  0.53731  0.17996000000000006  1.0000
  O   O10       1.0  0.79451  0.59745  0.04543000000000001  1.0000
  O   O11       1.0  0.3871399999999999  0.97585  0.059810000000000016  1.0000
  O   O12       1.0  0.1660099999999999  0.25903  0.3342000000000001  1.0000
  O   O13       1.0  0.3073099999999999  0.16450999999999996  0.6841000000000003  1.0000
  O   O14       1.0  0.3810600000000002  0.03342999999999999  0.65485  1.0000
  O   O15       1.0  0.5604099999999999  0.03750999999999997  0.6802300000000002  1.0000
  O   O16       1.0  0.5621299999999998  0.09761999999999996  0.5457700000000002  1.0000
  O   O17       1.0  0.5781300000000001  0.47464  0.55999  1.0000
  O   O18       1.0  0.24132000000000003  0.75798  0.83509  1.0000
  O   O19       1.0  0.15543000000000007  0.33709  0.81628  1.0000
  O   O20       1.0  0.06835000000000005  0.46865999999999997  0.8446  1.0000
  O   O21       1.0  0.27782  0.4626899999999999  0.8200400000000002  1.0000
  O   O22       1.0  0.20548999999999995  0.40254  0.95456  1.0000
  O   O23       1.0  0.6128599999999998  0.024149999999999963  0.9401800000000002  1.0000
  O   O24       1.0  0.83399  0.74097  0.6658  1.0000
