data_image0
_chemical_formula_structural       Zn16H80C96N64O32
_chemical_formula_sum              "Zn16 H80 C96 N64 O32"
_cell_length_a       13.5318
_cell_length_b       13.5318
_cell_length_c       27.44309
_cell_angle_alpha    90.0
_cell_angle_beta     90.0
_cell_angle_gamma    90.0

_symmetry_space_group_name_H-M    'P 1'
_symmetry_Int_Tables_number       1

loop_
  _symmetry_equiv_pos_as_xyz
  'x,y,z'

loop_
  _atom_site_type_symbol
  _atom_site_label
  _atom_site_symmetry_multiplicity
  _atom_site_fract_x
  _atom_site_fract_y
  _atom_site_fract_z
  _atom_site_occupancy
  Zn  Zn1       1.0  0.9131299999999999  0.02166  0.44618  1.0000
  Zn  Zn2       1.0  0.58686  0.47834  0.44618  1.0000
  Zn  Zn3       1.0  0.47834  0.9131299999999999  0.44618  1.0000
  Zn  Zn4       1.0  0.02166  0.58686  0.44618  1.0000
  Zn  Zn5       1.0  0.08686999999999999  0.52166  0.05382  1.0000
  Zn  Zn6       1.0  0.41313  0.9783399999999998  0.05382  1.0000
  Zn  Zn7       1.0  0.52166  0.41313  0.05382  1.0000
  Zn  Zn8       1.0  0.9783399999999998  0.08686999999999999  0.05382  1.0000
  Zn  Zn9       1.0  0.08686999999999999  0.9783399999999998  0.55382  1.0000
  Zn  Zn10      1.0  0.41313  0.52166  0.55382  1.0000
  Zn  Zn11      1.0  0.52166  0.08686999999999999  0.55382  1.0000
  Zn  Zn12      1.0  0.9783399999999998  0.41313  0.55382  1.0000
  Zn  Zn13      1.0  0.9131299999999999  0.47834  0.94618  1.0000
  Zn  Zn14      1.0  0.58686  0.02166  0.94618  1.0000
  Zn  Zn15      1.0  0.47834  0.58686  0.94618  1.0000
  Zn  Zn16      1.0  0.02166  0.9131299999999999  0.94618  1.0000
  H   H1        1.0  0.10304999999999997  0.20126  0.18869  1.0000
  H   H2        1.0  0.10503999999999997  0.25048999999999993  0.24529  1.0000
  H   H3        1.0  0.75754  0.10212  0.53238  1.0000
  H   H4        1.0  0.7045899999999998  0.92806  0.40791  1.0000
  H   H5        1.0  0.03992  0.14102  0.31431000000000003  1.0000
  H   H6        1.0  0.39695  0.29874  0.18869  1.0000
  H   H7        1.0  0.39495999999999987  0.24951  0.24529  1.0000
  H   H8        1.0  0.7424599999999999  0.39788  0.53238  1.0000
  H   H9        1.0  0.7953999999999998  0.57194  0.40791  1.0000
  H   H10       1.0  0.4600799999999999  0.3589799999999999  0.31431000000000003  1.0000
  H   H11       1.0  0.29874  0.10304999999999997  0.18869  1.0000
  H   H12       1.0  0.24951  0.10503999999999997  0.24529  1.0000
  H   H13       1.0  0.39788  0.75754  0.53238  1.0000
  H   H14       1.0  0.57194  0.7045899999999998  0.40791  1.0000
  H   H15       1.0  0.3589799999999999  0.03992  0.31431000000000003  1.0000
  H   H16       1.0  0.20126  0.39695  0.18869  1.0000
  H   H17       1.0  0.25048999999999993  0.39495999999999987  0.24529  1.0000
  H   H18       1.0  0.10212  0.7424599999999999  0.53238  1.0000
  H   H19       1.0  0.92806  0.7953999999999998  0.40791  1.0000
  H   H20       1.0  0.14102  0.4600799999999999  0.31431000000000003  1.0000
  H   H21       1.0  0.8969499999999998  0.7012599999999998  0.31131  1.0000
  H   H22       1.0  0.8949599999999998  0.75049  0.25471  1.0000
  H   H23       1.0  0.24245999999999995  0.60212  0.96763  1.0000
  H   H24       1.0  0.29541  0.4280599999999999  0.09209  1.0000
  H   H25       1.0  0.9600799999999999  0.6410199999999998  0.18569  1.0000
  H   H26       1.0  0.60305  0.79874  0.31131  1.0000
  H   H27       1.0  0.6050299999999998  0.7495099999999999  0.25471  1.0000
  H   H28       1.0  0.25754  0.8978799999999998  0.96763  1.0000
  H   H29       1.0  0.20458999999999994  0.07194  0.09209  1.0000
  H   H30       1.0  0.53992  0.85898  0.18569  1.0000
  H   H31       1.0  0.7012599999999998  0.60305  0.31131  1.0000
  H   H32       1.0  0.75049  0.6050299999999998  0.25471  1.0000
  H   H33       1.0  0.60212  0.25754  0.96763  1.0000
  H   H34       1.0  0.4280599999999999  0.20458999999999994  0.09209  1.0000
  H   H35       1.0  0.6410199999999998  0.53992  0.18569  1.0000
  H   H36       1.0  0.79874  0.8969499999999998  0.31131  1.0000
  H   H37       1.0  0.7495099999999999  0.8949599999999998  0.25471  1.0000
  H   H38       1.0  0.8978799999999998  0.24245999999999995  0.96763  1.0000
  H   H39       1.0  0.07194  0.29541  0.09209  1.0000
  H   H40       1.0  0.85898  0.9600799999999999  0.18569  1.0000
  H   H41       1.0  0.8969499999999998  0.79874  0.81131  1.0000
  H   H42       1.0  0.8949599999999998  0.7495099999999999  0.7547100000000001  1.0000
  H   H43       1.0  0.24245999999999995  0.8978799999999998  0.46763  1.0000
  H   H44       1.0  0.29541  0.07194  0.59209  1.0000
  H   H45       1.0  0.9600799999999999  0.85898  0.68569  1.0000
  H   H46       1.0  0.60305  0.7012599999999998  0.81131  1.0000
  H   H47       1.0  0.6050299999999998  0.75049  0.7547100000000001  1.0000
  H   H48       1.0  0.25754  0.60212  0.46763  1.0000
  H   H49       1.0  0.20458999999999994  0.4280599999999999  0.59209  1.0000
  H   H50       1.0  0.53992  0.6410199999999998  0.68569  1.0000
  H   H51       1.0  0.7012599999999998  0.8969499999999998  0.81131  1.0000
  H   H52       1.0  0.75049  0.8949599999999998  0.7547100000000001  1.0000
  H   H53       1.0  0.60212  0.24245999999999995  0.46763  1.0000
  H   H54       1.0  0.4280599999999999  0.29541  0.59209  1.0000
  H   H55       1.0  0.6410199999999998  0.9600799999999999  0.68569  1.0000
  H   H56       1.0  0.79874  0.60305  0.81131  1.0000
  H   H57       1.0  0.7495099999999999  0.6050299999999998  0.7547100000000001  1.0000
  H   H58       1.0  0.8978799999999998  0.25754  0.46763  1.0000
  H   H59       1.0  0.07194  0.20458999999999994  0.59209  1.0000
  H   H60       1.0  0.85898  0.53992  0.68569  1.0000
  H   H61       1.0  0.10304999999999997  0.29874  0.6886900000000001  1.0000
  H   H62       1.0  0.10503999999999997  0.24951  0.74529  1.0000
  H   H63       1.0  0.75754  0.39788  0.03238  1.0000
  H   H64       1.0  0.7045899999999998  0.57194  0.90791  1.0000
  H   H65       1.0  0.03992  0.3589799999999999  0.81431  1.0000
  H   H66       1.0  0.39695  0.20126  0.6886900000000001  1.0000
  H   H67       1.0  0.39495999999999987  0.25048999999999993  0.74529  1.0000
  H   H68       1.0  0.7424599999999999  0.10212  0.03238  1.0000
  H   H69       1.0  0.7953999999999998  0.92806  0.90791  1.0000
  H   H70       1.0  0.4600799999999999  0.14102  0.81431  1.0000
  H   H71       1.0  0.29874  0.39695  0.6886900000000001  1.0000
  H   H72       1.0  0.24951  0.39495999999999987  0.74529  1.0000
  H   H73       1.0  0.39788  0.7424599999999999  0.03238  1.0000
  H   H74       1.0  0.57194  0.7953999999999998  0.90791  1.0000
  H   H75       1.0  0.3589799999999999  0.4600799999999999  0.81431  1.0000
  H   H76       1.0  0.20126  0.10304999999999997  0.6886900000000001  1.0000
  H   H77       1.0  0.25048999999999993  0.10503999999999997  0.74529  1.0000
  H   H78       1.0  0.10212  0.75754  0.03238  1.0000
  H   H79       1.0  0.92806  0.7045899999999998  0.90791  1.0000
  H   H80       1.0  0.14102  0.03992  0.81431  1.0000
  C   C1        1.0  0.7216499999999998  0.05792  0.50459  1.0000
  C   C2        1.0  0.6947299999999998  0.9686799999999998  0.44159  1.0000
  C   C3        1.0  0.91295  0.015219999999999996  0.35239  1.0000
  C   C4        1.0  0.92992  0.03144999999999999  0.29961  1.0000
  C   C5        1.0  0.0002799999999999999  0.10217  0.28564  1.0000
  C   C6        1.0  0.022719999999999994  0.1225  0.23681  1.0000
  C   C7        1.0  0.77835  0.4420799999999999  0.50459  1.0000
  C   C8        1.0  0.80527  0.53132  0.44159  1.0000
  C   C9        1.0  0.58705  0.48478  0.35239  1.0000
  C   C10       1.0  0.57008  0.46855  0.29961  1.0000
  C   C11       1.0  0.4997199999999999  0.3978299999999999  0.28564  1.0000
  C   C12       1.0  0.47727999999999987  0.3774999999999999  0.23681  1.0000
  C   C13       1.0  0.4420799999999999  0.7216499999999998  0.50459  1.0000
  C   C14       1.0  0.53132  0.6947299999999998  0.44159  1.0000
  C   C15       1.0  0.48478  0.91295  0.35239  1.0000
  C   C16       1.0  0.46855  0.92992  0.29961  1.0000
  C   C17       1.0  0.3978299999999999  0.0002799999999999999  0.28564  1.0000
  C   C18       1.0  0.3774999999999999  0.022719999999999994  0.23681  1.0000
  C   C19       1.0  0.05792  0.77835  0.50459  1.0000
  C   C20       1.0  0.9686799999999998  0.80527  0.44159  1.0000
  C   C21       1.0  0.015219999999999996  0.58705  0.35239  1.0000
  C   C22       1.0  0.03144999999999999  0.57008  0.29961  1.0000
  C   C23       1.0  0.10217  0.4997199999999999  0.28564  1.0000
  C   C24       1.0  0.1225  0.47727999999999987  0.23681  1.0000
  C   C25       1.0  0.27835  0.55792  0.9954100000000001  1.0000
  C   C26       1.0  0.30526999999999993  0.4686799999999999  0.05841  1.0000
  C   C27       1.0  0.08705  0.5152199999999999  0.14761  1.0000
  C   C28       1.0  0.07008  0.53144  0.20039  1.0000
  C   C29       1.0  0.99972  0.60217  0.21437000000000003  1.0000
  C   C30       1.0  0.9772799999999999  0.6225  0.26319  1.0000
  C   C31       1.0  0.22164999999999996  0.9420799999999998  0.9954100000000001  1.0000
  C   C32       1.0  0.19472999999999996  0.03132  0.05841  1.0000
  C   C33       1.0  0.41294999999999993  0.9847699999999998  0.14761  1.0000
  C   C34       1.0  0.4299199999999999  0.9685499999999999  0.20039  1.0000
  C   C35       1.0  0.50028  0.8978299999999998  0.21437000000000003  1.0000
  C   C36       1.0  0.5227199999999999  0.8774999999999997  0.26319  1.0000
  C   C37       1.0  0.55792  0.22164999999999996  0.9954100000000001  1.0000
  C   C38       1.0  0.4686799999999999  0.19472999999999996  0.05841  1.0000
  C   C39       1.0  0.5152199999999999  0.41294999999999993  0.14761  1.0000
  C   C40       1.0  0.53144  0.4299199999999999  0.20039  1.0000
  C   C41       1.0  0.60217  0.50028  0.21437000000000003  1.0000
  C   C42       1.0  0.6225  0.5227199999999999  0.26319  1.0000
  C   C43       1.0  0.9420799999999998  0.27835  0.9954100000000001  1.0000
  C   C44       1.0  0.03132  0.30526999999999993  0.05841  1.0000
  C   C45       1.0  0.9847699999999998  0.08705  0.14761  1.0000
  C   C46       1.0  0.9685499999999999  0.07008  0.20039  1.0000
  C   C47       1.0  0.8978299999999998  0.99972  0.21437000000000003  1.0000
  C   C48       1.0  0.8774999999999997  0.9772799999999999  0.26319  1.0000
  C   C49       1.0  0.27835  0.9420799999999998  0.49541  1.0000
  C   C50       1.0  0.30526999999999993  0.03132  0.55841  1.0000
  C   C51       1.0  0.08705  0.9847699999999998  0.64761  1.0000
  C   C52       1.0  0.07008  0.9685499999999999  0.70039  1.0000
  C   C53       1.0  0.99972  0.8978299999999998  0.71437  1.0000
  C   C54       1.0  0.9772799999999999  0.8774999999999997  0.76319  1.0000
  C   C55       1.0  0.22164999999999996  0.55792  0.49541  1.0000
  C   C56       1.0  0.19472999999999996  0.4686799999999999  0.55841  1.0000
  C   C57       1.0  0.41294999999999993  0.5152199999999999  0.64761  1.0000
  C   C58       1.0  0.4299199999999999  0.53144  0.70039  1.0000
  C   C59       1.0  0.50028  0.6021599999999998  0.71437  1.0000
  C   C60       1.0  0.5227199999999999  0.6225  0.76319  1.0000
  C   C61       1.0  0.55792  0.27835  0.49541  1.0000
  C   C62       1.0  0.4686799999999999  0.30526999999999993  0.55841  1.0000
  C   C63       1.0  0.5152199999999999  0.08705  0.64761  1.0000
  C   C64       1.0  0.53144  0.07008  0.70039  1.0000
  C   C65       1.0  0.6021599999999998  0.99972  0.71437  1.0000
  C   C66       1.0  0.6225  0.9772799999999999  0.76319  1.0000
  C   C67       1.0  0.9420799999999998  0.22164999999999996  0.49541  1.0000
  C   C68       1.0  0.03132  0.19472999999999996  0.55841  1.0000
  C   C69       1.0  0.9847699999999998  0.41294999999999993  0.64761  1.0000
  C   C70       1.0  0.9685499999999999  0.4299199999999999  0.70039  1.0000
  C   C71       1.0  0.8978299999999998  0.50028  0.71437  1.0000
  C   C72       1.0  0.8774999999999997  0.5227199999999999  0.76319  1.0000
  C   C73       1.0  0.7216499999999998  0.4420799999999999  0.00459  1.0000
  C   C74       1.0  0.6947299999999998  0.53132  0.94159  1.0000
  C   C75       1.0  0.91295  0.48478  0.85239  1.0000
  C   C76       1.0  0.92992  0.46855  0.79961  1.0000
  C   C77       1.0  0.0002799999999999999  0.3978299999999999  0.78564  1.0000
  C   C78       1.0  0.022719999999999994  0.3774999999999999  0.73681  1.0000
  C   C79       1.0  0.77835  0.05792  0.00459  1.0000
  C   C80       1.0  0.80527  0.9686799999999998  0.94159  1.0000
  C   C81       1.0  0.58705  0.015219999999999996  0.85239  1.0000
  C   C82       1.0  0.57008  0.03144999999999999  0.79961  1.0000
  C   C83       1.0  0.4997199999999999  0.10217  0.78564  1.0000
  C   C84       1.0  0.47727999999999987  0.1225  0.73681  1.0000
  C   C85       1.0  0.4420799999999999  0.77835  0.00459  1.0000
  C   C86       1.0  0.53132  0.80527  0.94159  1.0000
  C   C87       1.0  0.48478  0.58705  0.85239  1.0000
  C   C88       1.0  0.46855  0.57008  0.79961  1.0000
  C   C89       1.0  0.3978299999999999  0.4997199999999999  0.78564  1.0000
  C   C90       1.0  0.3774999999999999  0.47727999999999987  0.73681  1.0000
  C   C91       1.0  0.05792  0.7216499999999998  0.00459  1.0000
  C   C92       1.0  0.9686799999999998  0.6947299999999998  0.94159  1.0000
  C   C93       1.0  0.015219999999999996  0.91295  0.85239  1.0000
  C   C94       1.0  0.03144999999999999  0.92992  0.79961  1.0000
  C   C95       1.0  0.10217  0.0002799999999999999  0.78564  1.0000
  C   C96       1.0  0.1225  0.022719999999999994  0.73681  1.0000
  N   N1        1.0  0.76771  0.017449999999999997  0.46552  1.0000
  N   N2        1.0  0.62555  0.03624  0.50504  1.0000
  N   N3        1.0  0.6083699999999997  0.9787599999999999  0.46454000000000006  1.0000
  N   N4        1.0  0.09911999999999997  0.18733  0.22524  1.0000
  N   N5        1.0  0.7322899999999998  0.4825399999999999  0.46552  1.0000
  N   N6        1.0  0.87444  0.4637599999999999  0.50504  1.0000
  N   N7        1.0  0.89163  0.52124  0.46454000000000006  1.0000
  N   N8        1.0  0.40088  0.31267  0.22524  1.0000
  N   N9        1.0  0.4825399999999999  0.76771  0.46552  1.0000
  N   N10       1.0  0.4637599999999999  0.62555  0.50504  1.0000
  N   N11       1.0  0.52124  0.6083699999999997  0.46454000000000006  1.0000
  N   N12       1.0  0.31267  0.09911999999999997  0.22524  1.0000
  N   N13       1.0  0.017449999999999997  0.7322899999999998  0.46552  1.0000
  N   N14       1.0  0.03624  0.87444  0.50504  1.0000
  N   N15       1.0  0.9787599999999999  0.89163  0.46454000000000006  1.0000
  N   N16       1.0  0.18733  0.40088  0.22524  1.0000
  N   N17       1.0  0.23229  0.51745  0.03448  1.0000
  N   N18       1.0  0.3744399999999999  0.53624  0.99496  1.0000
  N   N19       1.0  0.39163  0.47876  0.03546  1.0000
  N   N20       1.0  0.90088  0.6873299999999999  0.27476  1.0000
  N   N21       1.0  0.26770999999999995  0.9825399999999997  0.03448  1.0000
  N   N22       1.0  0.12554999999999997  0.96376  0.99496  1.0000
  N   N23       1.0  0.10837  0.02123999999999999  0.03546  1.0000
  N   N24       1.0  0.5991199999999998  0.81267  0.27476  1.0000
  N   N25       1.0  0.51745  0.26770999999999995  0.03448  1.0000
  N   N26       1.0  0.53624  0.12554999999999997  0.99496  1.0000
  N   N27       1.0  0.47876  0.10837  0.03546  1.0000
  N   N28       1.0  0.6873299999999999  0.5991199999999998  0.27476  1.0000
  N   N29       1.0  0.9825399999999997  0.23229  0.03448  1.0000
  N   N30       1.0  0.96376  0.3744399999999999  0.99496  1.0000
  N   N31       1.0  0.02123999999999999  0.39163  0.03546  1.0000
  N   N32       1.0  0.81267  0.90088  0.27476  1.0000
  N   N33       1.0  0.23229  0.9825399999999997  0.53448  1.0000
  N   N34       1.0  0.3744399999999999  0.96376  0.49496  1.0000
  N   N35       1.0  0.39163  0.02123999999999999  0.53546  1.0000
  N   N36       1.0  0.90088  0.81267  0.77476  1.0000
  N   N37       1.0  0.26770999999999995  0.51745  0.53448  1.0000
  N   N38       1.0  0.12554999999999997  0.53624  0.49496  1.0000
  N   N39       1.0  0.10837  0.47876  0.53546  1.0000
  N   N40       1.0  0.5991199999999998  0.6873299999999999  0.77476  1.0000
  N   N41       1.0  0.51745  0.23229  0.53448  1.0000
  N   N42       1.0  0.53624  0.3744399999999999  0.49496  1.0000
  N   N43       1.0  0.47876  0.39163  0.53546  1.0000
  N   N44       1.0  0.6873299999999999  0.90088  0.77476  1.0000
  N   N45       1.0  0.9825399999999997  0.26770999999999995  0.53448  1.0000
  N   N46       1.0  0.96376  0.12554999999999997  0.49496  1.0000
  N   N47       1.0  0.02123999999999999  0.10837  0.53546  1.0000
  N   N48       1.0  0.81267  0.5991199999999998  0.77476  1.0000
  N   N49       1.0  0.76771  0.4825399999999999  0.96552  1.0000
  N   N50       1.0  0.62555  0.4637599999999999  0.00504  1.0000
  N   N51       1.0  0.6083699999999997  0.52124  0.96454  1.0000
  N   N52       1.0  0.09911999999999997  0.31267  0.72524  1.0000
  N   N53       1.0  0.7322899999999998  0.017449999999999997  0.96552  1.0000
  N   N54       1.0  0.87444  0.03624  0.00504  1.0000
  N   N55       1.0  0.89163  0.9787599999999999  0.96454  1.0000
  N   N56       1.0  0.40088  0.18733  0.72524  1.0000
  N   N57       1.0  0.4825399999999999  0.7322899999999998  0.96552  1.0000
  N   N58       1.0  0.4637599999999999  0.87444  0.00504  1.0000
  N   N59       1.0  0.52124  0.89163  0.96454  1.0000
  N   N60       1.0  0.31267  0.40088  0.72524  1.0000
  N   N61       1.0  0.017449999999999997  0.76771  0.96552  1.0000
  N   N62       1.0  0.03624  0.62555  0.00504  1.0000
  N   N63       1.0  0.9787599999999999  0.6083699999999997  0.96454  1.0000
  N   N64       1.0  0.18733  0.09911999999999997  0.72524  1.0000
  O   O1        1.0  0.8598699999999998  0.94459  0.36854  1.0000
  O   O2        1.0  0.9552  0.07572999999999999  0.38303000000000004  1.0000
  O   O3        1.0  0.6401299999999998  0.55541  0.36854  1.0000
  O   O4        1.0  0.5448  0.42427  0.38303000000000004  1.0000
  O   O5        1.0  0.55541  0.8598699999999998  0.36854  1.0000
  O   O6        1.0  0.42427  0.9552  0.38303000000000004  1.0000
  O   O7        1.0  0.94459  0.6401299999999998  0.36854  1.0000
  O   O8        1.0  0.07572999999999999  0.5448  0.38303000000000004  1.0000
  O   O9        1.0  0.14012999999999998  0.4445899999999999  0.13146  1.0000
  O   O10       1.0  0.044799999999999986  0.5757299999999999  0.11697  1.0000
  O   O11       1.0  0.35987  0.05541  0.13146  1.0000
  O   O12       1.0  0.4552  0.9242699999999998  0.11697  1.0000
  O   O13       1.0  0.4445899999999999  0.35987  0.13146  1.0000
  O   O14       1.0  0.5757299999999999  0.4552  0.11697  1.0000
  O   O15       1.0  0.05541  0.14012999999999998  0.13146  1.0000
  O   O16       1.0  0.9242699999999998  0.044799999999999986  0.11697  1.0000
  O   O17       1.0  0.14012999999999998  0.05541  0.63146  1.0000
  O   O18       1.0  0.044799999999999986  0.9242699999999998  0.61697  1.0000
  O   O19       1.0  0.35987  0.4445899999999999  0.63146  1.0000
  O   O20       1.0  0.4552  0.5757299999999999  0.61697  1.0000
  O   O21       1.0  0.4445899999999999  0.14012999999999998  0.63146  1.0000
  O   O22       1.0  0.5757299999999999  0.044799999999999986  0.61697  1.0000
  O   O23       1.0  0.05541  0.35987  0.63146  1.0000
  O   O24       1.0  0.9242699999999998  0.4552  0.61697  1.0000
  O   O25       1.0  0.8598699999999998  0.55541  0.86854  1.0000
  O   O26       1.0  0.9552  0.42427  0.88303  1.0000
  O   O27       1.0  0.6401299999999998  0.94459  0.86854  1.0000
  O   O28       1.0  0.5448  0.07572999999999999  0.88303  1.0000
  O   O29       1.0  0.55541  0.6401299999999998  0.86854  1.0000
  O   O30       1.0  0.42427  0.5448  0.88303  1.0000
  O   O31       1.0  0.94459  0.8598699999999998  0.86854  1.0000
  O   O32       1.0  0.07572999999999999  0.9552  0.88303  1.0000
