data_image0
_chemical_formula_structural       Co8H112C176Br32N32O32
_chemical_formula_sum              "Co8 H112 C176 Br32 N32 O32"
_cell_length_a       17.31705
_cell_length_b       20.468190000000003
_cell_length_c       23.32429
_cell_angle_alpha    114.97469
_cell_angle_beta     112.03518
_cell_angle_gamma    89.94160000000001

_space_group_name_H-M_alt    "P 1"
_space_group_IT_number       1

loop_
  _space_group_symop_operation_xyz
  'x, y, z'

loop_
  _atom_site_type_symbol
  _atom_site_label
  _atom_site_symmetry_multiplicity
  _atom_site_fract_x
  _atom_site_fract_y
  _atom_site_fract_z
  _atom_site_occupancy
  Co  Co1       1.0  0.9899400000000002  0.6665399999999999  0.8282899999999999  1.0000
  Co  Co2       1.0  0.76018  0.08132999999999999  0.65871  1.0000
  Co  Co3       1.0  0.66208  0.8336400000000002  0.17223  1.0000
  Co  Co4       1.0  0.6011000000000001  0.41865  0.34081  1.0000
  Co  Co5       1.0  0.010059999999999994  0.33346  0.17171  1.0000
  Co  Co6       1.0  0.23981999999999998  0.9186800000000002  0.34129  1.0000
  Co  Co7       1.0  0.33792  0.16636999999999993  0.82777  1.0000
  Co  Co8       1.0  0.3989100000000001  0.58135  0.65919  1.0000
  H   H1        1.0  0.21608999999999992  0.55251  0.8519199999999999  1.0000
  H   H2        1.0  0.19377000000000003  0.71433  0.90199  1.0000
  H   H3        1.0  0.33830999999999994  0.7105099999999999  0.8908299999999999  1.0000
  H   H4        1.0  0.33816  0.6524  0.80954  1.0000
  H   H5        1.0  0.26259999999999994  0.45874  0.89128  1.0000
  H   H6        1.0  0.6783700000000003  0.6955699999999999  0.43526999999999993  1.0000
  H   H7        1.0  0.46169000000000004  0.76385  0.32561  1.0000
  H   H8        1.0  0.41561999999999993  0.45083  0.93576  1.0000
  H   H9        1.0  0.58939  0.67417  0.03566  1.0000
  H   H10       1.0  0.79419  0.87893  0.40583  1.0000
  H   H11       1.0  0.71114  0.90335  0.35079  1.0000
  H   H12       1.0  0.7448100000000003  0.042159999999999996  0.41792000000000007  1.0000
  H   H13       1.0  0.1964700000000001  0.56919  0.7091  1.0000
  H   H14       1.0  0.36166  0.8327900000000001  0.26585  1.0000
  H   H15       1.0  0.56623  0.88803  0.0595  1.0000
  H   H16       1.0  0.50699  0.83244  0.26071  1.0000
  H   H17       1.0  0.58711  0.90998  0.32146  1.0000
  H   H18       1.0  0.54653  0.6125199999999998  0.8915099999999999  1.0000
  H   H19       1.0  0.46838  0.6526100000000001  0.8506500000000001  1.0000
  H   H20       1.0  0.51985  0.5348  0.9367199999999999  1.0000
  H   H21       1.0  0.028359999999999996  0.5706  0.69505  1.0000
  H   H22       1.0  0.77297  0.79343  0.44299  1.0000
  H   H23       1.0  0.7384200000000002  0.92465  0.52887  1.0000
  H   H24       1.0  0.52223  0.68153  0.37699  1.0000
  H   H25       1.0  0.76753  0.14055999999999993  0.55362  1.0000
  H   H26       1.0  0.41198  0.03322000000000001  0.44456  1.0000
  H   H27       1.0  0.56411  0.003680000000000001  0.433  1.0000
  H   H28       1.0  0.48633000000000004  0.7882  0.9174099999999998  1.0000
  H   H29       1.0  0.86436  0.9478300000000001  0.14813  1.0000
  H   H30       1.0  0.7910600000000001  0.78577  0.09808  1.0000
  H   H31       1.0  0.94743  0.78952  0.10936999999999998  1.0000
  H   H32       1.0  0.02903  0.8479300000000001  0.19074  1.0000
  H   H33       1.0  0.87125  0.04153000000000001  0.10874  1.0000
  H   H34       1.0  0.74231  0.80433  0.5646  1.0000
  H   H35       1.0  0.63626  0.73628  0.67417  1.0000
  H   H36       1.0  0.97917  0.04893  0.06403  1.0000
  H   H37       1.0  0.05392  0.82589  0.96467  1.0000
  H   H38       1.0  0.8886900000000002  0.62134  0.59501  1.0000
  H   H39       1.0  0.8604600000000001  0.59664  0.64951  1.0000
  H   H40       1.0  0.8270900000000001  0.45796  0.58237  1.0000
  H   H41       1.0  0.98872  0.9311  0.29072  1.0000
  H   H42       1.0  0.59731  0.66739  0.73436  1.0000
  H   H43       1.0  0.00687000000000006  0.61187  0.94029  1.0000
  H   H44       1.0  0.74727  0.66771  0.73923  1.0000
  H   H45       1.0  0.76624  0.59014  0.67858  1.0000
  H   H46       1.0  0.15500000000000005  0.88741  0.10901  1.0000
  H   H47       1.0  0.11765  0.84699  0.14935  1.0000
  H   H48       1.0  0.08239  0.9647599999999998  0.06313  1.0000
  H   H49       1.0  0.83515  0.9294000000000001  0.30522  1.0000
  H   H50       1.0  0.8294300000000001  0.70651  0.55711  1.0000
  H   H51       1.0  0.70944  0.57534  0.47098  1.0000
  H   H52       1.0  0.6449000000000001  0.8185  0.62273  1.0000
  H   H53       1.0  0.71392  0.35947  0.44630999999999993  1.0000
  H   H54       1.0  0.46692  0.46685000000000004  0.55593  1.0000
  H   H55       1.0  0.63034  0.49629000000000006  0.56681  1.0000
  H   H56       1.0  0.06858  0.71152  0.08236  1.0000
  H   H57       1.0  0.78391  0.44749000000000005  0.14808  1.0000
  H   H58       1.0  0.80623  0.28567  0.09799999999999999  1.0000
  H   H59       1.0  0.6616900000000002  0.28949  0.10916999999999999  1.0000
  H   H60       1.0  0.6618400000000002  0.3476  0.19046  1.0000
  H   H61       1.0  0.7374  0.54126  0.10871999999999998  1.0000
  H   H62       1.0  0.32163  0.30443  0.56473  1.0000
  H   H63       1.0  0.5383200000000002  0.23616000000000004  0.67439  1.0000
  H   H64       1.0  0.5843800000000002  0.54917  0.06424  1.0000
  H   H65       1.0  0.4106200000000002  0.3258399999999999  0.96434  1.0000
  H   H66       1.0  0.20581  0.12107000000000004  0.59417  1.0000
  H   H67       1.0  0.28887  0.09665  0.64921  1.0000
  H   H68       1.0  0.25519000000000003  0.95785  0.58207  1.0000
  H   H69       1.0  0.80353  0.43082000000000004  0.2909  1.0000
  H   H70       1.0  0.63834  0.16722  0.73415  1.0000
  H   H71       1.0  0.4337699999999999  0.11196999999999997  0.9405  1.0000
  H   H72       1.0  0.49302  0.16755999999999993  0.73929  1.0000
  H   H73       1.0  0.4128900000000001  0.09001999999999998  0.67854  1.0000
  H   H74       1.0  0.45348000000000005  0.38748  0.10849  1.0000
  H   H75       1.0  0.53162  0.34739  0.14935  1.0000
  H   H76       1.0  0.4801500000000001  0.46519999999999995  0.06328  1.0000
  H   H77       1.0  0.97164  0.42940000000000006  0.30495  1.0000
  H   H78       1.0  0.22703  0.20657  0.55701  1.0000
  H   H79       1.0  0.26158  0.07535000000000001  0.47113  1.0000
  H   H80       1.0  0.47777  0.31848  0.62301  1.0000
  H   H81       1.0  0.23248000000000002  0.8594499999999999  0.44638  1.0000
  H   H82       1.0  0.58803  0.9667800000000001  0.55544  1.0000
  H   H83       1.0  0.43588999999999994  0.99632  0.567  1.0000
  H   H84       1.0  0.51367  0.21181000000000003  0.08259  1.0000
  H   H85       1.0  0.13564000000000004  0.05216999999999999  0.85187  1.0000
  H   H86       1.0  0.20894999999999997  0.21423000000000003  0.90192  1.0000
  H   H87       1.0  0.05256999999999995  0.21047999999999986  0.8906299999999999  1.0000
  H   H88       1.0  0.9709700000000001  0.15207  0.80926  1.0000
  H   H89       1.0  0.12875  0.9584699999999999  0.89126  1.0000
  H   H90       1.0  0.25769  0.19566999999999996  0.4354  1.0000
  H   H91       1.0  0.36375  0.26373  0.32583  1.0000
  H   H92       1.0  0.020829999999999883  0.95107  0.93597  1.0000
  H   H93       1.0  0.9460800000000001  0.17411  0.03533  1.0000
  H   H94       1.0  0.11132  0.37866  0.40499  1.0000
  H   H95       1.0  0.13954  0.40336000000000005  0.35049  1.0000
  H   H96       1.0  0.17291000000000004  0.54204  0.41763000000000006  1.0000
  H   H97       1.0  0.01128999999999999  0.0689  0.70928  1.0000
  H   H98       1.0  0.40269000000000016  0.33261  0.26564  1.0000
  H   H99       1.0  0.9931400000000001  0.38814  0.059710000000000006  1.0000
  H   H100      1.0  0.25273  0.33229  0.26077  1.0000
  H   H101      1.0  0.23376000000000002  0.40986  0.32142  1.0000
  H   H102      1.0  0.84501  0.11259000000000002  0.89099  1.0000
  H   H103      1.0  0.88235  0.15301000000000015  0.8506500000000001  1.0000
  H   H104      1.0  0.91761  0.035250000000000024  0.93687  1.0000
  H   H105      1.0  0.16485  0.0706  0.69478  1.0000
  H   H106      1.0  0.17058  0.2934899999999999  0.44289  1.0000
  H   H107      1.0  0.29056  0.42466  0.52902  1.0000
  H   H108      1.0  0.35511000000000004  0.18151  0.37727  1.0000
  H   H109      1.0  0.28608  0.64054  0.55369  1.0000
  H   H110      1.0  0.53308  0.53316  0.44407  1.0000
  H   H111      1.0  0.36966000000000004  0.50371  0.43319  1.0000
  H   H112      1.0  0.9314200000000001  0.28848  0.91764  1.0000
  C   C1        1.0  0.9299600000000001  0.33142  0.75237  1.0000
  C   C2        1.0  0.28303999999999996  0.5494400000000003  0.87104  1.0000
  C   C3        1.0  0.8105000000000002  0.42252  0.74864  1.0000
  C   C4        1.0  0.94807  0.39798000000000006  0.75221  1.0000
  C   C5        1.0  0.9564  0.7794300000000001  0.80421  1.0000
  C   C6        1.0  0.79359  0.35695  0.75088  1.0000
  C   C7        1.0  0.17042999999999991  0.6751599999999999  0.8475999999999999  1.0000
  C   C8        1.0  0.31337999999999994  0.6549899999999999  0.84724  1.0000
  C   C9        1.0  0.85258  0.31009  0.75161  1.0000
  C   C10       1.0  0.30921  0.49683000000000005  0.89397  1.0000
  C   C11       1.0  0.9109800000000001  0.88941  0.7019  1.0000
  C   C12       1.0  0.9421300000000001  0.8387800000000001  0.72629  1.0000
  C   C13       1.0  0.85616  0.8672699999999999  0.79154  1.0000
  C   C14       1.0  0.81016  0.97689  0.68919  1.0000
  C   C15       1.0  0.671  0.8336000000000001  0.388  1.0000
  C   C16       1.0  0.85199  0.92924  0.72186  1.0000
  C   C17       1.0  0.65174  0.73259  0.41389  1.0000
  C   C18       1.0  0.5302  0.77035  0.35133  1.0000
  C   C19       1.0  0.88789  0.44377  0.74945  1.0000
  C   C20       1.0  0.3949199999999999  0.49247  0.91898  1.0000
  C   C21       1.0  0.9160500000000004  0.8282899999999999  0.77238  1.0000
  C   C22       1.0  0.42768  0.59185  0.89527  1.0000
  C   C23       1.0  0.5723900000000002  0.71894  0.0233  1.0000
  C   C24       1.0  0.34128  0.59737  0.87162  1.0000
  C   C25       1.0  0.7312100000000004  0.8936400000000001  0.39652  1.0000
  C   C26       1.0  0.90758  0.51574  0.74917  1.0000
  C   C27       1.0  0.82435  0.91728  0.76651  1.0000
  C   C28       1.0  0.74826  0.03395999999999997  0.46171999999999996  1.0000
  C   C29       1.0  0.16973  0.59922  0.74565  1.0000
  C   C30       1.0  0.3949500000000001  0.8833400000000001  0.31278  1.0000
  C   C31       1.0  0.55858  0.82894  0.0329  1.0000
  C   C32       1.0  0.54124  0.8690300000000001  0.31647  1.0000
  C   C33       1.0  0.4932  0.64038  0.89497  1.0000
  C   C34       1.0  0.4533100000000001  0.53978  0.91933  1.0000
  C   C35       1.0  0.08774  0.60074  0.7394  1.0000
  C   C36       1.0  0.58247  0.82444  0.35368  1.0000
  C   C37       1.0  0.70438  0.7871199999999999  0.4176  1.0000
  C   C38       1.0  0.7439199999999999  0.9703300000000001  0.51796  1.0000
  C   C39       1.0  0.56386  0.72452  0.38099  1.0000
  C   C40       1.0  0.7584199999999999  0.08129000000000004  0.52795  1.0000
  C   C41       1.0  0.83209  0.23631  0.74878  1.0000
  C   C42       1.0  0.42452  0.98701  0.40633  1.0000
  C   C43       1.0  0.49978  0.9731700000000001  0.40112  1.0000
  C   C44       1.0  0.5176800000000003  0.7807300000000001  0.96352  1.0000
  C   C45       1.0  0.67761  0.16840000000000002  0.24763  1.0000
  C   C46       1.0  0.91194  0.95071  0.12891  1.0000
  C   C47       1.0  0.5616500000000002  0.0777  0.25133  1.0000
  C   C48       1.0  0.69575  0.10181  0.24789  1.0000
  C   C49       1.0  0.65249  0.72101  0.19653  1.0000
  C   C50       1.0  0.54262  0.14329  0.24902  1.0000
  C   C51       1.0  0.82288  0.82494  0.15245  1.0000
  C   C52       1.0  0.96626  0.84515  0.15278  1.0000
  C   C53       1.0  0.60101  0.18997  0.24832  1.0000
  C   C54       1.0  0.9149900000000002  0.0032599999999999847  0.10594999999999999  1.0000
  C   C55       1.0  0.7090400000000002  0.61068  0.29843  1.0000
  C   C56       1.0  0.71589  0.6614100000000002  0.27428  1.0000
  C   C57       1.0  0.5641900000000002  0.63303  0.20845000000000002  1.0000
  C   C58       1.0  0.62094  0.52292  0.3105  1.0000
  C   C59       1.0  0.78289  0.66643  0.61207  1.0000
  C   C60       1.0  0.62982  0.57084  0.27812  1.0000
  C   C61       1.0  0.73731  0.7673299999999998  0.58598  1.0000
  C   C62       1.0  0.67888  0.72971  0.64852  1.0000
  C   C63       1.0  0.63822  0.05622  0.25062  1.0000
  C   C64       1.0  0.9753999999999999  0.007349999999999995  0.08085  1.0000
  C   C65       1.0  0.64353  0.67203  0.22802  1.0000
  C   C66       1.0  0.03207  0.9079299999999999  0.10462  1.0000
  C   C67       1.0  0.049209999999999844  0.78108  0.9769299999999999  1.0000
  C   C68       1.0  0.9695300000000001  0.9026300000000002  0.12828  1.0000
  C   C69       1.0  0.83477  0.60647  0.60383  1.0000
  C   C70       1.0  0.65826  0.98433  0.25118  1.0000
  C   C71       1.0  0.55731  0.5829199999999999  0.23329  1.0000
  C   C72       1.0  0.78659  0.46612000000000003  0.53846  1.0000
  C   C73       1.0  0.9251  0.901  0.25428  1.0000
  C   C74       1.0  0.58299  0.61675  0.68742  1.0000
  C   C75       1.0  0.02580000000000001  0.67096  0.96706  1.0000
  C   C76       1.0  0.72526  0.63106  0.68348  1.0000
  C   C77       1.0  0.09804  0.8594100000000001  0.10515  1.0000
  C   C78       1.0  0.03339  0.9599  0.08049  1.0000
  C   C79       1.0  0.84958  0.8993400000000001  0.26072  1.0000
  C   C80       1.0  0.72887  0.6756  0.64626  1.0000
  C   C81       1.0  0.7863799999999999  0.71284  0.58242  1.0000
  C   C82       1.0  0.72592  0.5296899999999999  0.48196999999999995  1.0000
  C   C83       1.0  0.68257  0.7754799999999998  0.61881  1.0000
  C   C84       1.0  0.73048  0.41874  0.47202  1.0000
  C   C85       1.0  0.58327  0.26375  0.25106  1.0000
  C   C86       1.0  0.51805  0.51306  0.59402  1.0000
  C   C87       1.0  0.59836  0.52689  0.59886  1.0000
  C   C88       1.0  0.05395  0.7191  0.03638  1.0000
  C   C89       1.0  0.07003999999999998  0.66858  0.24763  1.0000
  C   C90       1.0  0.7169600000000003  0.4505700000000001  0.12896  1.0000
  C   C91       1.0  0.18951  0.57748  0.25136  1.0000
  C   C92       1.0  0.05192999999999999  0.60202  0.24779  1.0000
  C   C93       1.0  0.04359999999999997  0.22057000000000002  0.19578  1.0000
  C   C94       1.0  0.20640999999999998  0.64305  0.24911999999999998  1.0000
  C   C95       1.0  0.8295700000000003  0.32484  0.1524  1.0000
  C   C96       1.0  0.68662  0.34501  0.15276  1.0000
  C   C97       1.0  0.14741999999999997  0.68992  0.24838999999999997  1.0000
  C   C98       1.0  0.6907900000000002  0.50318  0.10603  1.0000
  C   C99       1.0  0.08902000000000004  0.11059999999999999  0.2981  1.0000
  C   C100      1.0  0.05787000000000002  0.16122  0.27371  1.0000
  C   C101      1.0  0.14384000000000005  0.13273  0.20846  1.0000
  C   C102      1.0  0.18985000000000002  0.02311999999999999  0.31081  1.0000
  C   C103      1.0  0.329  0.16640999999999995  0.612  1.0000
  C   C104      1.0  0.14802  0.07075999999999998  0.27813  1.0000
  C   C105      1.0  0.34826  0.26741  0.58611  1.0000
  C   C106      1.0  0.46981  0.22965  0.64867  1.0000
  C   C107      1.0  0.11211  0.55623  0.25055  1.0000
  C   C108      1.0  0.60508  0.50753  0.08102  1.0000
  C   C109      1.0  0.08395000000000001  0.17171000000000003  0.22762000000000002  1.0000
  C   C110      1.0  0.57232  0.40814999999999996  0.10473  1.0000
  C   C111      1.0  0.42761  0.28106  0.9766999999999999  1.0000
  C   C112      1.0  0.65873  0.40264  0.12838  1.0000
  C   C113      1.0  0.26879  0.10636000000000001  0.60348  1.0000
  C   C114      1.0  0.09242  0.48426  0.25083  1.0000
  C   C115      1.0  0.17565  0.08271999999999999  0.23348999999999998  1.0000
  C   C116      1.0  0.25174  0.96604  0.53828  1.0000
  C   C117      1.0  0.8302800000000002  0.40078  0.25435  1.0000
  C   C118      1.0  0.60505  0.11666000000000001  0.68722  1.0000
  C   C119      1.0  0.44142  0.17105999999999993  0.9671  1.0000
  C   C120      1.0  0.45876  0.13098  0.68353  1.0000
  C   C121      1.0  0.5068  0.35962  0.10503  1.0000
  C   C122      1.0  0.54669  0.4602200000000001  0.08067  1.0000
  C   C123      1.0  0.9122600000000002  0.39926  0.2606  1.0000
  C   C124      1.0  0.41753  0.17556  0.64632  1.0000
  C   C125      1.0  0.29562  0.21288000000000004  0.5824  1.0000
  C   C126      1.0  0.25608  0.029670000000000023  0.48204  1.0000
  C   C127      1.0  0.43613999999999997  0.27547999999999995  0.6190099999999998  1.0000
  C   C128      1.0  0.24159  0.91871  0.47205  1.0000
  C   C129      1.0  0.16791  0.7636899999999999  0.25122  1.0000
  C   C130      1.0  0.57548  0.01300000000000002  0.59367  1.0000
  C   C131      1.0  0.50022  0.026830000000000024  0.59888  1.0000
  C   C132      1.0  0.48232  0.21927  0.03648  1.0000
  C   C133      1.0  0.32239  0.8316  0.75237  1.0000
  C   C134      1.0  0.08806000000000005  0.04929000000000009  0.87109  1.0000
  C   C135      1.0  0.4383500000000001  0.9223  0.74867  1.0000
  C   C136      1.0  0.3042500000000001  0.8981900000000002  0.75211  1.0000
  C   C137      1.0  0.34751  0.27899  0.80347  1.0000
  C   C138      1.0  0.45738  0.85671  0.75098  1.0000
  C   C139      1.0  0.17712000000000003  0.17506000000000005  0.84755  1.0000
  C   C140      1.0  0.03373999999999994  0.15484999999999988  0.8472199999999999  1.0000
  C   C141      1.0  0.399  0.81003  0.75168  1.0000
  C   C142      1.0  0.08500999999999995  0.99675  0.8940499999999999  1.0000
  C   C143      1.0  0.29096  0.38932  0.70157  1.0000
  C   C144      1.0  0.28411999999999993  0.33858999999999995  0.7257199999999999  1.0000
  C   C145      1.0  0.43581000000000003  0.36697  0.79155  1.0000
  C   C146      1.0  0.37906  0.47708  0.6895  1.0000
  C   C147      1.0  0.21711000000000005  0.33357  0.38793  1.0000
  C   C148      1.0  0.37018  0.42916  0.72188  1.0000
  C   C149      1.0  0.26269  0.23267000000000002  0.41402  1.0000
  C   C150      1.0  0.32112  0.27029  0.35148  1.0000
  C   C151      1.0  0.36178  0.94378  0.74938  1.0000
  C   C152      1.0  0.024609999999999934  0.99265  0.9191499999999999  1.0000
  C   C153      1.0  0.35647  0.32797  0.77198  1.0000
  C   C154      1.0  0.96793  0.09208  0.8953800000000001  1.0000
  C   C155      1.0  0.95079  0.21893000000000004  0.02307  1.0000
  C   C156      1.0  0.03047999999999998  0.09737000000000001  0.87172  1.0000
  C   C157      1.0  0.16523  0.39353  0.39617  1.0000
  C   C158      1.0  0.34174  0.015669999999999983  0.74882  1.0000
  C   C159      1.0  0.44269  0.41708  0.76671  1.0000
  C   C160      1.0  0.2134099999999999  0.53389  0.46153999999999995  1.0000
  C   C161      1.0  0.07490000000000002  0.099  0.74572  1.0000
  C   C162      1.0  0.4170100000000001  0.38325  0.31258  1.0000
  C   C163      1.0  0.9742  0.32904  0.03294  1.0000
  C   C164      1.0  0.27474  0.36894000000000005  0.31652  1.0000
  C   C165      1.0  0.9019700000000003  0.1406000000000001  0.8948500000000001  1.0000
  C   C166      1.0  0.96662  0.0401  0.91951  1.0000
  C   C167      1.0  0.15043  0.10066000000000001  0.73928  1.0000
  C   C168      1.0  0.27113  0.3244  0.35374  1.0000
  C   C169      1.0  0.21363000000000001  0.2871600000000001  0.41758000000000006  1.0000
  C   C170      1.0  0.27408  0.47031000000000006  0.51803  1.0000
  C   C171      1.0  0.31744  0.22451999999999997  0.3811899999999999  1.0000
  C   C172      1.0  0.26952  0.58126  0.52798  1.0000
  C   C173      1.0  0.41673000000000004  0.73625  0.74894  1.0000
  C   C174      1.0  0.48195000000000005  0.48695000000000005  0.40598  1.0000
  C   C175      1.0  0.40165  0.47311000000000003  0.40114  1.0000
  C   C176      1.0  0.9460500000000001  0.2809  0.96362  1.0000
  Br  Br1       1.0  0.7386100000000001  0.96757  0.78898  1.0000
  Br  Br2       1.0  0.018720000000000007  0.78052  0.6963  1.0000
  Br  Br3       1.0  0.94364  0.90209  0.63649  1.0000
  Br  Br4       1.0  0.68992  0.33054  0.7545  1.0000
  Br  Br5       1.0  0.054780000000000016  0.42851999999999996  0.75528  1.0000
  Br  Br6       1.0  0.72761  0.4847  0.74255  1.0000
  Br  Br7       1.0  0.010299999999999898  0.26675999999999994  0.7535999999999999  1.0000
  Br  Br8       1.0  0.8205000000000001  0.8518700000000002  0.8542900000000001  1.0000
  Br  Br9       1.0  0.44873999999999997  0.53233  0.21000999999999997  1.0000
  Br  Br10      1.0  0.8229199999999999  0.71933  0.30441  1.0000
  Br  Br11      1.0  0.80747  0.59776  0.36395  1.0000
  Br  Br12      1.0  0.43533  0.17006  0.24531  1.0000
  Br  Br13      1.0  0.7994100000000001  0.07094  0.24512  1.0000
  Br  Br14      1.0  0.48463  0.015640000000000015  0.25719  1.0000
  Br  Br15      1.0  0.7569599999999999  0.23282999999999998  0.24656999999999998  1.0000
  Br  Br16      1.0  0.46558  0.64834  0.14521  1.0000
  Br  Br17      1.0  0.26139000000000007  0.03243000000000002  0.21102  1.0000
  Br  Br18      1.0  0.98128  0.21948  0.3037  1.0000
  Br  Br19      1.0  0.05636000000000001  0.09791  0.36351  1.0000
  Br  Br20      1.0  0.31008  0.66946  0.24549999999999997  1.0000
  Br  Br21      1.0  0.9452200000000001  0.57148  0.24471999999999997  1.0000
  Br  Br22      1.0  0.27239  0.5153  0.25745  1.0000
  Br  Br23      1.0  0.9897  0.73324  0.24639999999999998  1.0000
  Br  Br24      1.0  0.1795  0.14813  0.14571  1.0000
  Br  Br25      1.0  0.55127  0.46768  0.78999  1.0000
  Br  Br26      1.0  0.17708999999999994  0.28067  0.69559  1.0000
  Br  Br27      1.0  0.19253  0.40225000000000005  0.63605  1.0000
  Br  Br28      1.0  0.56467  0.82994  0.75469  1.0000
  Br  Br29      1.0  0.20059  0.9290600000000001  0.75488  1.0000
  Br  Br30      1.0  0.5153699999999999  0.98436  0.7428099999999999  1.0000
  Br  Br31      1.0  0.24304  0.7671799999999999  0.75343  1.0000
  Br  Br32      1.0  0.53443  0.35166  0.85479  1.0000
  N   N1        1.0  0.08893999999999996  0.64836  0.80342  1.0000
  N   N2        1.0  0.35941  0.93042  0.35109  1.0000
  N   N3        1.0  0.52698  0.71136  0.9584899999999998  1.0000
  N   N4        1.0  0.73921  0.9639  0.4563400000000001  1.0000
  N   N5        1.0  0.59282  0.7898000000000001  0.06978  1.0000
  N   N6        1.0  0.22133  0.64675  0.81437  1.0000
  N   N7        1.0  0.48002  0.9076599999999999  0.34135  1.0000
  N   N8        1.0  0.7555500000000003  0.04102000000000001  0.5626  1.0000
  N   N9        1.0  0.78616  0.85162  0.19677  1.0000
  N   N10       1.0  0.50885  0.56964  0.6494  1.0000
  N   N11       1.0  0.06825  0.78853  0.04156  1.0000
  N   N12       1.0  0.78286  0.53618  0.54381  1.0000
  N   N13       1.0  0.023369999999999936  0.7102299999999999  0.9304199999999999  1.0000
  N   N14       1.0  0.90726  0.8535200000000001  0.18554  1.0000
  N   N15       1.0  0.63897  0.59245  0.65857  1.0000
  N   N16       1.0  0.6929099999999999  0.45898000000000005  0.43722999999999995  1.0000
  N   N17       1.0  0.91106  0.35164  0.19658  1.0000
  N   N18       1.0  0.6406  0.06957999999999999  0.64891  1.0000
  N   N19       1.0  0.47302000000000005  0.28864  0.04151  1.0000
  N   N20       1.0  0.2608  0.03609999999999999  0.54366  1.0000
  N   N21       1.0  0.4071799999999998  0.21019999999999997  0.9302199999999999  1.0000
  N   N22       1.0  0.77868  0.35326  0.18563  1.0000
  N   N23       1.0  0.51998  0.09234999999999999  0.65865  1.0000
  N   N24       1.0  0.24445000000000003  0.95898  0.4374  1.0000
  N   N25       1.0  0.2138399999999999  0.14837999999999998  0.8032299999999999  1.0000
  N   N26       1.0  0.49115  0.43036  0.3506  1.0000
  N   N27       1.0  0.93175  0.21147  0.95843  1.0000
  N   N28       1.0  0.21714  0.46382000000000007  0.45619  1.0000
  N   N29       1.0  0.97663  0.28978  0.06958  1.0000
  N   N30       1.0  0.09273999999999999  0.14647999999999992  0.81446  1.0000
  N   N31       1.0  0.3610300000000001  0.4075599999999999  0.34143  1.0000
  N   N32       1.0  0.30709  0.54102  0.56277  1.0000
  O   O1        1.0  0.7441200000000001  0.9478600000000001  0.63414  1.0000
  O   O2        1.0  0.9371099999999999  0.57091  0.81016  1.0000
  O   O3        1.0  0.84376  0.04561999999999997  0.72002  1.0000
  O   O4        1.0  0.9138999999999999  0.71401  0.77723  1.0000
  O   O5        1.0  0.85026  0.23101  0.80337  1.0000
  O   O6        1.0  0.027629999999999974  0.8042700000000002  0.85405  1.0000
  O   O7        1.0  0.8951  0.51653  0.69325  1.0000
  O   O8        1.0  0.7963800000000002  0.18473999999999996  0.68577  1.0000
  O   O9        1.0  0.60933  0.55161  0.36508  1.0000
  O   O10       1.0  0.62828  0.92938  0.19008  1.0000
  O   O11       1.0  0.62472  0.45442  0.2801  1.0000
  O   O12       1.0  0.63908  0.78704  0.22441  1.0000
  O   O13       1.0  0.54762  0.26915  0.1964  1.0000
  O   O14       1.0  0.67224  0.69569  0.14606  1.0000
  O   O15       1.0  0.70035  0.98341  0.30737  1.0000
  O   O16       1.0  0.60937  0.31512  0.31405  1.0000
  O   O17       1.0  0.25588000000000005  0.05214  0.36586  1.0000
  O   O18       1.0  0.06289  0.4290900000000001  0.18984  1.0000
  O   O19       1.0  0.15624  0.95438  0.27998  1.0000
  O   O20       1.0  0.0861  0.286  0.22277  1.0000
  O   O21       1.0  0.14974  0.76899  0.19663  1.0000
  O   O22       1.0  0.9723700000000001  0.19572999999999996  0.14594  1.0000
  O   O23       1.0  0.10489999999999997  0.48347  0.30675  1.0000
  O   O24       1.0  0.20362000000000005  0.8152600000000001  0.31423  1.0000
  O   O25       1.0  0.39068  0.44839000000000007  0.63492  1.0000
  O   O26       1.0  0.37172  0.07062000000000009  0.80992  1.0000
  O   O27       1.0  0.37528  0.54558  0.7199  1.0000
  O   O28       1.0  0.36092  0.21296  0.77559  1.0000
  O   O29       1.0  0.45238  0.73085  0.8036  1.0000
  O   O30       1.0  0.32776  0.30431  0.85394  1.0000
  O   O31       1.0  0.29966  0.016590000000000035  0.69263  1.0000
  O   O32       1.0  0.39064  0.68488  0.68595  1.0000
