data_image0
_chemical_formula_structural       Ni16H96C120N16O56
_chemical_formula_sum              "Ni16 H96 C120 N16 O56"
_cell_length_a       12.84366
_cell_length_b       14.421749999999998
_cell_length_c       31.01638
_cell_angle_alpha    89.98724
_cell_angle_beta     96.08075000000001
_cell_angle_gamma    89.99682

_space_group_name_H-M_alt    "P 1"
_space_group_IT_number       1

loop_
  _space_group_symop_operation_xyz
  'x, y, z'

loop_
  _atom_site_type_symbol
  _atom_site_label
  _atom_site_symmetry_multiplicity
  _atom_site_fract_x
  _atom_site_fract_y
  _atom_site_fract_z
  _atom_site_occupancy
  Ni  Ni1       1.0  0.8742899999999998  0.76687  0.06727  1.0000
  Ni  Ni2       1.0  0.19018  0.88771  0.10827000000000003  1.0000
  Ni  Ni3       1.0  0.12654999999999997  0.6951899999999999  0.11842000000000003  1.0000
  Ni  Ni4       1.0  0.9716799999999998  0.8099799999999999  0.16124000000000005  1.0000
  Ni  Ni5       1.0  0.12601  0.2659399999999999  0.4328900000000001  1.0000
  Ni  Ni6       1.0  0.8103699999999998  0.38707  0.39201000000000014  1.0000
  Ni  Ni7       1.0  0.8735999999999999  0.19356  0.3814700000000001  1.0000
  Ni  Ni8       1.0  0.028210000000000027  0.30991  0.3387400000000001  1.0000
  Ni  Ni9       1.0  0.12565  0.23316  0.9327300000000002  1.0000
  Ni  Ni10      1.0  0.80986  0.11230999999999997  0.89173  1.0000
  Ni  Ni11      1.0  0.8734099999999998  0.30491  0.8815300000000001  1.0000
  Ni  Ni12      1.0  0.02828000000000006  0.19004  0.8387500000000002  1.0000
  Ni  Ni13      1.0  0.87393  0.7343299999999998  0.56702  1.0000
  Ni  Ni14      1.0  0.19009999999999994  0.61222  0.60827  1.0000
  Ni  Ni15      1.0  0.12653999999999996  0.80497  0.61845  1.0000
  Ni  Ni16      1.0  0.97165  0.68992  0.6612300000000002  1.0000
  H   H1        1.0  0.9366  0.65004  0.1218  1.0000
  H   H2        1.0  0.17359  0.81028  0.18046  1.0000
  H   H3        1.0  0.22057999999999994  0.50985  0.1331  1.0000
  H   H4        1.0  0.09848000000000003  0.50794  0.9777300000000002  1.0000
  H   H5        1.0  0.97203  0.92756  0.9747400000000003  1.0000
  H   H6        1.0  0.9373899999999997  0.50407  0.32826  1.0000
  H   H7        1.0  0.95323  0.6386  0.27777  1.0000
  H   H8        1.0  0.059399999999999994  0.6385599999999998  0.026890000000000008  1.0000
  H   H9        1.0  0.54175  0.8105399999999998  0.10991000000000002  1.0000
  H   H10       1.0  0.12537999999999996  0.33882  0.2596300000000001  1.0000
  H   H11       1.0  0.14559  0.46633999999999987  0.20542000000000005  1.0000
  H   H12       1.0  0.30913  0.94671  0.87988  1.0000
  H   H13       1.0  0.26441  0.059729999999999984  0.8926900000000002  1.0000
  H   H14       1.0  0.18480000000000005  0.9902  0.8561700000000002  1.0000
  H   H15       1.0  0.3657000000000001  0.7712699999999998  0.9877500000000002  1.0000
  H   H16       1.0  0.26455999999999996  0.7140599999999998  0.0135  1.0000
  H   H17       1.0  0.32897  0.8105399999999998  0.038600000000000016  1.0000
  H   H18       1.0  0.73018  0.572  0.23341000000000006  1.0000
  H   H19       1.0  0.8056399999999998  0.67428  0.22564  1.0000
  H   H20       1.0  0.7888099999999999  0.5909799999999997  0.18436  1.0000
  H   H21       1.0  0.25424  0.36772  0.08842  1.0000
  H   H22       1.0  0.41065  0.61982  0.24879000000000007  1.0000
  H   H23       1.0  0.32488  0.60589  0.19977000000000006  1.0000
  H   H24       1.0  0.3328599999999999  0.71403  0.22603  1.0000
  H   H25       1.0  0.06407000000000002  0.15023  0.3781800000000001  1.0000
  H   H26       1.0  0.82624  0.31033  0.31967  1.0000
  H   H27       1.0  0.7792499999999999  0.00808  0.36706  1.0000
  H   H28       1.0  0.9014299999999998  0.00794  0.52231  1.0000
  H   H29       1.0  0.027899999999999998  0.42732999999999993  0.52506  1.0000
  H   H30       1.0  0.06252  0.00406  0.17168  1.0000
  H   H31       1.0  0.04675  0.13860999999999996  0.22215000000000004  1.0000
  H   H32       1.0  0.9407099999999998  0.13784999999999997  0.4728300000000001  1.0000
  H   H33       1.0  0.45829  0.31034  0.39008  1.0000
  H   H34       1.0  0.8745699999999997  0.8388599999999998  0.24036000000000005  1.0000
  H   H35       1.0  0.8543799999999998  0.9663899999999997  0.29454  1.0000
  H   H36       1.0  0.69096  0.44662  0.62001  1.0000
  H   H37       1.0  0.73568  0.55961  0.60717  1.0000
  H   H38       1.0  0.81534  0.4899999999999999  0.64365  1.0000
  H   H39       1.0  0.63412  0.27126  0.5122  1.0000
  H   H40       1.0  0.73514  0.21377999999999994  0.4864500000000001  1.0000
  H   H41       1.0  0.6708999999999998  0.31033  0.4613  1.0000
  H   H42       1.0  0.26976000000000006  0.07204999999999998  0.26658  1.0000
  H   H43       1.0  0.19433999999999996  0.17435  0.27436  1.0000
  H   H44       1.0  0.21117  0.09101  0.31564  1.0000
  H   H45       1.0  0.74533  0.86665  0.41195  1.0000
  H   H46       1.0  0.58921  0.11983  0.25117  1.0000
  H   H47       1.0  0.67504  0.10577  0.30016  1.0000
  H   H48       1.0  0.6671099999999999  0.21395999999999996  0.2739100000000001  1.0000
  H   H49       1.0  0.06342999999999999  0.3499199999999999  0.8781500000000001  1.0000
  H   H50       1.0  0.82639  0.18971  0.81954  1.0000
  H   H51       1.0  0.7794399999999998  0.49034  0.86686  1.0000
  H   H52       1.0  0.9015299999999998  0.4921  0.0222  1.0000
  H   H53       1.0  0.02799  0.07248  0.02525  1.0000
  H   H54       1.0  0.06248000000000003  0.4959299999999999  0.67171  1.0000
  H   H55       1.0  0.04672999999999997  0.3614  0.72221  1.0000
  H   H56       1.0  0.94061  0.36153999999999986  0.9730100000000003  1.0000
  H   H57       1.0  0.45823  0.18952  0.8900900000000003  1.0000
  H   H58       1.0  0.8745599999999999  0.66117  0.74036  1.0000
  H   H59       1.0  0.8543899999999999  0.53365  0.7945800000000002  1.0000
  H   H60       1.0  0.69084  0.05339  0.12008000000000003  1.0000
  H   H61       1.0  0.73547  0.94033  0.10728  1.0000
  H   H62       1.0  0.81512  0.009809999999999996  0.14383  1.0000
  H   H63       1.0  0.63434  0.22888  0.01226  1.0000
  H   H64       1.0  0.7354899999999999  0.28601  0.9864800000000002  1.0000
  H   H65       1.0  0.67104  0.18953999999999993  0.9614  1.0000
  H   H66       1.0  0.26979  0.4279199999999999  0.76655  1.0000
  H   H67       1.0  0.19435000000000005  0.32562  0.7743400000000003  1.0000
  H   H68       1.0  0.21119  0.4089399999999999  0.8156100000000002  1.0000
  H   H69       1.0  0.7457799999999998  0.6324099999999998  0.9115400000000002  1.0000
  H   H70       1.0  0.5892699999999998  0.38006  0.75119  1.0000
  H   H71       1.0  0.6751  0.39417  0.8001800000000001  1.0000
  H   H72       1.0  0.6671300000000001  0.28591999999999995  0.7739900000000002  1.0000
  H   H73       1.0  0.9365699999999998  0.8498199999999998  0.6218200000000003  1.0000
  H   H74       1.0  0.17359999999999998  0.6897199999999998  0.6804500000000002  1.0000
  H   H75       1.0  0.22064  0.9908299999999998  0.6329400000000002  1.0000
  H   H76       1.0  0.09844000000000003  0.9919099999999997  0.4776700000000001  1.0000
  H   H77       1.0  0.9719399999999999  0.5724399999999998  0.4747  1.0000
  H   H78       1.0  0.9374999999999998  0.9958999999999998  0.8282600000000002  1.0000
  H   H79       1.0  0.95326  0.8613799999999998  0.7777800000000002  1.0000
  H   H80       1.0  0.05938999999999998  0.8616199999999998  0.52696  1.0000
  H   H81       1.0  0.54171  0.68958  0.6099300000000002  1.0000
  H   H82       1.0  0.12542000000000003  0.16115  0.7596100000000002  1.0000
  H   H83       1.0  0.14564000000000002  0.03366  0.7054000000000002  1.0000
  H   H84       1.0  0.30913  0.55317  0.3798600000000001  1.0000
  H   H85       1.0  0.26425  0.44023  0.3927600000000001  1.0000
  H   H86       1.0  0.18468  0.5098399999999998  0.35623  1.0000
  H   H87       1.0  0.36561  0.7286299999999998  0.4877700000000001  1.0000
  H   H88       1.0  0.26448  0.78593  0.51351  1.0000
  H   H89       1.0  0.3288199999999999  0.68941  0.53864  1.0000
  H   H90       1.0  0.73012  0.9279599999999998  0.7334000000000003  1.0000
  H   H91       1.0  0.80561  0.82569  0.7256800000000002  1.0000
  H   H92       1.0  0.78887  0.90901  0.6843900000000003  1.0000
  H   H93       1.0  0.25440999999999997  0.1326  0.5882000000000002  1.0000
  H   H94       1.0  0.41064  0.88023  0.7488000000000002  1.0000
  H   H95       1.0  0.32487000000000005  0.8941499999999998  0.6997700000000002  1.0000
  H   H96       1.0  0.33287  0.7860099999999999  0.7260700000000002  1.0000
  C   C1        1.0  0.6459099999999998  0.7340899999999998  0.15622000000000005  1.0000
  C   C2        1.0  0.19396999999999998  0.50553  0.09869  1.0000
  C   C3        1.0  0.08920000000000007  0.96612  0.9331900000000002  1.0000
  C   C4        1.0  0.12625  0.50615  0.012050000000000003  1.0000
  C   C5        1.0  0.45766  0.73677  0.15604000000000007  1.0000
  C   C6        1.0  0.05246000000000008  0.9183499999999998  0.9675900000000002  1.0000
  C   C7        1.0  0.98314  0.49872  0.30077  1.0000
  C   C8        1.0  0.02022000000000003  0.036249999999999984  0.9094600000000003  1.0000
  C   C9        1.0  0.07449  0.8143899999999997  0.03071  1.0000
  C   C10       1.0  0.35098  0.7612999999999998  0.13547000000000006  1.0000
  C   C11       1.0  0.05876999999999999  0.63871  0.20488  1.0000
  C   C12       1.0  0.99193  0.5730399999999998  0.2727700000000001  1.0000
  C   C13       1.0  0.22178  0.8452599999999998  0.9826500000000002  1.0000
  C   C14       1.0  0.7445099999999998  0.76436  0.13851  1.0000
  C   C15       1.0  0.11898000000000003  0.8598399999999998  0.9938300000000002  1.0000
  C   C16       1.0  0.1789  0.4276199999999999  0.029610000000000008  1.0000
  C   C17       1.0  0.050789999999999995  0.56225  0.23762  1.0000
  C   C18       1.0  0.10610999999999997  0.57945  0.03903  1.0000
  C   C19       1.0  0.65003  0.67162  0.19148  1.0000
  C   C20       1.0  0.19260000000000005  0.9467899999999998  0.9234200000000002  1.0000
  C   C21       1.0  0.54785  0.7652499999999998  0.13816  1.0000
  C   C22       1.0  0.0879  0.4059399999999999  0.26196000000000014  1.0000
  C   C23       1.0  0.09954  0.4767499999999999  0.23247  1.0000
  C   C24       1.0  0.19041999999999995  0.34195  0.00224  1.0000
  C   C25       1.0  0.24021999999999993  0.9877599999999999  0.88558  1.0000
  C   C26       1.0  0.29969  0.7812899999999998  0.00688  1.0000
  C   C27       1.0  0.74928  0.6244399999999998  0.20998000000000006  1.0000
  C   C28       1.0  0.21349999999999997  0.4281699999999999  0.07396  1.0000
  C   C29       1.0  0.46908999999999995  0.68003  0.19353000000000006  1.0000
  C   C30       1.0  0.3792399999999999  0.6532399999999998  0.21846000000000004  1.0000
  C   C31       1.0  0.3540999999999999  0.23401999999999995  0.34378  1.0000
  C   C32       1.0  0.80605  0.00409  0.40144  1.0000
  C   C33       1.0  0.9108  0.46602  0.56661  1.0000
  C   C34       1.0  0.8737499999999998  0.005959999999999999  0.4880000000000001  1.0000
  C   C35       1.0  0.5423999999999999  0.23668999999999996  0.3439300000000001  1.0000
  C   C36       1.0  0.9474699999999998  0.41814  0.5322200000000002  1.0000
  C   C37       1.0  0.016830000000000008  0.99877  0.19919000000000006  1.0000
  C   C38       1.0  0.97974  0.5362  0.5904100000000002  1.0000
  C   C39       1.0  0.9255799999999998  0.3134399999999999  0.46925  1.0000
  C   C40       1.0  0.6491699999999998  0.26105  0.3645400000000001  1.0000
  C   C41       1.0  0.9412599999999999  0.13866  0.29507  1.0000
  C   C42       1.0  0.008030000000000013  0.07307  0.22718000000000005  1.0000
  C   C43       1.0  0.77817  0.34501  0.5172300000000002  1.0000
  C   C44       1.0  0.2555  0.26433  0.36149  1.0000
  C   C45       1.0  0.8809999999999999  0.35943999999999987  0.5060200000000002  1.0000
  C   C46       1.0  0.8207199999999999  0.92745  0.47071000000000013  1.0000
  C   C47       1.0  0.9491600000000001  0.06225999999999999  0.2623300000000001  1.0000
  C   C48       1.0  0.8940499999999999  0.0787  0.4608200000000001  1.0000
  C   C49       1.0  0.34994999999999993  0.17161  0.3085200000000001  1.0000
  C   C50       1.0  0.80742  0.44666999999999996  0.5764100000000001  1.0000
  C   C51       1.0  0.45219999999999994  0.26512  0.36182000000000003  1.0000
  C   C52       1.0  0.9120799999999998  0.9059599999999998  0.238  1.0000
  C   C53       1.0  0.9004199999999998  0.9767599999999997  0.26748  1.0000
  C   C54       1.0  0.80935  0.84348  0.49897000000000014  1.0000
  C   C55       1.0  0.7598699999999999  0.48763  0.6142600000000003  1.0000
  C   C56       1.0  0.70014  0.2810899999999999  0.49305  1.0000
  C   C57       1.0  0.2507  0.12448  0.29001  1.0000
  C   C58       1.0  0.78629  0.9270499999999998  0.42636000000000013  1.0000
  C   C59       1.0  0.5309  0.17998  0.3064500000000001  1.0000
  C   C60       1.0  0.6207  0.15318  0.28149000000000013  1.0000
  C   C61       1.0  0.3540699999999999  0.26598  0.84379  1.0000
  C   C62       1.0  0.80606  0.49458999999999986  0.90126  1.0000
  C   C63       1.0  0.91081  0.03399  0.06681  1.0000
  C   C64       1.0  0.87372  0.49391  0.9878900000000003  1.0000
  C   C65       1.0  0.5423199999999999  0.26327  0.84396  1.0000
  C   C66       1.0  0.94755  0.08172  0.03240000000000001  1.0000
  C   C67       1.0  0.016789999999999975  0.50126  0.69922  1.0000
  C   C68       1.0  0.97975  0.9637699999999998  0.09053  1.0000
  C   C69       1.0  0.92548  0.18562999999999996  0.9692700000000002  1.0000
  C   C70       1.0  0.6489999999999998  0.23873  0.86454  1.0000
  C   C71       1.0  0.9412399999999997  0.36128  0.79511  1.0000
  C   C72       1.0  0.008020000000000067  0.4269499999999999  0.7272200000000002  1.0000
  C   C73       1.0  0.77821  0.1548  0.01735  1.0000
  C   C74       1.0  0.25548000000000004  0.2356  0.8614900000000001  1.0000
  C   C75       1.0  0.88099  0.14018999999999995  0.00615  1.0000
  C   C76       1.0  0.8210499999999998  0.57247  0.97035  1.0000
  C   C77       1.0  0.94919  0.4377399999999999  0.76237  1.0000
  C   C78       1.0  0.8938899999999997  0.42064999999999997  0.96088  1.0000
  C   C79       1.0  0.34996  0.3283699999999999  0.8085000000000002  1.0000
  C   C80       1.0  0.8073999999999998  0.053269999999999984  0.07657  1.0000
  C   C81       1.0  0.45213999999999993  0.23484  0.8618600000000002  1.0000
  C   C82       1.0  0.9120499999999999  0.59405  0.7380300000000002  1.0000
  C   C83       1.0  0.9004199999999998  0.52324  0.7675200000000002  1.0000
  C   C84       1.0  0.8095299999999997  0.65812  0.9977300000000002  1.0000
  C   C85       1.0  0.7597399999999997  0.01228  0.11440000000000003  1.0000
  C   C86       1.0  0.7003299999999998  0.2188  0.99312  1.0000
  C   C87       1.0  0.2507  0.37549  0.7899800000000002  1.0000
  C   C88       1.0  0.7864899999999998  0.5719299999999998  0.926  1.0000
  C   C89       1.0  0.5309  0.31996  0.80646  1.0000
  C   C90       1.0  0.6207499999999999  0.34674999999999995  0.7815300000000002  1.0000
  C   C91       1.0  0.6459199999999998  0.7658999999999999  0.6562500000000002  1.0000
  C   C92       1.0  0.19396999999999998  0.99502  0.59852  1.0000
  C   C93       1.0  0.08918000000000001  0.53389  0.4332200000000001  1.0000
  C   C94       1.0  0.12618  0.9938699999999998  0.51197  1.0000
  C   C95       1.0  0.4576399999999999  0.76326  0.65606  1.0000
  C   C96       1.0  0.05240000000000003  0.58166  0.4676000000000001  1.0000
  C   C97       1.0  0.98319  0.00124  0.8007500000000002  1.0000
  C   C98       1.0  0.020219999999999995  0.46370999999999996  0.40951  1.0000
  C   C99       1.0  0.07435  0.6857599999999998  0.53071  1.0000
  C   C100      1.0  0.35094  0.7387399999999997  0.6354700000000002  1.0000
  C   C101      1.0  0.05879000000000002  0.8612899999999999  0.70487  1.0000
  C   C102      1.0  0.9919599999999997  0.9269399999999999  0.77275  1.0000
  C   C103      1.0  0.22165  0.65474  0.4826700000000001  1.0000
  C   C104      1.0  0.74453  0.73572  0.6385100000000002  1.0000
  C   C105      1.0  0.11885000000000003  0.64015  0.49386000000000013  1.0000
  C   C106      1.0  0.17901999999999998  0.07251  0.52931  1.0000
  C   C107      1.0  0.050830000000000077  0.9377399999999998  0.7376000000000003  1.0000
  C   C108      1.0  0.10608000000000004  0.9207699999999998  0.5390400000000002  1.0000
  C   C109      1.0  0.65003  0.8283899999999997  0.69149  1.0000
  C   C110      1.0  0.19257  0.55323  0.42344  1.0000
  C   C111      1.0  0.54784  0.7347899999999998  0.63819  1.0000
  C   C112      1.0  0.08793000000000005  0.09402999999999997  0.7619500000000002  1.0000
  C   C113      1.0  0.09958000000000003  0.02325  0.73245  1.0000
  C   C114      1.0  0.19044  0.15683  0.5011000000000001  1.0000
  C   C115      1.0  0.24016999999999997  0.51223  0.38562000000000013  1.0000
  C   C116      1.0  0.29957  0.7186699999999998  0.5069  1.0000
  C   C117      1.0  0.74927  0.87553  0.7100000000000002  1.0000
  C   C118      1.0  0.21349999999999997  0.07231999999999997  0.57367  1.0000
  C   C119      1.0  0.4690799999999999  0.82001  0.69354  1.0000
  C   C120      1.0  0.3792399999999999  0.8468099999999997  0.71848  1.0000
  N   N1        1.0  0.030370000000000008  0.41627  0.29569000000000006  1.0000
  N   N2        1.0  0.25433  0.8865  0.9474400000000002  1.0000
  N   N3        1.0  0.1397  0.57994  0.08181  1.0000
  N   N4        1.0  0.5634199999999999  0.6480499999999998  0.20980000000000004  1.0000
  N   N5        1.0  0.96961  0.9163199999999998  0.20428  1.0000
  N   N6        1.0  0.7456599999999998  0.38639  0.5524100000000002  1.0000
  N   N7        1.0  0.86031  0.07867  0.41807  1.0000
  N   N8        1.0  0.43654999999999994  0.14804999999999996  0.2901900000000001  1.0000
  N   N9        1.0  0.96953  0.5837  0.7043000000000003  1.0000
  N   N10       1.0  0.7456599999999998  0.11355999999999997  0.05255  1.0000
  N   N11       1.0  0.8603199999999998  0.4201499999999999  0.9181100000000002  1.0000
  N   N12       1.0  0.43657000000000007  0.3519099999999999  0.7901800000000002  1.0000
  N   N13       1.0  0.030430000000000058  0.08368  0.7956800000000003  1.0000
  N   N14       1.0  0.25423  0.61355  0.4474500000000001  1.0000
  N   N15       1.0  0.13980000000000006  0.9204399999999999  0.5817900000000003  1.0000
  N   N16       1.0  0.56341  0.8519899999999998  0.70979  1.0000
  O   O1        1.0  0.13742999999999997  0.79088  0.06489  1.0000
  O   O2        1.0  0.06418000000000001  0.10635999999999997  0.89379  1.0000
  O   O3        1.0  0.96886  0.70825  0.11464  1.0000
  O   O4        1.0  0.2855599999999999  0.6953999999999998  0.13168000000000005  1.0000
  O   O5        1.0  0.006159999999999998  0.7121  0.20996  1.0000
  O   O6        1.0  0.11638  0.6204699999999997  0.17488  1.0000
  O   O7        1.0  0.12746  0.81963  0.15387000000000006  1.0000
  O   O8        1.0  0.9206199999999998  0.022709999999999994  0.9071200000000003  1.0000
  O   O9        1.0  0.15311  0.3525  0.9618500000000002  1.0000
  O   O10       1.0  0.97705  0.80063  0.02631  1.0000
  O   O11       1.0  0.81926  0.78703  0.16684000000000004  1.0000
  O   O12       1.0  0.7456099999999998  0.7641599999999997  0.09735000000000003  1.0000
  O   O13       1.0  0.33268  0.84653  0.12351000000000002  1.0000
  O   O14       1.0  0.22750999999999993  0.2691299999999999  0.01907  1.0000
  O   O15       1.0  0.8626399999999999  0.28877  0.4352200000000001  1.0000
  O   O16       1.0  0.9357999999999999  0.60623  0.6061200000000002  1.0000
  O   O17       1.0  0.031120000000000037  0.20813  0.3853200000000001  1.0000
  O   O18       1.0  0.7144  0.195  0.3683000000000001  1.0000
  O   O19       1.0  0.99387  0.21205  0.29004000000000013  1.0000
  O   O20       1.0  0.8835899999999998  0.12028  0.3250500000000001  1.0000
  O   O21       1.0  0.8725999999999998  0.31937  0.34621  1.0000
  O   O22       1.0  0.07937999999999999  0.5226099999999999  0.59282  1.0000
  O   O23       1.0  0.8470099999999998  0.8560799999999997  0.5391500000000002  1.0000
  O   O24       1.0  0.023200000000000026  0.30039  0.4736300000000001  1.0000
  O   O25       1.0  0.18073999999999998  0.28699999999999987  0.33317000000000013  1.0000
  O   O26       1.0  0.25444  0.2641299999999999  0.4026700000000001  1.0000
  O   O27       1.0  0.6676499999999997  0.34622  0.37653000000000003  1.0000
  O   O28       1.0  0.7725799999999999  0.76943  0.48329  1.0000
  O   O29       1.0  0.86255  0.20916999999999994  0.9350900000000002  1.0000
  O   O30       1.0  0.93577  0.8936599999999998  0.10620000000000003  1.0000
  O   O31       1.0  0.03116000000000002  0.29174  0.88534  1.0000
  O   O32       1.0  0.7144199999999998  0.3046399999999999  0.86831  1.0000
  O   O33       1.0  0.99387  0.28790999999999994  0.7900500000000003  1.0000
  O   O34       1.0  0.8836099999999999  0.37954  0.8251000000000002  1.0000
  O   O35       1.0  0.8725299999999998  0.18037  0.8461200000000002  1.0000
  O   O36       1.0  0.07935  0.9772499999999997  0.09286000000000003  1.0000
  O   O37       1.0  0.84682  0.64743  0.03812  1.0000
  O   O38       1.0  0.02292000000000003  0.19935999999999995  0.9736700000000003  1.0000
  O   O39       1.0  0.18072000000000005  0.21304  0.8331400000000002  1.0000
  O   O40       1.0  0.25439  0.23563  0.9026600000000002  1.0000
  O   O41       1.0  0.6673299999999999  0.15349999999999997  0.87648  1.0000
  O   O42       1.0  0.7725199999999999  0.731  0.9809300000000002  1.0000
  O   O43       1.0  0.13737  0.7092  0.56488  1.0000
  O   O44       1.0  0.06410000000000002  0.39363  0.3938400000000001  1.0000
  O   O45       1.0  0.9689299999999998  0.7916799999999999  0.6146300000000002  1.0000
  O   O46       1.0  0.28554  0.8046599999999998  0.63167  1.0000
  O   O47       1.0  0.006180000000000045  0.7879099999999998  0.7099500000000002  1.0000
  O   O48       1.0  0.11639000000000002  0.8795599999999998  0.6748600000000002  1.0000
  O   O49       1.0  0.12746  0.68041  0.65387  1.0000
  O   O50       1.0  0.9205699999999998  0.4772399999999999  0.4072000000000001  1.0000
  O   O51       1.0  0.15264999999999998  0.14414  0.46092  1.0000
  O   O52       1.0  0.9769199999999999  0.6998  0.52629  1.0000
  O   O53       1.0  0.8192600000000001  0.71292  0.6668200000000002  1.0000
  O   O54       1.0  0.74557  0.73609  0.59733  1.0000
  O   O55       1.0  0.33262  0.65352  0.6235100000000002  1.0000
  O   O56       1.0  0.22747  0.23073999999999997  0.51681  1.0000
