data_image0
_chemical_formula_structural       Mn8H88C176O32
_chemical_formula_sum              "Mn8 H88 C176 O32"
_cell_length_a       6.87566
_cell_length_b       24.92041
_cell_length_c       28.65412
_cell_angle_alpha    90.0
_cell_angle_beta     94.63878999999999
_cell_angle_gamma    90.0

_symmetry_space_group_name_H-M    'P 1'
_symmetry_Int_Tables_number       1

loop_
  _symmetry_equiv_pos_as_xyz
  'x,y,z'

loop_
  _atom_site_type_symbol
  _atom_site_label
  _atom_site_symmetry_multiplicity
  _atom_site_fract_x
  _atom_site_fract_y
  _atom_site_fract_z
  _atom_site_occupancy
  Mn  Mn1       1.0  0.18392999999999998  0.92814  0.24620999999999996  1.0000
  Mn  Mn2       1.0  0.62747  0.5468  0.7423099999999998  1.0000
  Mn  Mn3       1.0  0.81607  0.42814  0.25379  1.0000
  Mn  Mn4       1.0  0.37253  0.046799999999999994  0.75768  1.0000
  Mn  Mn5       1.0  0.8160699999999999  0.07186  0.7537899999999997  1.0000
  Mn  Mn6       1.0  0.37253  0.4532  0.25768  1.0000
  Mn  Mn7       1.0  0.18392999999999995  0.57186  0.7462099999999998  1.0000
  Mn  Mn8       1.0  0.62747  0.9531999999999999  0.24232  1.0000
  H   H1        1.0  0.9433299999999998  0.73148  0.10827  1.0000
  H   H2        1.0  0.38311  0.7447699999999999  0.88729  1.0000
  H   H3        1.0  0.20759999999999992  0.66539  0.10741999999999997  1.0000
  H   H4        1.0  0.95553  0.82375  0.12916  1.0000
  H   H5        1.0  0.9907599999999998  0.9778799999999999  0.8678999999999999  1.0000
  H   H6        1.0  0.11754999999999995  0.81022  0.8878699999999998  1.0000
  H   H7        1.0  0.75709  0.85054  0.19267  1.0000
  H   H8        1.0  0.6587  0.61348  0.99698  1.0000
  H   H9        1.0  0.65779  0.85938  0.9974999999999999  1.0000
  H   H10       1.0  0.35964  0.65778  0.8644299999999998  1.0000
  H   H11       1.0  0.55029  0.63383  0.79905  1.0000
  H   H12       1.0  0.07947  0.63657  0.8905  1.0000
  H   H13       1.0  0.43537  0.89968  0.8436699999999998  1.0000
  H   H14       1.0  0.23157  0.83068  0.10183999999999999  1.0000
  H   H15       1.0  0.7725299999999998  0.64809  0.09282999999999997  1.0000
  H   H16       1.0  0.09730999999999991  0.90884  0.9277499999999997  1.0000
  H   H17       1.0  0.22468  0.56518  0.06925  1.0000
  H   H18       1.0  0.43068  0.80155  0.03775999999999999  1.0000
  H   H19       1.0  0.8893  0.66449  0.95637  1.0000
  H   H20       1.0  0.32351  0.50281  0.13500999999999996  1.0000
  H   H21       1.0  0.54228  0.8298  0.9030499999999999  1.0000
  H   H22       1.0  0.8721999999999999  0.58491  0.15842  1.0000
  H   H23       1.0  0.05666999999999995  0.23148  0.3917299999999999  1.0000
  H   H24       1.0  0.6168899999999999  0.24477  0.61271  1.0000
  H   H25       1.0  0.7923999999999999  0.16539  0.3925799999999999  1.0000
  H   H26       1.0  0.044469999999999996  0.32375  0.37084  1.0000
  H   H27       1.0  0.009239999999999925  0.47788  0.6320999999999998  1.0000
  H   H28       1.0  0.88245  0.31022  0.6121299999999997  1.0000
  H   H29       1.0  0.24291  0.35054  0.30733  1.0000
  H   H30       1.0  0.34131  0.11348  0.50302  1.0000
  H   H31       1.0  0.34221  0.35938  0.50249  1.0000
  H   H32       1.0  0.64036  0.15778  0.63557  1.0000
  H   H33       1.0  0.44970999999999994  0.13383  0.7009399999999998  1.0000
  H   H34       1.0  0.9205299999999998  0.13657  0.6094899999999998  1.0000
  H   H35       1.0  0.5646299999999999  0.39968  0.65632  1.0000
  H   H36       1.0  0.76843  0.33068  0.39816  1.0000
  H   H37       1.0  0.22746999999999992  0.14809  0.40716999999999987  1.0000
  H   H38       1.0  0.9026899999999999  0.40885  0.5722499999999998  1.0000
  H   H39       1.0  0.77533  0.06518  0.43075  1.0000
  H   H40       1.0  0.56932  0.30155  0.4622399999999999  1.0000
  H   H41       1.0  0.11069999999999997  0.16448999999999997  0.5436299999999998  1.0000
  H   H42       1.0  0.67649  0.00282  0.36498  1.0000
  H   H43       1.0  0.45771999999999996  0.3298  0.5969499999999998  1.0000
  H   H44       1.0  0.12779999999999994  0.08491  0.3415799999999999  1.0000
  H   H45       1.0  0.0566699999999999  0.26852  0.8917299999999998  1.0000
  H   H46       1.0  0.6168899999999999  0.25522  0.11271  1.0000
  H   H47       1.0  0.7923999999999999  0.33461  0.8925699999999998  1.0000
  H   H48       1.0  0.04447000000000002  0.17625  0.8708399999999998  1.0000
  H   H49       1.0  0.009239999999999998  0.02212  0.1321  1.0000
  H   H50       1.0  0.8824499999999998  0.18978  0.11212999999999997  1.0000
  H   H51       1.0  0.24291  0.14946  0.80732  1.0000
  H   H52       1.0  0.34131  0.38652  0.0030199999999999992  1.0000
  H   H53       1.0  0.34221  0.14062  0.002499999999999999  1.0000
  H   H54       1.0  0.64036  0.34221999999999997  0.13556999999999997  1.0000
  H   H55       1.0  0.44970999999999994  0.36617  0.20093999999999995  1.0000
  H   H56       1.0  0.9205299999999998  0.36343  0.10949999999999997  1.0000
  H   H57       1.0  0.56463  0.10032  0.15633  1.0000
  H   H58       1.0  0.76843  0.16932  0.8981499999999998  1.0000
  H   H59       1.0  0.2274699999999999  0.35191  0.9071699999999999  1.0000
  H   H60       1.0  0.90269  0.09115  0.07224999999999998  1.0000
  H   H61       1.0  0.77533  0.43482  0.93074  1.0000
  H   H62       1.0  0.56932  0.19845  0.9622399999999998  1.0000
  H   H63       1.0  0.11069999999999999  0.3355099999999999  0.04363  1.0000
  H   H64       1.0  0.67649  0.49717999999999996  0.86498  1.0000
  H   H65       1.0  0.45773  0.1702  0.09694999999999998  1.0000
  H   H66       1.0  0.12779999999999989  0.41509  0.8415699999999998  1.0000
  H   H67       1.0  0.9433299999999998  0.7685199999999999  0.60827  1.0000
  H   H68       1.0  0.38312  0.75522  0.3872899999999999  1.0000
  H   H69       1.0  0.20759999999999995  0.83461  0.60742  1.0000
  H   H70       1.0  0.95553  0.67625  0.6291599999999998  1.0000
  H   H71       1.0  0.9907599999999998  0.52212  0.3679  1.0000
  H   H72       1.0  0.11754999999999999  0.68978  0.38787  1.0000
  H   H73       1.0  0.75709  0.64945  0.6926699999999998  1.0000
  H   H74       1.0  0.6587  0.8865199999999999  0.49697999999999987  1.0000
  H   H75       1.0  0.65779  0.64062  0.4974999999999999  1.0000
  H   H76       1.0  0.35964  0.8422199999999999  0.36443  1.0000
  H   H77       1.0  0.55029  0.86617  0.29904999999999987  1.0000
  H   H78       1.0  0.07946999999999997  0.8634299999999999  0.3904999999999999  1.0000
  H   H79       1.0  0.43537  0.60032  0.34366999999999986  1.0000
  H   H80       1.0  0.23157  0.66932  0.60184  1.0000
  H   H81       1.0  0.77253  0.8519099999999998  0.5928299999999997  1.0000
  H   H82       1.0  0.09731000000000001  0.59115  0.42775  1.0000
  H   H83       1.0  0.22467999999999994  0.9348199999999999  0.5692499999999998  1.0000
  H   H84       1.0  0.43068  0.69845  0.53775  1.0000
  H   H85       1.0  0.8893  0.83551  0.45637  1.0000
  H   H86       1.0  0.32350999999999996  0.99718  0.6350099999999997  1.0000
  H   H87       1.0  0.54228  0.67019  0.40305  1.0000
  H   H88       1.0  0.8721999999999999  0.91509  0.6584199999999999  1.0000
  C   C1        1.0  0.9757999999999998  0.76188  0.03827  1.0000
  C   C2        1.0  0.037569999999999895  0.7898199999999999  0.9574199999999998  1.0000
  C   C3        1.0  0.3441899999999999  0.7120500000000001  0.9562199999999997  1.0000
  C   C4        1.0  0.28158  0.6841300000000001  0.03705  1.0000
  C   C5        1.0  0.083  0.75641  0.99756  1.0000
  C   C6        1.0  0.36296  0.86376  0.18818999999999994  1.0000
  C   C7        1.0  0.23582999999999987  0.7172899999999999  0.9967799999999998  1.0000
  C   C8        1.0  0.6476099999999999  0.98661  0.8188199999999998  1.0000
  C   C9        1.0  0.49762999999999996  0.6736800000000001  0.9565399999999997  1.0000
  C   C10       1.0  0.94591  0.61392  0.8029399999999998  1.0000
  C   C11       1.0  0.82767  0.63248  0.84053  1.0000
  C   C12       1.0  0.02472  0.72748  0.07746  1.0000
  C   C13       1.0  0.29835999999999985  0.7475599999999999  0.9175999999999997  1.0000
  C   C14       1.0  0.4378799999999999  0.64701  0.03667  1.0000
  C   C15       1.0  0.17131  0.69046  0.07690999999999998  1.0000
  C   C16       1.0  0.7970499999999999  0.82351  0.12282  1.0000
  C   C17       1.0  0.8265599999999999  0.86451  0.9190499999999999  1.0000
  C   C18       1.0  0.6102299999999998  0.66286  0.9156399999999998  1.0000
  C   C19       1.0  0.6041  0.5401  0.15059999999999996  1.0000
  C   C20       1.0  0.8805599999999999  0.82668  0.9578799999999997  1.0000
  C   C21       1.0  0.49195  0.611  0.0769  1.0000
  C   C22       1.0  0.89463  0.94508  0.8758  1.0000
  C   C23       1.0  0.1509999999999999  0.78438  0.9180299999999998  1.0000
  C   C24       1.0  0.7066199999999998  0.94334  0.85271  1.0000
  C   C25       1.0  0.68571  0.83951  0.15878999999999993  1.0000
  C   C26       1.0  0.70665  0.81043  0.07851999999999998  1.0000
  C   C27       1.0  0.5424499999999999  0.64308  0.9970499999999998  1.0000
  C   C28       1.0  0.4807999999999999  0.84246  0.1514  1.0000
  C   C29       1.0  0.66462  0.50223  0.18905  1.0000
  C   C30       1.0  0.7750299999999997  0.83008  0.9973999999999997  1.0000
  C   C31       1.0  0.51765  0.6546  0.8706399999999997  1.0000
  C   C32       1.0  0.62454  0.63967  0.83356  1.0000
  C   C33       1.0  0.9220099999999999  0.64188  0.8851699999999999  1.0000
  C   C34       1.0  0.5796  0.90136  0.8622199999999998  1.0000
  C   C35       1.0  0.3898199999999999  0.8282299999999999  0.10762  1.0000
  C   C36       1.0  0.8209599999999999  0.79967  0.03787  1.0000
  C   C37       1.0  0.67515  0.61615  0.10211999999999999  1.0000
  C   C38       1.0  0.95416  0.90618  0.9087299999999998  1.0000
  C   C39       1.0  0.36521  0.56995  0.08915  1.0000
  C   C40       1.0  0.50127  0.81238  0.07173  1.0000
  C   C41       1.0  0.8149899999999998  0.65694  0.9220599999999998  1.0000
  C   C42       1.0  0.42046  0.5349  0.12575999999999996  1.0000
  C   C43       1.0  0.63989  0.86228  0.89511  1.0000
  C   C44       1.0  0.7311999999999999  0.58102  0.13859999999999997  1.0000
  C   C45       1.0  0.024199999999999996  0.26188  0.46172  1.0000
  C   C46       1.0  0.96243  0.28982  0.5425699999999999  1.0000
  C   C47       1.0  0.65581  0.21205  0.54377  1.0000
  C   C48       1.0  0.7184299999999999  0.18412999999999996  0.4629399999999999  1.0000
  C   C49       1.0  0.917  0.25641  0.50244  1.0000
  C   C50       1.0  0.63704  0.36376  0.31181  1.0000
  C   C51       1.0  0.76417  0.21729  0.50321  1.0000
  C   C52       1.0  0.35238999999999987  0.48661  0.6811799999999998  1.0000
  C   C53       1.0  0.50237  0.17368  0.5434599999999999  1.0000
  C   C54       1.0  0.05409000000000001  0.11392  0.69705  1.0000
  C   C55       1.0  0.17232999999999996  0.13249  0.6594599999999998  1.0000
  C   C56       1.0  0.97529  0.22748  0.42253999999999997  1.0000
  C   C57       1.0  0.70165  0.24756  0.5823999999999998  1.0000
  C   C58       1.0  0.56212  0.14701  0.4633299999999999  1.0000
  C   C59       1.0  0.82869  0.19046  0.42308  1.0000
  C   C60       1.0  0.20294999999999994  0.32351  0.3771799999999999  1.0000
  C   C61       1.0  0.17343999999999996  0.36451  0.5809499999999997  1.0000
  C   C62       1.0  0.38977  0.16286  0.58435  1.0000
  C   C63       1.0  0.3959  0.0401  0.3494  1.0000
  C   C64       1.0  0.11944000000000003  0.32668  0.54211  1.0000
  C   C65       1.0  0.50805  0.111  0.4231  1.0000
  C   C66       1.0  0.10536999999999991  0.44508  0.6241899999999998  1.0000
  C   C67       1.0  0.849  0.28438  0.58196  1.0000
  C   C68       1.0  0.2933799999999998  0.44334  0.6472799999999997  1.0000
  C   C69       1.0  0.31429  0.3395099999999999  0.34120999999999996  1.0000
  C   C70       1.0  0.29335999999999995  0.31043  0.4214699999999999  1.0000
  C   C71       1.0  0.45755  0.14308  0.50294  1.0000
  C   C72       1.0  0.5192  0.34246000000000004  0.3486  1.0000
  C   C73       1.0  0.33538  0.00223  0.31095  1.0000
  C   C74       1.0  0.22496999999999998  0.33008  0.5025999999999999  1.0000
  C   C75       1.0  0.48235  0.1546  0.62935  1.0000
  C   C76       1.0  0.37547  0.13967  0.66644  1.0000
  C   C77       1.0  0.07799  0.14188  0.61483  1.0000
  C   C78       1.0  0.4204  0.40136000000000005  0.63777  1.0000
  C   C79       1.0  0.61019  0.32823  0.3923799999999999  1.0000
  C   C80       1.0  0.17903999999999995  0.29967  0.46213  1.0000
  C   C81       1.0  0.3248499999999999  0.11615  0.3978799999999999  1.0000
  C   C82       1.0  0.04583999999999999  0.40618  0.59126  1.0000
  C   C83       1.0  0.63479  0.06995  0.4108499999999999  1.0000
  C   C84       1.0  0.49872999999999984  0.31239  0.4282699999999999  1.0000
  C   C85       1.0  0.18500999999999998  0.15694  0.5779399999999999  1.0000
  C   C86       1.0  0.57954  0.0349  0.3742399999999999  1.0000
  C   C87       1.0  0.36011  0.36227999999999994  0.60489  1.0000
  C   C88       1.0  0.2688  0.08102  0.3614  1.0000
  C   C89       1.0  0.024199999999999916  0.23812  0.9617199999999998  1.0000
  C   C90       1.0  0.96243  0.21018  0.04256999999999999  1.0000
  C   C91       1.0  0.65581  0.28795  0.04377  1.0000
  C   C92       1.0  0.7184299999999999  0.31587  0.9629399999999998  1.0000
  C   C93       1.0  0.917  0.24359  0.002439999999999999  1.0000
  C   C94       1.0  0.6370399999999999  0.13624  0.8118099999999999  1.0000
  C   C95       1.0  0.76417  0.28271  0.00322  1.0000
  C   C96       1.0  0.35239  0.01339  0.18117999999999998  1.0000
  C   C97       1.0  0.50237  0.32632  0.04345999999999999  1.0000
  C   C98       1.0  0.05409  0.38608  0.19705  1.0000
  C   C99       1.0  0.17233  0.36751  0.15946  1.0000
  C   C100      1.0  0.97528  0.27252  0.9225399999999998  1.0000
  C   C101      1.0  0.70165  0.25244  0.0824  1.0000
  C   C102      1.0  0.56212  0.35299  0.96332  1.0000
  C   C103      1.0  0.82869  0.30953  0.9230799999999999  1.0000
  C   C104      1.0  0.20294999999999996  0.17649  0.87717  1.0000
  C   C105      1.0  0.17344  0.13549  0.08095  1.0000
  C   C106      1.0  0.38977  0.33714  0.08435999999999998  1.0000
  C   C107      1.0  0.39589999999999986  0.4599  0.8493999999999998  1.0000
  C   C108      1.0  0.11943999999999999  0.17332  0.042119999999999984  1.0000
  C   C109      1.0  0.50805  0.38899999999999996  0.9231  1.0000
  C   C110      1.0  0.10536999999999999  0.05492  0.12419999999999998  1.0000
  C   C111      1.0  0.849  0.21561  0.08196  1.0000
  C   C112      1.0  0.2933799999999999  0.05666000000000001  0.14727999999999997  1.0000
  C   C113      1.0  0.31429  0.16049  0.8412  1.0000
  C   C114      1.0  0.29336  0.18957000000000002  0.92147  1.0000
  C   C115      1.0  0.45755  0.35692  0.002939999999999999  1.0000
  C   C116      1.0  0.5191999999999999  0.15754  0.8485999999999998  1.0000
  C   C117      1.0  0.33538  0.49777  0.81095  1.0000
  C   C118      1.0  0.22497  0.16992  0.0026  1.0000
  C   C119      1.0  0.48235  0.3454  0.12936  1.0000
  C   C120      1.0  0.37547  0.36033  0.16643999999999995  1.0000
  C   C121      1.0  0.07798999999999999  0.35812  0.11482999999999997  1.0000
  C   C122      1.0  0.4204  0.09864  0.13778  1.0000
  C   C123      1.0  0.61019  0.17177  0.89238  1.0000
  C   C124      1.0  0.17903999999999995  0.20032  0.96213  1.0000
  C   C125      1.0  0.32484999999999986  0.38385  0.8978799999999998  1.0000
  C   C126      1.0  0.045839999999999985  0.09381999999999999  0.09126  1.0000
  C   C127      1.0  0.6347899999999999  0.43005  0.9108499999999998  1.0000
  C   C128      1.0  0.49872999999999995  0.18761  0.9282699999999998  1.0000
  C   C129      1.0  0.18500999999999998  0.3430599999999999  0.07793999999999997  1.0000
  C   C130      1.0  0.5795399999999998  0.4651  0.8742399999999998  1.0000
  C   C131      1.0  0.36011  0.13772  0.10488999999999997  1.0000
  C   C132      1.0  0.2687999999999999  0.41898  0.8613999999999998  1.0000
  C   C133      1.0  0.9757999999999998  0.73812  0.53827  1.0000
  C   C134      1.0  0.03757000000000003  0.71018  0.45743  1.0000
  C   C135      1.0  0.34418999999999994  0.78795  0.45622  1.0000
  C   C136      1.0  0.28158  0.81587  0.53705  1.0000
  C   C137      1.0  0.08299999999999999  0.7435899999999999  0.49755  1.0000
  C   C138      1.0  0.3629599999999998  0.63624  0.6881899999999997  1.0000
  C   C139      1.0  0.23583  0.78271  0.49678  1.0000
  C   C140      1.0  0.64761  0.51339  0.3188199999999999  1.0000
  C   C141      1.0  0.49763  0.82632  0.45653999999999995  1.0000
  C   C142      1.0  0.94591  0.88607  0.3029399999999999  1.0000
  C   C143      1.0  0.82767  0.86751  0.34054  1.0000
  C   C144      1.0  0.024719999999999926  0.7725200000000001  0.5774599999999998  1.0000
  C   C145      1.0  0.2983599999999999  0.75244  0.4176  1.0000
  C   C146      1.0  0.4378799999999999  0.85299  0.53667  1.0000
  C   C147      1.0  0.17130999999999988  0.80953  0.5769099999999998  1.0000
  C   C148      1.0  0.7970499999999999  0.67649  0.6228199999999998  1.0000
  C   C149      1.0  0.82656  0.63549  0.41904999999999987  1.0000
  C   C150      1.0  0.6102299999999998  0.83714  0.4156399999999999  1.0000
  C   C151      1.0  0.6041  0.9599  0.65059  1.0000
  C   C152      1.0  0.8805699999999999  0.67332  0.4578799999999999  1.0000
  C   C153      1.0  0.49195000000000005  0.889  0.5769  1.0000
  C   C154      1.0  0.89463  0.55492  0.37579999999999997  1.0000
  C   C155      1.0  0.151  0.71561  0.4180299999999999  1.0000
  C   C156      1.0  0.7066199999999998  0.55666  0.35272  1.0000
  C   C157      1.0  0.68571  0.66049  0.6587899999999998  1.0000
  C   C158      1.0  0.70665  0.68957  0.5785199999999998  1.0000
  C   C159      1.0  0.54245  0.85692  0.49705  1.0000
  C   C160      1.0  0.48079999999999984  0.65754  0.6513999999999998  1.0000
  C   C161      1.0  0.66462  0.99777  0.6890399999999998  1.0000
  C   C162      1.0  0.7750299999999998  0.6699199999999998  0.4974  1.0000
  C   C163      1.0  0.51765  0.8453999999999999  0.3706399999999999  1.0000
  C   C164      1.0  0.62454  0.8603199999999999  0.3335599999999999  1.0000
  C   C165      1.0  0.9220099999999999  0.8581199999999999  0.3851699999999999  1.0000
  C   C166      1.0  0.5796  0.59864  0.36222  1.0000
  C   C167      1.0  0.38981999999999983  0.67177  0.6076099999999998  1.0000
  C   C168      1.0  0.8209599999999999  0.70032  0.53787  1.0000
  C   C169      1.0  0.67515  0.88385  0.6021199999999999  1.0000
  C   C170      1.0  0.95416  0.59382  0.4087399999999999  1.0000
  C   C171      1.0  0.36521  0.93005  0.58915  1.0000
  C   C172      1.0  0.5012699999999998  0.6876099999999999  0.5717299999999997  1.0000
  C   C173      1.0  0.8149899999999998  0.84306  0.4220599999999999  1.0000
  C   C174      1.0  0.42046  0.9651  0.6257599999999998  1.0000
  C   C175      1.0  0.63989  0.63772  0.3951099999999999  1.0000
  C   C176      1.0  0.7311999999999999  0.91898  0.6386  1.0000
  O   O1        1.0  0.86795  0.58761  0.76614  1.0000
  O   O2        1.0  0.45689  0.88655  0.22487999999999994  1.0000
  O   O3        1.0  0.53181  0.47032  0.20342  1.0000
  O   O4        1.0  0.12798999999999994  0.62167  0.8056299999999998  1.0000
  O   O5        1.0  0.17972  0.86271  0.18526  1.0000
  O   O6        1.0  0.7803599999999999  0.01864  0.80765  1.0000
  O   O7        1.0  0.46611999999999987  0.98947  0.8031899999999997  1.0000
  O   O8        1.0  0.83933  0.49995  0.20623999999999998  1.0000
  O   O9        1.0  0.13205  0.08761000000000001  0.73386  1.0000
  O   O10       1.0  0.5431199999999999  0.38655  0.27511999999999986  1.0000
  O   O11       1.0  0.4681899999999999  0.97032  0.2965799999999999  1.0000
  O   O12       1.0  0.8720099999999997  0.12167  0.6943599999999999  1.0000
  O   O13       1.0  0.8202899999999997  0.3627099999999999  0.31473999999999996  1.0000
  O   O14       1.0  0.21963999999999995  0.51864  0.6923399999999997  1.0000
  O   O15       1.0  0.53388  0.48947  0.6968  1.0000
  O   O16       1.0  0.16066999999999998  0.99995  0.2937599999999999  1.0000
  O   O17       1.0  0.13205  0.4123899999999999  0.23385999999999998  1.0000
  O   O18       1.0  0.5431199999999999  0.11345  0.7751199999999998  1.0000
  O   O19       1.0  0.4681899999999999  0.52967  0.7965799999999997  1.0000
  O   O20       1.0  0.8720099999999997  0.37832999999999994  0.19436999999999996  1.0000
  O   O21       1.0  0.8202899999999997  0.13729  0.81474  1.0000
  O   O22       1.0  0.21964  0.98136  0.19233999999999996  1.0000
  O   O23       1.0  0.53388  0.010529999999999998  0.1968  1.0000
  O   O24       1.0  0.16066999999999992  0.50005  0.7937599999999998  1.0000
  O   O25       1.0  0.86795  0.91239  0.26614  1.0000
  O   O26       1.0  0.45688999999999996  0.61345  0.7248799999999997  1.0000
  O   O27       1.0  0.5318099999999999  0.02968  0.7034199999999999  1.0000
  O   O28       1.0  0.12799  0.87833  0.30563  1.0000
  O   O29       1.0  0.17972  0.63729  0.68526  1.0000
  O   O30       1.0  0.7803599999999999  0.48136  0.30765  1.0000
  O   O31       1.0  0.4661199999999999  0.51053  0.30319  1.0000
  O   O32       1.0  0.83933  4.9999999999999996e-05  0.7062399999999999  1.0000
