data_image0
_chemical_formula_structural       Cu6H78C126O30
_chemical_formula_sum              "Cu6 H78 C126 O30"
_cell_length_a       21.73426
_cell_length_b       21.7355
_cell_length_c       21.735549999999996
_cell_angle_alpha    108.26623999999998
_cell_angle_beta     108.22980000000001
_cell_angle_gamma    108.22983999999998

_space_group_name_H-M_alt    "P 1"
_space_group_IT_number       1

loop_
  _space_group_symop_operation_xyz
  'x, y, z'

loop_
  _atom_site_type_symbol
  _atom_site_label
  _atom_site_symmetry_multiplicity
  _atom_site_fract_x
  _atom_site_fract_y
  _atom_site_fract_z
  _atom_site_occupancy
  Cu  Cu1       1.0  0.5412  0.54122  0.0641  1.0000
  Cu  Cu2       1.0  0.06409000000000001  0.54121  0.54121  1.0000
  Cu  Cu3       1.0  0.5412  0.06411000000000001  0.54122  1.0000
  Cu  Cu4       1.0  0.93591  0.45879  0.45879  1.0000
  Cu  Cu5       1.0  0.4588099999999999  0.45877999999999997  0.9359  1.0000
  Cu  Cu6       1.0  0.45881  0.9358999999999998  0.45878  1.0000
  H   H1        1.0  0.60632  0.43027999999999994  0.84771  1.0000
  H   H2        1.0  0.71223  0.43222  0.82529  1.0000
  H   H3        1.0  0.85724  0.58747  0.04974  1.0000
  H   H4        1.0  0.751  0.58501  0.07174  1.0000
  H   H5        1.0  0.90219  0.50196  0.02454  1.0000
  H   H6        1.0  0.8774799999999999  0.6143699999999999  0.8263499999999999  1.0000
  H   H7        1.0  0.8477300000000001  0.6063  0.43028  1.0000
  H   H8        1.0  0.82534  0.71222  0.43224  1.0000
  H   H9        1.0  0.049729999999999955  0.85727  0.5874699999999999  1.0000
  H   H10       1.0  0.0717  0.75101  0.58499  1.0000
  H   H11       1.0  0.024559999999999953  0.9022  0.5019599999999999  1.0000
  H   H12       1.0  0.82636  0.87749  0.6144  1.0000
  H   H13       1.0  0.43027000000000004  0.8477  0.60628  1.0000
  H   H14       1.0  0.43224  0.82532  0.71219  1.0000
  H   H15       1.0  0.58748  0.049739999999999916  0.85728  1.0000
  H   H16       1.0  0.585  0.0717  0.75104  1.0000
  H   H17       1.0  0.5019699999999999  0.024549999999999926  0.9022299999999999  1.0000
  H   H18       1.0  0.6143800000000001  0.8263500000000001  0.87747  1.0000
  H   H19       1.0  0.15227000000000004  0.56972  0.3937  1.0000
  H   H20       1.0  0.17466  0.56776  0.28778  1.0000
  H   H21       1.0  0.95027  0.41253  0.14273  1.0000
  H   H22       1.0  0.9283099999999999  0.41500999999999993  0.24898999999999996  1.0000
  H   H23       1.0  0.9754400000000001  0.49804  0.09779999999999997  1.0000
  H   H24       1.0  0.17365000000000003  0.38559999999999994  0.12251  1.0000
  H   H25       1.0  0.56974  0.39372  0.1523  1.0000
  H   H26       1.0  0.56777  0.28781  0.17468  1.0000
  H   H27       1.0  0.41252999999999995  0.14271999999999996  0.9502599999999999  1.0000
  H   H28       1.0  0.41501  0.24895999999999993  0.9283  1.0000
  H   H29       1.0  0.49804  0.09776999999999991  0.97546  1.0000
  H   H30       1.0  0.3856299999999999  0.12253  0.17365  1.0000
  H   H31       1.0  0.39368  0.15229  0.56972  1.0000
  H   H32       1.0  0.28778  0.17471000000000003  0.56779  1.0000
  H   H33       1.0  0.14275999999999994  0.9502599999999999  0.4125299999999999  1.0000
  H   H34       1.0  0.24900000000000003  0.92826  0.41499  1.0000
  H   H35       1.0  0.09781999999999999  0.97546  0.49804  1.0000
  H   H36       1.0  0.12252999999999996  0.17364999999999997  0.38563999999999987  1.0000
  H   H37       1.0  0.39368  0.56972  0.15228999999999998  1.0000
  H   H38       1.0  0.2877799999999999  0.56779  0.17470999999999998  1.0000
  H   H39       1.0  0.14275999999999991  0.4125299999999999  0.9502599999999999  1.0000
  H   H40       1.0  0.24900000000000005  0.41499  0.92826  1.0000
  H   H41       1.0  0.09782000000000003  0.49804  0.97546  1.0000
  H   H42       1.0  0.12252999999999999  0.38563  0.17365  1.0000
  H   H43       1.0  0.15226999999999993  0.3937  0.56972  1.0000
  H   H44       1.0  0.17466  0.28778000000000004  0.56776  1.0000
  H   H45       1.0  0.95027  0.1427299999999999  0.4125299999999999  1.0000
  H   H46       1.0  0.9283099999999999  0.24899  0.41501  1.0000
  H   H47       1.0  0.9754400000000002  0.0978  0.49804  1.0000
  H   H48       1.0  0.17364999999999997  0.12250999999999994  0.3855999999999999  1.0000
  H   H49       1.0  0.56974  0.15229999999999996  0.39371999999999996  1.0000
  H   H50       1.0  0.56777  0.17467999999999997  0.28780999999999995  1.0000
  H   H51       1.0  0.4125199999999999  0.9502599999999999  0.14271999999999999  1.0000
  H   H52       1.0  0.41501  0.9283000000000001  0.24895999999999996  1.0000
  H   H53       1.0  0.49804  0.97546  0.09777  1.0000
  H   H54       1.0  0.3856299999999999  0.17364999999999997  0.12252999999999999  1.0000
  H   H55       1.0  0.8477300000000001  0.43027999999999994  0.6063  1.0000
  H   H56       1.0  0.8253399999999999  0.43223999999999996  0.7122199999999997  1.0000
  H   H57       1.0  0.04973000000000005  0.58747  0.85727  1.0000
  H   H58       1.0  0.0717  0.58499  0.75101  1.0000
  H   H59       1.0  0.024560000000000016  0.50196  0.9022  1.0000
  H   H60       1.0  0.82636  0.6144  0.87749  1.0000
  H   H61       1.0  0.43027000000000004  0.60628  0.84771  1.0000
  H   H62       1.0  0.43224  0.71219  0.82532  1.0000
  H   H63       1.0  0.58748  0.8572799999999999  0.04974  1.0000
  H   H64       1.0  0.585  0.75104  0.07169999999999999  1.0000
  H   H65       1.0  0.50197  0.9022300000000001  0.02454  1.0000
  H   H66       1.0  0.6143799999999999  0.8774699999999999  0.8263499999999999  1.0000
  H   H67       1.0  0.6063200000000001  0.84771  0.43028  1.0000
  H   H68       1.0  0.71223  0.82529  0.43221  1.0000
  H   H69       1.0  0.8572500000000001  0.04973999999999996  0.5874699999999999  1.0000
  H   H70       1.0  0.751  0.07173999999999994  0.5850099999999999  1.0000
  H   H71       1.0  0.90219  0.02453999999999995  0.5019599999999999  1.0000
  H   H72       1.0  0.8774799999999999  0.8263500000000001  0.61437  1.0000
  H   H73       1.0  0.78067  0.5816599999999998  0.7806699999999998  1.0000
  H   H74       1.0  0.78067  0.78067  0.58166  1.0000
  H   H75       1.0  0.5817099999999998  0.7806399999999999  0.78064  1.0000
  H   H76       1.0  0.21933  0.41834000000000005  0.21933  1.0000
  H   H77       1.0  0.41828999999999994  0.21936  0.21935999999999997  1.0000
  H   H78       1.0  0.21934000000000003  0.21933  0.41834  1.0000
  C   C1        1.0  0.60848  0.50516  0.97479  1.0000
  C   C2        1.0  0.67202  0.50734  0.96115  1.0000
  C   C3        1.0  0.6614799999999998  0.46465000000000006  0.8915299999999999  1.0000
  C   C4        1.0  0.72079  0.46573  0.87912  1.0000
  C   C5        1.0  0.79222  0.50905  0.93615  1.0000
  C   C6        1.0  0.80228  0.55243  0.005539999999999998  1.0000
  C   C7        1.0  0.74307  0.55162  0.01808  1.0000
  C   C8        1.0  0.85585  0.5073299999999998  0.9254799999999999  1.0000
  C   C9        1.0  0.91032  0.50448  0.97838  1.0000
  C   C10       1.0  0.97477  0.60847  0.5051599999999999  1.0000
  C   C11       1.0  0.96114  0.67202  0.50733  1.0000
  C   C12       1.0  0.89155  0.66146  0.46465  1.0000
  C   C13       1.0  0.87915  0.7207900000000002  0.46573999999999993  1.0000
  C   C14       1.0  0.9361799999999999  0.7922300000000001  0.50906  1.0000
  C   C15       1.0  0.005540000000000071  0.8023  0.55243  1.0000
  C   C16       1.0  0.018060000000000073  0.74308  0.5516  1.0000
  C   C17       1.0  0.9255  0.8558600000000001  0.5073399999999999  1.0000
  C   C18       1.0  0.9784  0.91033  0.50448  1.0000
  C   C19       1.0  0.50515  0.97477  0.60847  1.0000
  C   C20       1.0  0.50733  0.96113  0.67201  1.0000
  C   C21       1.0  0.46464  0.89153  0.66145  1.0000
  C   C22       1.0  0.46575  0.87914  0.72077  1.0000
  C   C23       1.0  0.50908  0.9361500000000001  0.79222  1.0000
  C   C24       1.0  0.55244  0.005539999999999999  0.8023  1.0000
  C   C25       1.0  0.5516  0.018060000000000017  0.74309  1.0000
  C   C26       1.0  0.50735  0.9254600000000001  0.85584  1.0000
  C   C27       1.0  0.50449  0.97838  0.91033  1.0000
  C   C28       1.0  0.025229999999999992  0.49483999999999995  0.39152999999999993  1.0000
  C   C29       1.0  0.03887000000000005  0.49267000000000005  0.32798  1.0000
  C   C30       1.0  0.10845999999999999  0.53535  0.33854  1.0000
  C   C31       1.0  0.12085000000000001  0.53426  0.27921  1.0000
  C   C32       1.0  0.06383000000000001  0.49094000000000004  0.20776999999999995  1.0000
  C   C33       1.0  0.99446  0.44756999999999997  0.19769999999999996  1.0000
  C   C34       1.0  0.9819400000000001  0.44839999999999997  0.25692  1.0000
  C   C35       1.0  0.0745  0.49266  0.14414  1.0000
  C   C36       1.0  0.021609999999999994  0.49552000000000007  0.08967  1.0000
  C   C37       1.0  0.49486  0.39153  0.02523  1.0000
  C   C38       1.0  0.49267999999999995  0.32799  0.038869999999999995  1.0000
  C   C39       1.0  0.53536  0.33855  0.10847  1.0000
  C   C40       1.0  0.53426  0.27923  0.12086  1.0000
  C   C41       1.0  0.49093  0.20778  0.06385  1.0000
  C   C42       1.0  0.44756  0.1977  0.99446  1.0000
  C   C43       1.0  0.4483999999999999  0.2569099999999999  0.9819399999999999  1.0000
  C   C44       1.0  0.49266  0.14416  0.07454  1.0000
  C   C45       1.0  0.49550999999999995  0.08967  0.02162  1.0000
  C   C46       1.0  0.3915199999999999  0.025209999999999982  0.49483999999999995  1.0000
  C   C47       1.0  0.32798  0.03885999999999996  0.49266  1.0000
  C   C48       1.0  0.33853  0.10847000000000001  0.53535  1.0000
  C   C49       1.0  0.27921  0.12088000000000006  0.53427  1.0000
  C   C50       1.0  0.20777999999999996  0.06384999999999998  0.49094999999999994  1.0000
  C   C51       1.0  0.19772999999999993  0.99446  0.44756999999999997  1.0000
  C   C52       1.0  0.25692999999999994  0.9819199999999999  0.44837999999999995  1.0000
  C   C53       1.0  0.14414999999999997  0.07451999999999996  0.49267  1.0000
  C   C54       1.0  0.08968  0.021619999999999973  0.49552  1.0000
  C   C55       1.0  0.3915199999999999  0.49484  0.02521  1.0000
  C   C56       1.0  0.32798  0.49266  0.03886  1.0000
  C   C57       1.0  0.33853  0.53535  0.10847  1.0000
  C   C58       1.0  0.27921  0.53427  0.12087999999999999  1.0000
  C   C59       1.0  0.20778  0.49095  0.06385  1.0000
  C   C60       1.0  0.19773000000000002  0.44756999999999997  0.99446  1.0000
  C   C61       1.0  0.25693000000000005  0.44838000000000006  0.98192  1.0000
  C   C62       1.0  0.14415000000000003  0.49267000000000005  0.07452  1.0000
  C   C63       1.0  0.08968000000000002  0.49552000000000007  0.02162  1.0000
  C   C64       1.0  0.02522999999999997  0.39153  0.49483999999999995  1.0000
  C   C65       1.0  0.03887000000000001  0.32797999999999994  0.49267  1.0000
  C   C66       1.0  0.10845999999999999  0.33854  0.53535  1.0000
  C   C67       1.0  0.12084999999999999  0.27921  0.53426  1.0000
  C   C68       1.0  0.06383000000000001  0.20777  0.49094  1.0000
  C   C69       1.0  0.99446  0.19771000000000002  0.44756999999999997  1.0000
  C   C70       1.0  0.9819400000000001  0.25692  0.44839999999999997  1.0000
  C   C71       1.0  0.0745  0.14414  0.49266  1.0000
  C   C72       1.0  0.021609999999999976  0.08966999999999997  0.49552  1.0000
  C   C73       1.0  0.49486  0.025229999999999975  0.39152999999999993  1.0000
  C   C74       1.0  0.49267999999999995  0.038869999999999995  0.32799  1.0000
  C   C75       1.0  0.53536  0.10847000000000001  0.33855  1.0000
  C   C76       1.0  0.53426  0.12087  0.27923  1.0000
  C   C77       1.0  0.49093000000000003  0.06385000000000002  0.20778  1.0000
  C   C78       1.0  0.44756  0.99446  0.19769999999999996  1.0000
  C   C79       1.0  0.44839999999999997  0.98194  0.25690999999999997  1.0000
  C   C80       1.0  0.49266  0.07454  0.14416  1.0000
  C   C81       1.0  0.49550999999999995  0.02162  0.08967  1.0000
  C   C82       1.0  0.97477  0.50516  0.60847  1.0000
  C   C83       1.0  0.96114  0.50733  0.67202  1.0000
  C   C84       1.0  0.89155  0.46465000000000006  0.66146  1.0000
  C   C85       1.0  0.87915  0.46574  0.72079  1.0000
  C   C86       1.0  0.9361799999999999  0.50906  0.79223  1.0000
  C   C87       1.0  0.00554000000000001  0.55243  0.8023  1.0000
  C   C88       1.0  0.01805999999999999  0.5516  0.74308  1.0000
  C   C89       1.0  0.9254999999999997  0.5073399999999998  0.8558599999999997  1.0000
  C   C90       1.0  0.9784  0.50449  0.91033  1.0000
  C   C91       1.0  0.50515  0.60847  0.9747699999999999  1.0000
  C   C92       1.0  0.50733  0.67201  0.96113  1.0000
  C   C93       1.0  0.4646399999999999  0.66145  0.8915299999999999  1.0000
  C   C94       1.0  0.4657499999999999  0.72077  0.87914  1.0000
  C   C95       1.0  0.50908  0.7922200000000001  0.93615  1.0000
  C   C96       1.0  0.55244  0.8023  0.005539999999999998  1.0000
  C   C97       1.0  0.5516  0.74309  0.01806  1.0000
  C   C98       1.0  0.50735  0.85584  0.92546  1.0000
  C   C99       1.0  0.50449  0.91033  0.97838  1.0000
  C   C100      1.0  0.60848  0.9747899999999998  0.5051599999999999  1.0000
  C   C101      1.0  0.67202  0.96114  0.5073399999999999  1.0000
  C   C102      1.0  0.66148  0.89153  0.46465  1.0000
  C   C103      1.0  0.72079  0.8791199999999999  0.46573  1.0000
  C   C104      1.0  0.79222  0.9361500000000001  0.50905  1.0000
  C   C105      1.0  0.80228  0.005539999999999999  0.55243  1.0000
  C   C106      1.0  0.74307  0.01808000000000001  0.55162  1.0000
  C   C107      1.0  0.85585  0.92548  0.50733  1.0000
  C   C108      1.0  0.91032  0.97838  0.50448  1.0000
  C   C109      1.0  0.97217  0.5026699999999998  0.9721599999999999  1.0000
  C   C110      1.0  0.8637999999999999  0.5083799999999998  0.8637999999999998  1.0000
  C   C111      1.0  0.82534  0.58554  0.8253399999999999  1.0000
  C   C112      1.0  0.97217  0.97216  0.50267  1.0000
  C   C113      1.0  0.8638  0.8638  0.50838  1.0000
  C   C114      1.0  0.8253399999999999  0.8253399999999997  0.5855399999999998  1.0000
  C   C115      1.0  0.5026799999999999  0.97216  0.9721599999999999  1.0000
  C   C116      1.0  0.50838  0.8637599999999999  0.86376  1.0000
  C   C117      1.0  0.58555  0.8253100000000001  0.82531  1.0000
  C   C118      1.0  0.027840000000000007  0.49733000000000005  0.027839999999999997  1.0000
  C   C119      1.0  0.13619999999999993  0.49162  0.13619999999999996  1.0000
  C   C120      1.0  0.17466  0.41446  0.17466  1.0000
  C   C121      1.0  0.49733  0.02784  0.027839999999999997  1.0000
  C   C122      1.0  0.49162  0.13624  0.13624  1.0000
  C   C123      1.0  0.41446000000000005  0.17468999999999998  0.17468999999999998  1.0000
  C   C124      1.0  0.02784000000000001  0.02783999999999998  0.49733  1.0000
  C   C125      1.0  0.13619999999999996  0.13619999999999996  0.49161999999999995  1.0000
  C   C126      1.0  0.17465999999999998  0.17465999999999995  0.41446  1.0000
  O   O1        1.0  0.62208  0.54287  0.04042  1.0000
  O   O2        1.0  0.54503  0.46553999999999995  0.92018  1.0000
  O   O3        1.0  0.04038000000000001  0.62208  0.54286  1.0000
  O   O4        1.0  0.92017  0.54501  0.46555  1.0000
  O   O5        1.0  0.54285  0.0403799999999999  0.6220899999999998  1.0000
  O   O6        1.0  0.46553  0.92016  0.545  1.0000
  O   O7        1.0  0.9596200000000001  0.45714  0.37792  1.0000
  O   O8        1.0  0.07982999999999997  0.53445  0.45499  1.0000
  O   O9        1.0  0.45716  0.37791  0.95962  1.0000
  O   O10       1.0  0.5344800000000001  0.45500000000000007  0.07984  1.0000
  O   O11       1.0  0.37793  0.9595800000000001  0.45713  1.0000
  O   O12       1.0  0.45497000000000004  0.07982000000000002  0.53446  1.0000
  O   O13       1.0  0.3779299999999999  0.45712999999999987  0.9595799999999999  1.0000
  O   O14       1.0  0.45497000000000004  0.53446  0.07982  1.0000
  O   O15       1.0  0.9596200000000001  0.3779199999999999  0.45713999999999994  1.0000
  O   O16       1.0  0.07983  0.45499  0.53445  1.0000
  O   O17       1.0  0.45716  0.95962  0.37791  1.0000
  O   O18       1.0  0.53448  0.07983999999999997  0.45499999999999996  1.0000
  O   O19       1.0  0.04037999999999989  0.5428599999999998  0.6220799999999997  1.0000
  O   O20       1.0  0.92017  0.46555  0.54501  1.0000
  O   O21       1.0  0.54285  0.62209  0.04038  1.0000
  O   O22       1.0  0.46552999999999994  0.5450000000000002  0.9201599999999999  1.0000
  O   O23       1.0  0.62208  0.04042000000000001  0.54287  1.0000
  O   O24       1.0  0.54503  0.9201799999999999  0.46554  1.0000
  O   O25       1.0  0.8110299999999998  0.5116499999999998  0.8110299999999998  1.0000
  O   O26       1.0  0.81103  0.81103  0.51165  1.0000
  O   O27       1.0  0.51165  0.81097  0.81097  1.0000
  O   O28       1.0  0.18897  0.48835  0.18896999999999994  1.0000
  O   O29       1.0  0.48835  0.18903  0.18903  1.0000
  O   O30       1.0  0.18896999999999997  0.18896999999999997  0.48834999999999995  1.0000
