data_image0
_chemical_formula_structural       Ni12H24C192N24O48
_chemical_formula_sum              "Ni12 H24 C192 N24 O48"
_cell_length_a       23.3419
_cell_length_b       23.34049
_cell_length_c       23.39749
_cell_angle_alpha    109.33220999999999
_cell_angle_beta     109.56294
_cell_angle_gamma    109.62089

_space_group_name_H-M_alt    "P 1"
_space_group_IT_number       1

loop_
  _space_group_symop_operation_xyz
  'x, y, z'

loop_
  _atom_site_type_symbol
  _atom_site_label
  _atom_site_symmetry_multiplicity
  _atom_site_fract_x
  _atom_site_fract_y
  _atom_site_fract_z
  _atom_site_occupancy
  Ni  Ni1       1.0  0.7503299999999999  0.54127  0.45874  1.0000
  Ni  Ni2       1.0  0.74957  0.70725  0.29224  1.0000
  Ni  Ni3       1.0  0.41509  0.95785  0.20811  1.0000
  Ni  Ni4       1.0  0.08406000000000001  0.7918500000000002  0.04183  1.0000
  Ni  Ni5       1.0  0.28922000000000003  0.53936  0.07941  1.0000
  Ni  Ni6       1.0  0.46037000000000006  0.71035  0.42010000000000003  1.0000
  Ni  Ni7       1.0  0.20766000000000004  0.79246  0.75016  1.0000
  Ni  Ni8       1.0  0.04173999999999997  0.95909  0.75062  1.0000
  Ni  Ni9       1.0  0.21032999999999996  0.9201699999999999  0.46045  1.0000
  Ni  Ni10      1.0  0.039249999999999986  0.57902  0.28943  1.0000
  Ni  Ni11      1.0  0.45901  0.2502  0.041450000000000015  1.0000
  Ni  Ni12      1.0  0.29232  0.24984  0.20754000000000006  1.0000
  H   H1        1.0  0.8868599999999999  0.50249  0.38627  1.0000
  H   H2        1.0  0.6113399999999999  0.4980200000000001  0.11358000000000003  1.0000
  H   H3        1.0  0.38415999999999995  0.99742  0.3847500000000001  1.0000
  H   H4        1.0  0.11659000000000001  0.0005500000000000074  0.11157  1.0000
  H   H5        1.0  0.50054  0.61173  0.11562  1.0000
  H   H6        1.0  0.4967599999999999  0.8850099999999999  0.38343000000000005  1.0000
  H   H7        1.0  0.9975199999999999  0.61223  0.61013  1.0000
  H   H8        1.0  0.0027500000000000354  0.88646  0.8860400000000002  1.0000
  H   H9        1.0  0.3859099999999999  0.8844099999999999  0.49843  1.0000
  H   H10       1.0  0.11240000000000003  0.61605  0.50155  1.0000
  H   H11       1.0  0.38521999999999995  0.38481  0.00234  1.0000
  H   H12       1.0  0.11262000000000001  0.11118  0.99769  1.0000
  H   H13       1.0  0.88923  0.88778  0.50296  1.0000
  H   H14       1.0  0.61445  0.6136  0.49798  1.0000
  H   H15       1.0  0.38411000000000006  0.8885100000000001  0.9992600000000001  1.0000
  H   H16       1.0  0.11620999999999995  0.6147  0.00281  1.0000
  H   H17       1.0  0.50266  0.38866999999999996  0.3869  1.0000
  H   H18       1.0  0.49681  0.11417000000000002  0.11408000000000003  1.0000
  H   H19       1.0  0.9989399999999997  0.88505  0.3889  1.0000
  H   H20       1.0  0.002530000000000057  0.6163100000000001  0.11485000000000001  1.0000
  H   H21       1.0  0.38713  0.0026299999999999804  0.88884  1.0000
  H   H22       1.0  0.11428000000000005  0.99806  0.61426  1.0000
  H   H23       1.0  0.38772  0.49895  0.3835700000000001  1.0000
  H   H24       1.0  0.11404999999999997  0.50189  0.11560000000000001  1.0000
  C   C1        1.0  0.86563  0.53828  0.4942100000000001  1.0000
  C   C2        1.0  0.9339099999999999  0.55138  0.49698  1.0000
  C   C3        1.0  0.93622  0.53212  0.43485000000000007  1.0000
  C   C4        1.0  0.7094799999999999  0.46337000000000006  0.31106  1.0000
  C   C5        1.0  0.68844  0.43007  0.24323000000000003  1.0000
  C   C6        1.0  0.6503599999999999  0.4585600000000001  0.22369  1.0000
  C   C7        1.0  0.62729  0.50239  0.24337000000000006  1.0000
  C   C8        1.0  0.65912  0.52497  0.31233  1.0000
  C   C9        1.0  0.6284500000000001  0.62708  0.17484  1.0000
  C   C10       1.0  0.56225  0.561  0.11767000000000001  1.0000
  C   C11       1.0  0.56148  0.49709000000000003  0.09492000000000003  1.0000
  C   C12       1.0  0.7911999999999999  0.6027000000000001  0.25265  1.0000
  C   C13       1.0  0.8127099999999998  0.55624  0.24085  1.0000
  C   C14       1.0  0.84961  0.57494  0.30768  1.0000
  C   C15       1.0  0.8716399999999997  0.61696  0.37444  1.0000
  C   C16       1.0  0.83941  0.65354  0.36414  1.0000
  C   C17       1.0  0.45414999999999994  0.95787  0.32551  1.0000
  C   C18       1.0  0.4437  0.9454099999999999  0.38059  1.0000
  C   C19       1.0  0.40297  0.96706  0.40403000000000006  1.0000
  C   C20       1.0  0.34766  0.038379999999999984  0.24757000000000004  1.0000
  C   C21       1.0  0.31331999999999993  0.07171  0.2604  1.0000
  C   C22       1.0  0.2658  0.04278000000000001  0.19353000000000006  1.0000
  C   C23       1.0  0.24065  0.99856  0.12632000000000002  1.0000
  C   C24       1.0  0.2873299999999999  0.9763399999999999  0.13611  1.0000
  C   C25       1.0  0.04552000000000002  0.87051  0.003450000000000001  1.0000
  C   C26       1.0  0.05375999999999995  0.93495  0.99963  1.0000
  C   C27       1.0  0.09657999999999999  0.9993699999999999  0.061940000000000016  1.0000
  C   C28       1.0  0.15072  0.89832  0.18900000000000003  1.0000
  C   C29       1.0  0.18449000000000004  0.94351  0.25721000000000005  1.0000
  C   C30       1.0  0.23313999999999996  0.92553  0.27588  1.0000
  C   C31       1.0  0.25806  0.88378  0.2553600000000001  1.0000
  C   C32       1.0  0.21232000000000004  0.84824  0.18632  1.0000
  C   C33       1.0  0.36898  0.50177  0.042660000000000003  1.0000
  C   C34       1.0  0.43435  0.49905  0.05301  1.0000
  C   C35       1.0  0.4989999999999999  0.56178  0.09595000000000002  1.0000
  C   C36       1.0  0.39585  0.68824  0.14964  1.0000
  C   C37       1.0  0.4437  0.75631  0.18732000000000001  1.0000
  C   C38       1.0  0.4233799999999999  0.77125  0.23492000000000002  1.0000
  C   C39       1.0  0.37993  0.74779  0.25728  1.0000
  C   C40       1.0  0.34273  0.68065  0.20614  1.0000
  C   C41       1.0  0.45978999999999987  0.82754  0.4563900000000001  1.0000
  C   C42       1.0  0.44684000000000007  0.8826400000000001  0.44555000000000006  1.0000
  C   C43       1.0  0.4669  0.90414  0.4026  1.0000
  C   C44       1.0  0.53987  0.74547  0.34917  1.0000
  C   C45       1.0  0.56906  0.75514  0.31043  1.0000
  C   C46       1.0  0.5356699999999999  0.68705  0.26297  1.0000
  C   C47       1.0  0.48895  0.62121  0.24061  1.0000
  C   C48       1.0  0.47463  0.63587  0.293  1.0000
  C   C49       1.0  0.12845  0.6751  0.62884  1.0000
  C   C50       1.0  0.06179  0.61787  0.5628  1.0000
  C   C51       1.0  0.99734  0.59415  0.5612  1.0000
  C   C52       1.0  0.10229999999999999  0.75236  0.79193  1.0000
  C   C53       1.0  0.05579000000000019  0.7412700000000002  0.8135500000000002  1.0000
  C   C54       1.0  0.07461000000000008  0.8083900000000002  0.8499900000000001  1.0000
  C   C55       1.0  0.11705000000000003  0.87467  0.87042  1.0000
  C   C56       1.0  0.15378000000000003  0.86398  0.83869  1.0000
  C   C57       1.0  0.03945000000000006  0.9950700000000001  0.86605  1.0000
  C   C58       1.0  0.05181999999999998  0.99729  0.93378  1.0000
  C   C59       1.0  0.03210000000000004  0.9346600000000002  0.9357800000000001  1.0000
  C   C60       1.0  0.96346  0.8112500000000001  0.7095100000000002  1.0000
  C   C61       1.0  0.929  0.74349  0.68898  1.0000
  C   C62       1.0  0.9576800000000001  0.72419  0.65089  1.0000
  C   C63       1.0  0.0020300000000000157  0.74387  0.62825  1.0000
  C   C64       1.0  0.024750000000000088  0.81289  0.6603500000000002  1.0000
  C   C65       1.0  0.32783  0.95611  0.46045  1.0000
  C   C66       1.0  0.3828  0.94575  0.44726  1.0000
  C   C67       1.0  0.40421000000000007  0.9026500000000001  0.46717  1.0000
  C   C68       1.0  0.24612999999999993  0.84908  0.53971  1.0000
  C   C69       1.0  0.2561099999999999  0.81045  0.56867  1.0000
  C   C70       1.0  0.1884099999999999  0.76378  0.53664  1.0000
  C   C71       1.0  0.12145000000000007  0.74032  0.49083000000000004  1.0000
  C   C72       1.0  0.1349599999999999  0.79226  0.47544  1.0000
  C   C73       1.0  0.0033400000000000122  0.54333  0.37025  1.0000
  C   C74       1.0  0.00036999999999999837  0.55324  0.43547  1.0000
  C   C75       1.0  0.06261000000000007  0.5962  0.50006  1.0000
  C   C76       1.0  0.18970999999999996  0.64996  0.39583  1.0000
  C   C77       1.0  0.25787  0.68836  0.44334  1.0000
  C   C78       1.0  0.27199000000000007  0.7353100000000001  0.42258000000000007  1.0000
  C   C79       1.0  0.24806999999999998  0.7582499999999999  0.37942  1.0000
  C   C80       1.0  0.18051999999999993  0.7065499999999998  0.34176  1.0000
  C   C81       1.0  0.4946499999999999  0.36585  0.03858  1.0000
  C   C82       1.0  0.49698  0.43381000000000003  0.05180000000000001  1.0000
  C   C83       1.0  0.4337099999999999  0.43496000000000007  0.03182  1.0000
  C   C84       1.0  0.31042999999999993  0.20915  0.9638400000000001  1.0000
  C   C85       1.0  0.24267999999999998  0.18869  0.92901  1.0000
  C   C86       1.0  0.22378999999999996  0.15081999999999998  0.9579600000000001  1.0000
  C   C87       1.0  0.24240999999999993  0.12732  0.00201  1.0000
  C   C88       1.0  0.31187  0.15964  0.025280000000000004  1.0000
  C   C89       1.0  0.17444000000000007  0.12853000000000006  0.12748000000000007  1.0000
  C   C90       1.0  0.11716  0.06223  0.06092000000000001  1.0000
  C   C91       1.0  0.09445999999999999  0.061570000000000014  0.99693  1.0000
  C   C92       1.0  0.25308  0.2919  0.10203  1.0000
  C   C93       1.0  0.24049999999999996  0.31327  0.05543  1.0000
  C   C94       1.0  0.30785999999999997  0.34988  0.07497  1.0000
  C   C95       1.0  0.37499  0.37178000000000005  0.11711  1.0000
  C   C96       1.0  0.36451  0.3392  0.1535  1.0000
  C   C97       1.0  0.8713300000000003  0.82568  0.37268  1.0000
  C   C98       1.0  0.93754  0.88287  0.43947  1.0000
  C   C99       1.0  0.9387  0.90614  0.50347  1.0000
  C   C100      1.0  0.70782  0.7475  0.3975200000000001  1.0000
  C   C101      1.0  0.6868100000000001  0.7587400000000001  0.44437  1.0000
  C   C102      1.0  0.6500099999999998  0.69164  0.42521  1.0000
  C   C103      1.0  0.6288099999999999  0.6250900000000001  0.38285000000000013  1.0000
  C   C104      1.0  0.6600899999999997  0.6353200000000001  0.3455000000000001  1.0000
  C   C105      1.0  0.63462  0.5051400000000001  0.46151000000000003  1.0000
  C   C106      1.0  0.56627  0.50259  0.44838  1.0000
  C   C107      1.0  0.5644  0.5652400000000001  0.4681600000000001  1.0000
  C   C108      1.0  0.7901099999999998  0.68845  0.53633  1.0000
  C   C109      1.0  0.8104500000000002  0.7561  0.5699400000000002  1.0000
  C   C110      1.0  0.8489500000000001  0.7755800000000002  0.5418800000000003  1.0000
  C   C111      1.0  0.8727799999999999  0.757  0.49834  1.0000
  C   C112      1.0  0.8409499999999999  0.68772  0.47529  1.0000
  C   C113      1.0  0.4547499999999999  0.99653  0.12988  1.0000
  C   C114      1.0  0.4461799999999999  0.00025000000000000196  0.06531  1.0000
  C   C115      1.0  0.4039  0.93832  0.0007000000000000002  1.0000
  C   C116      1.0  0.34946999999999995  0.81126  0.10227  1.0000
  C   C117      1.0  0.3162499999999999  0.7433  0.057440000000000005  1.0000
  C   C118      1.0  0.26701  0.72369  0.07450000000000001  1.0000
  C   C119      1.0  0.24298999999999996  0.74563  0.11671000000000001  1.0000
  C   C120      1.0  0.28844  0.81461  0.15251000000000003  1.0000
  C   C121      1.0  0.04535000000000002  0.6739  0.04205000000000001  1.0000
  C   C122      1.0  0.055239999999999956  0.61819  0.05412  1.0000
  C   C123      1.0  0.09738000000000002  0.59601  0.033260000000000005  1.0000
  C   C124      1.0  0.1526  0.7526  0.96171  1.0000
  C   C125      1.0  0.18653  0.7396  0.92791  1.0000
  C   C126      1.0  0.23459000000000002  0.8064  0.9567700000000002  1.0000
  C   C127      1.0  0.25942999999999994  0.8735799999999999  0.00161  1.0000
  C   C128      1.0  0.21291000000000002  0.8638000000000001  0.02408  1.0000
  C   C129      1.0  0.3719899999999999  0.37111  0.32519  1.0000
  C   C130      1.0  0.43864000000000003  0.4374000000000001  0.38239000000000006  1.0000
  C   C131      1.0  0.5028  0.43801000000000007  0.40521000000000007  1.0000
  C   C132      1.0  0.39704  0.2073  0.24628  1.0000
  C   C133      1.0  0.44365999999999994  0.18589000000000003  0.2591  1.0000
  C   C134      1.0  0.4247299999999999  0.1502  0.19195  1.0000
  C   C135      1.0  0.38321999999999995  0.12944  0.12537000000000004  1.0000
  C   C136      1.0  0.3467  0.16178  0.13572  1.0000
  C   C137      1.0  0.46123999999999993  0.13447  0.0055200000000000015  1.0000
  C   C138      1.0  0.4483499999999999  0.06627  0.002950000000000001  1.0000
  C   C139      1.0  0.46771  0.06446  0.06594  1.0000
  C   C140      1.0  0.53635  0.29025  0.18921  1.0000
  C   C141      1.0  0.57096  0.31111  0.25701  1.0000
  C   C142      1.0  0.54162  0.34874  0.27552  1.0000
  C   C143      1.0  0.49755000000000005  0.37172000000000005  0.256  1.0000
  C   C144      1.0  0.47455999999999987  0.33944  0.18692000000000006  1.0000
  C   C145      1.0  0.13082999999999997  0.95707  0.49726000000000004  1.0000
  C   C146      1.0  0.06565999999999998  0.94745  0.50062  1.0000
  C   C147      1.0  0.0007100000000000308  0.9046299999999999  0.4387000000000001  1.0000
  C   C148      1.0  0.10359999999999993  0.8504199999999998  0.31071  1.0000
  C   C149      1.0  0.05643000000000003  0.81207  0.24247000000000002  1.0000
  C   C150      1.0  0.07707000000000007  0.7649400000000001  0.22848000000000002  1.0000
  C   C151      1.0  0.12014000000000001  0.74217  0.25239  1.0000
  C   C152      1.0  0.15756999999999996  0.7935700000000001  0.3196900000000001  1.0000
  C   C153      1.0  0.040819999999999954  0.54403  0.17313000000000003  1.0000
  C   C154      1.0  0.05334999999999999  0.55464  0.11794  1.0000
  C   C155      1.0  0.03313999999999996  0.59734  0.09631000000000002  1.0000
  C   C156      1.0  0.96103  0.65134  0.2542  1.0000
  C   C157      1.0  0.9316499999999999  0.68961  0.24404  1.0000
  C   C158      1.0  0.9635499999999999  0.73646  0.31151  1.0000
  C   C159      1.0  0.009079999999999961  0.75933  0.37802  1.0000
  C   C160      1.0  0.024949999999999976  0.7079  0.36455000000000004  1.0000
  C   C161      1.0  0.32539  0.87311  0.8714700000000002  1.0000
  C   C162      1.0  0.38246000000000013  0.9393800000000001  0.9376500000000001  1.0000
  C   C163      1.0  0.40559  0.0034700000000000134  0.93864  1.0000
  C   C164      1.0  0.24793999999999988  0.89743  0.7088  1.0000
  C   C165      1.0  0.25971000000000005  0.9440900000000001  0.6872600000000001  1.0000
  C   C166      1.0  0.19243999999999994  0.92499  0.64997  1.0000
  C   C167      1.0  0.12567  0.88291  0.62814  1.0000
  C   C168      1.0  0.13571999999999998  0.84609  0.66013  1.0000
  C   C169      1.0  0.005130000000000034  0.9615700000000001  0.6345300000000001  1.0000
  C   C170      1.0  0.0032100000000000076  0.94877  0.5665300000000001  1.0000
  C   C171      1.0  0.06599000000000006  0.9686100000000001  0.56456  1.0000
  C   C172      1.0  0.18930000000000008  0.036360000000000094  0.7904200000000002  1.0000
  C   C173      1.0  0.25727999999999995  0.07011000000000016  0.8111400000000002  1.0000
  C   C174      1.0  0.27683  0.04189000000000001  0.84971  1.0000
  C   C175      1.0  0.25751  0.9983  0.87325  1.0000
  C   C176      1.0  0.1884000000000001  0.97571  0.8412600000000001  1.0000
  C   C177      1.0  0.4971199999999999  0.62984  0.45602000000000004  1.0000
  C   C178      1.0  0.50033  0.56488  0.44631  1.0000
  C   C179      1.0  0.43766999999999995  0.50032  0.40343  1.0000
  C   C180      1.0  0.31078999999999996  0.60365  0.3501600000000001  1.0000
  C   C181      1.0  0.24230999999999997  0.55644  0.31216  1.0000
  C   C182      1.0  0.22765  0.57677  0.26455000000000006  1.0000
  C   C183      1.0  0.25035  0.61967  0.24131  1.0000
  C   C184      1.0  0.31771  0.65647  0.29245  1.0000
  C   C185      1.0  0.17265  0.54033  0.043720000000000016  1.0000
  C   C186      1.0  0.11777999999999994  0.55322  0.05462  1.0000
  C   C187      1.0  0.09574999999999997  0.53271  0.09698000000000002  1.0000
  C   C188      1.0  0.25399999999999995  0.46052  0.15132  1.0000
  C   C189      1.0  0.24424999999999997  0.4314299999999999  0.19023  1.0000
  C   C190      1.0  0.31281  0.46416  0.23683  1.0000
  C   C191      1.0  0.3794  0.50939  0.26005  1.0000
  C   C192      1.0  0.36448  0.52395  0.20781000000000005  1.0000
  N   N1        1.0  0.6999999999999998  0.50942  0.35276  1.0000
  N   N2        1.0  0.7991599999999999  0.65321  0.30759  1.0000
  N   N3        1.0  0.34373000000000004  0.9920500000000001  0.19244000000000003  1.0000
  N   N4        1.0  0.15582000000000004  0.8483700000000001  0.14635  1.0000
  N   N5        1.0  0.34353999999999996  0.64264  0.14996  1.0000
  N   N6        1.0  0.49399  0.69337  0.34931  1.0000
  N   N7        1.0  0.15300000000000002  0.8068  0.7991700000000003  1.0000
  N   N8        1.0  0.00975000000000019  0.8541700000000002  0.7009600000000002  1.0000
  N   N9        1.0  0.19276000000000004  0.84842  0.4941  1.0000
  N   N10       1.0  0.14388  0.65056  0.34394  1.0000
  N   N11       1.0  0.35309999999999997  0.20045  0.010040000000000004  1.0000
  N   N12       1.0  0.3073  0.29916  0.15289  1.0000
  N   N13       1.0  0.6999999999999998  0.69297  0.34674  1.0000
  N   N14       1.0  0.7999299999999998  0.64679  0.49051  1.0000
  N   N15       1.0  0.34492999999999996  0.8547399999999999  0.15222  1.0000
  N   N16       1.0  0.15646  0.80741  0.00828  1.0000
  N   N17       1.0  0.3468  0.20107999999999998  0.19259  1.0000
  N   N18       1.0  0.49026999999999993  0.29888  0.14645  1.0000
  N   N19       1.0  0.15525999999999995  0.84927  0.35611  1.0000
  N   N20       1.0  0.006600000000000077  0.6517900000000001  0.30725000000000013  1.0000
  N   N21       1.0  0.19256000000000004  0.84665  0.7003700000000002  1.0000
  N   N22       1.0  0.14714999999999998  0.99049  0.80004  1.0000
  N   N23       1.0  0.3557499999999999  0.65566  0.34874  1.0000
  N   N24       1.0  0.30717999999999995  0.5058699999999999  0.15166  1.0000
  O   O1        1.0  0.80795  0.50431  0.43312  1.0000
  O   O2        1.0  0.8631099999999998  0.56598  0.549  1.0000
  O   O3        1.0  0.68632  0.6243699999999999  0.19956  1.0000
  O   O4        1.0  0.62895  0.6834  0.20444000000000007  1.0000
  O   O5        1.0  0.4300200000000001  0.9948500000000003  0.3046600000000001  1.0000
  O   O6        1.0  0.4798  0.92853  0.29452000000000006  1.0000
  O   O7        1.0  0.07244999999999999  0.87517  0.06493  1.0000
  O   O8        1.0  0.02090999999999992  0.8132999999999999  0.94956  1.0000
  O   O9        1.0  0.37371  0.56341  0.06868  1.0000
  O   O10       1.0  0.31157999999999997  0.44730000000000003  0.0173  1.0000
  O   O11       1.0  0.49542999999999987  0.80586  0.4308600000000001  1.0000
  O   O12       1.0  0.43113000000000007  0.7962300000000001  0.48196000000000006  1.0000
  O   O13       1.0  0.12509000000000015  0.69928  0.6862500000000002  1.0000
  O   O14       1.0  0.18454  0.70395  0.62894  1.0000
  O   O15       1.0  0.006060000000000044  0.93349  0.8093700000000001  1.0000
  O   O16       1.0  0.06716  0.04997000000000003  0.86347  1.0000
  O   O17       1.0  0.30556  0.9309200000000001  0.4960600000000001  1.0000
  O   O18       1.0  0.29606  0.98163  0.43145000000000006  1.0000
  O   O19       1.0  0.06452999999999999  0.56849  0.37371  1.0000
  O   O20       1.0  0.9491499999999998  0.51852  0.3130400000000001  1.0000
  O   O21       1.0  0.43315999999999993  0.30865  0.00485  1.0000
  O   O22       1.0  0.54932  0.36269  0.06604  1.0000
  O   O23       1.0  0.19940999999999998  0.18558  0.12351  1.0000
  O   O24       1.0  0.20421  0.13029  0.18444  1.0000
  O   O25       1.0  0.8129999999999998  0.80052  0.37478000000000006  1.0000
  O   O26       1.0  0.87173  0.79713  0.3171  1.0000
  O   O27       1.0  0.6924799999999999  0.56635  0.49545  1.0000
  O   O28       1.0  0.63709  0.4503600000000001  0.43348000000000003  1.0000
  O   O29       1.0  0.42745000000000005  0.9345500000000001  0.12466000000000002  1.0000
  O   O30       1.0  0.47938000000000003  0.05083000000000001  0.18663  1.0000
  O   O31       1.0  0.07115  0.69624  0.006810000000000001  1.0000
  O   O32       1.0  0.020330000000000008  0.70549  0.07153  1.0000
  O   O33       1.0  0.37557000000000007  0.31377000000000005  0.30113000000000006  1.0000
  O   O34       1.0  0.31542999999999993  0.37011000000000005  0.29551000000000005  1.0000
  O   O35       1.0  0.49504  0.19127  0.06687  1.0000
  O   O36       1.0  0.4341699999999999  0.13851999999999998  0.95135  1.0000
  O   O37       1.0  0.12669  0.93151  0.43591  1.0000
  O   O38       1.0  0.18835999999999997  0.98291  0.55149  1.0000
  O   O39       1.0  0.004539999999999943  0.56843  0.19480000000000006  1.0000
  O   O40       1.0  0.07065000000000002  0.51903  0.20481  1.0000
  O   O41       1.0  0.30002  0.87646  0.8140900000000002  1.0000
  O   O42       1.0  0.29674  0.8160699999999999  0.87019  1.0000
  O   O43       1.0  0.06657000000000005  0.99589  0.69191  1.0000
  O   O44       1.0  0.95034  0.9340300000000001  0.6372500000000001  1.0000
  O   O45       1.0  0.43548000000000003  0.6251300000000001  0.42980000000000007  1.0000
  O   O46       1.0  0.5515  0.6874399999999999  0.48171  1.0000
  O   O47       1.0  0.1943  0.50481  0.06939  1.0000
  O   O48       1.0  0.20418  0.56907  0.0178  1.0000
