data_image0
_chemical_formula_structural       Cd8H96C132O48
_chemical_formula_sum              "Cd8 H96 C132 O48"
_cell_length_a       7.16532
_cell_length_b       18.92285
_cell_length_c       37.09423999999999
_cell_angle_alpha    88.92156
_cell_angle_beta     84.42530000000001
_cell_angle_gamma    79.13404

_symmetry_space_group_name_H-M    'P 1'
_symmetry_Int_Tables_number       1

loop_
  _symmetry_equiv_pos_as_xyz
  'x,y,z'

loop_
  _atom_site_type_symbol
  _atom_site_label
  _atom_site_symmetry_multiplicity
  _atom_site_fract_x
  _atom_site_fract_y
  _atom_site_fract_z
  _atom_site_occupancy
  Cd  Cd1       1.0  0.048039999999999965  0.76293  0.13991  1.0000
  Cd  Cd2       1.0  0.5942999999999999  0.80924  0.12766  1.0000
  Cd  Cd3       1.0  0.9511499999999996  0.23726  0.86022  1.0000
  Cd  Cd4       1.0  0.53231  0.19201  0.8725399999999999  1.0000
  Cd  Cd5       1.0  0.9354799999999995  0.26292  0.3598  1.0000
  Cd  Cd6       1.0  0.47164000000000006  0.3082  0.37198  1.0000
  Cd  Cd7       1.0  0.5572  0.73759  0.64003  1.0000
  Cd  Cd8       1.0  0.15197  0.69171  0.6271  1.0000
  H   H1        1.0  0.8659700000000001  0.34506  0.11513  1.0000
  H   H2        1.0  0.9150199999999995  0.3468399999999999  0.16152  1.0000
  H   H3        1.0  0.6227  0.41968  0.13468  1.0000
  H   H4        1.0  0.36135  0.52561  0.1382  1.0000
  H   H5        1.0  0.7737499999999996  0.6647299999999999  0.1322  1.0000
  H   H6        1.0  0.03549999999999997  0.55988  0.12919  1.0000
  H   H7        1.0  0.13636000000000006  0.28517999999999993  0.06763  1.0000
  H   H8        1.0  0.19237  0.37132  0.076  1.0000
  H   H9        1.0  0.24037  0.31517  0.014189999999999998  1.0000
  H   H10       1.0  0.40793000000000007  0.29619999999999996  0.9526599999999998  1.0000
  H   H11       1.0  0.9438399999999997  0.22741  0.99719  1.0000
  H   H12       1.0  0.7778100000000001  0.24767999999999998  0.05976999999999999  1.0000
  H   H13       1.0  0.44865000000000005  0.28332  0.14092  1.0000
  H   H14       1.0  0.34154  0.37673  0.14035  1.0000
  H   H15       1.0  0.61959  0.33428  0.17565  1.0000
  H   H16       1.0  0.83606  0.31453  0.22493  1.0000
  H   H17       1.0  0.3828099999999999  0.25693  0.2975299999999999  1.0000
  H   H18       1.0  0.16302000000000005  0.27977  0.24914999999999995  1.0000
  H   H19       1.0  0.27192  0.19038  0.12157999999999998  1.0000
  H   H20       1.0  0.12099999999999998  0.21857  0.16202999999999995  1.0000
  H   H21       1.0  0.19654000000000002  0.0939  0.14638999999999994  1.0000
  H   H22       1.0  0.11234999999999995  0.97317  0.15047  1.0000
  H   H23       1.0  0.58829  0.05220999999999999  0.10366999999999997  1.0000
  H   H24       1.0  0.6692599999999999  0.17494999999999997  0.09945  1.0000
  H   H25       1.0  0.32371000000000005  0.65559  0.88516  1.0000
  H   H26       1.0  0.41941999999999996  0.65412  0.8387  1.0000
  H   H27       1.0  0.1753200000000001  0.58086  0.8650499999999998  1.0000
  H   H28       1.0  0.02387  0.47459999999999997  0.86161  1.0000
  H   H29       1.0  0.5696299999999999  0.33629  0.8678299999999999  1.0000
  H   H30       1.0  0.72261  0.44114999999999993  0.87096  1.0000
  H   H31       1.0  0.48818000000000017  0.71637  0.9323399999999998  1.0000
  H   H32       1.0  0.63565  0.6296099999999999  0.92416  1.0000
  H   H33       1.0  0.5709799999999999  0.68495  0.9862  1.0000
  H   H34       1.0  0.6577399999999999  0.70538  0.04750999999999998  1.0000
  H   H35       1.0  0.16731000000000007  0.7752199999999999  0.00227  1.0000
  H   H36       1.0  0.08419000000000004  0.75348  0.9399299999999999  1.0000
  H   H37       1.0  0.8710099999999998  0.71668  0.85836  1.0000
  H   H38       1.0  0.8549399999999999  0.62341  0.85922  1.0000
  H   H39       1.0  0.12340000000000009  0.66618  0.8238399999999999  1.0000
  H   H40       1.0  0.3693600000000001  0.6860899999999999  0.7746299999999999  1.0000
  H   H41       1.0  0.93199  0.7425  0.7018699999999998  1.0000
  H   H42       1.0  0.68637  0.71972  0.75032  1.0000
  H   H43       1.0  0.5796899999999999  0.81045  0.8794399999999999  1.0000
  H   H44       1.0  0.5085100000000001  0.7825599999999999  0.8378299999999997  1.0000
  H   H45       1.0  0.4365299999999999  0.90654  0.8528199999999998  1.0000
  H   H46       1.0  0.23695000000000002  0.027339999999999996  0.84937  1.0000
  H   H47       1.0  0.74388  0.9483900000000001  0.89594  1.0000
  H   H48       1.0  0.9423000000000001  0.8253099999999999  0.89957  1.0000
  H   H49       1.0  0.73029  0.84462  0.38504  1.0000
  H   H50       1.0  0.8243099999999995  0.84672  0.3385899999999999  1.0000
  H   H51       1.0  0.50493  0.91906  0.36553  1.0000
  H   H52       1.0  0.24597000000000002  0.02465  0.36191999999999996  1.0000
  H   H53       1.0  0.65109  0.16443  0.36722  1.0000
  H   H54       1.0  0.9105799999999998  0.06012  0.37046  1.0000
  H   H55       1.0  0.9547500000000003  0.78569  0.4322099999999999  1.0000
  H   H56       1.0  0.019900000000000053  0.87174  0.4236599999999999  1.0000
  H   H57       1.0  0.0047500000000000545  0.8155099999999998  0.48566  1.0000
  H   H58       1.0  0.11007000000000008  0.7959999999999999  0.5472  1.0000
  H   H59       1.0  0.69059  0.72694  0.50281  1.0000
  H   H60       1.0  0.5882499999999997  0.74797  0.4401999999999999  1.0000
  H   H61       1.0  0.33914000000000005  0.78449  0.35868  1.0000
  H   H62       1.0  0.22889000000000018  0.8775899999999999  0.35890999999999995  1.0000
  H   H63       1.0  0.5441299999999999  0.83454  0.32376  1.0000
  H   H64       1.0  0.8103100000000001  0.81473  0.27456  1.0000
  H   H65       1.0  0.43023999999999996  0.75696  0.20198  1.0000
  H   H66       1.0  0.16186000000000006  0.7797  0.25034  1.0000
  H   H67       1.0  0.14286000000000001  0.69043  0.3785499999999999  1.0000
  H   H68       1.0  0.03365000000000007  0.71869  0.33796999999999994  1.0000
  H   H69       1.0  0.09247000000000002  0.59412  0.35358  1.0000
  H   H70       1.0  0.01318000000000003  0.47337  0.34976  1.0000
  H   H71       1.0  0.44190000000000007  0.55216  0.39669  1.0000
  H   H72       1.0  0.51835  0.67496  0.40064  1.0000
  H   H73       1.0  0.9630199999999999  0.15474  0.61483  1.0000
  H   H74       1.0  0.011740000000000004  0.15293  0.66134  1.0000
  H   H75       1.0  0.79236  0.08104  0.63469  1.0000
  H   H76       1.0  0.63395  0.97579  0.63815  1.0000
  H   H77       1.0  0.18309999999999993  0.83542  0.63207  1.0000
  H   H78       1.0  0.34276000000000006  0.9394599999999999  0.62897  1.0000
  H   H79       1.0  0.17468000000000003  0.21424999999999994  0.5678  1.0000
  H   H80       1.0  0.31761999999999996  0.12831  0.57633  1.0000
  H   H81       1.0  0.3078400000000001  0.18442999999999998  0.5143499999999999  1.0000
  H   H82       1.0  0.4540100000000002  0.20425999999999997  0.45277999999999996  1.0000
  H   H83       1.0  0.92074  0.27445  0.4968199999999999  1.0000
  H   H84       1.0  0.77748  0.25343999999999994  0.55942  1.0000
  H   H85       1.0  0.4842500000000002  0.21565  0.6413899999999999  1.0000
  H   H86       1.0  0.46712999999999977  0.12252999999999999  0.6411  1.0000
  H   H87       1.0  0.7038199999999999  0.16558  0.67626  1.0000
  H   H88       1.0  0.9003900000000001  0.18543  0.7255099999999999  1.0000
  H   H89       1.0  0.38976  0.24293  0.79808  1.0000
  H   H90       1.0  0.19286  0.22022  0.74967  1.0000
  H   H91       1.0  0.21345999999999998  0.30960999999999994  0.62137  1.0000
  H   H92       1.0  0.09212000000000005  0.28136999999999995  0.6619899999999999  1.0000
  H   H93       1.0  0.042220000000000084  0.40572  0.64641  1.0000
  H   H94       1.0  0.84001  0.52656  0.64998  1.0000
  H   H95       1.0  0.39352  0.448  0.60325  1.0000
  H   H96       1.0  0.59541  0.32509  0.59947  1.0000
  C   C1        1.0  0.16131000000000004  0.30466  0.12403  1.0000
  C   C2        1.0  0.9693999999999999  0.35541999999999996  0.1334  1.0000
  C   C3        1.0  0.8465399999999998  0.4830499999999999  0.13143  1.0000
  C   C4        1.0  0.6561299999999998  0.47326  0.13413  1.0000
  C   C5        1.0  0.50916  0.53294  0.13591  1.0000
  C   C6        1.0  0.5479  0.60316  0.13488999999999998  1.0000
  C   C7        1.0  0.7397899999999998  0.61156  0.1325  1.0000
  C   C8        1.0  0.8878499999999999  0.5526  0.13069999999999998  1.0000
  C   C9        1.0  0.38479  0.66394  0.13708  1.0000
  C   C10       1.0  0.22005  0.31408  0.08347  1.0000
  C   C11       1.0  0.49894  0.28017  0.04099  1.0000
  C   C12       1.0  0.39348999999999984  0.29544  0.010959999999999996  1.0000
  C   C13       1.0  0.48802000000000006  0.28476  0.97624  1.0000
  C   C14       1.0  0.6855999999999999  0.25961  0.97107  1.0000
  C   C15       1.0  0.7902499999999998  0.24644999999999997  0.00146  1.0000
  C   C16       1.0  0.69826  0.25715  0.03611  1.0000
  C   C17       1.0  0.78441  0.24724  0.93409  1.0000
  C   C18       1.0  0.31537999999999994  0.32228999999999997  0.14677999999999997  1.0000
  C   C19       1.0  0.3780299999999999  0.30792  0.20942999999999995  1.0000
  C   C20       1.0  0.56769  0.31754999999999994  0.20227  1.0000
  C   C21       1.0  0.68895  0.30643  0.22991  1.0000
  C   C22       1.0  0.62392  0.28509  0.26454  1.0000
  C   C23       1.0  0.43309999999999993  0.27529  0.27104  1.0000
  C   C24       1.0  0.31045999999999996  0.28693  0.24393999999999996  1.0000
  C   C25       1.0  0.7520099999999998  0.27382  0.29398  1.0000
  C   C26       1.0  0.14089  0.22645999999999997  0.13257999999999995  1.0000
  C   C27       1.0  0.9398299999999998  0.14225  0.12156999999999998  1.0000
  C   C28       1.0  0.06398  0.08573  0.13669  1.0000
  C   C29       1.0  0.016519999999999996  0.01762  0.13914  1.0000
  C   C30       1.0  0.84593  0.00452  0.12729  1.0000
  C   C31       1.0  0.7206300000000003  0.061989999999999996  0.11293  1.0000
  C   C32       1.0  0.76639  0.13029  0.11029  1.0000
  C   C33       1.0  0.8085100000000001  0.92963  0.12989  1.0000
  C   C34       1.0  0.5880800000000002  0.69608  0.8759499999999999  1.0000
  C   C35       1.0  0.4552999999999999  0.6455  0.86675  1.0000
  C   C36       1.0  0.4591  0.51785  0.8685399999999999  1.0000
  C   C37       1.0  0.2617500000000001  0.5273399999999999  0.8657199999999999  1.0000
  C   C38       1.0  0.17659000000000002  0.4675000000000001  0.86396  1.0000
  C   C39       1.0  0.28479  0.39737999999999996  0.8650199999999999  1.0000
  C   C40       1.0  0.48243999999999976  0.3893  0.86747  1.0000
  C   C41       1.0  0.56934  0.4484  0.8693399999999999  1.0000
  C   C42       1.0  0.18530000000000008  0.33631999999999995  0.86288  1.0000
  C   C43       1.0  0.6159000000000001  0.68677  0.91655  1.0000
  C   C44       1.0  0.8198  0.7205399999999998  0.95899  1.0000
  C   C45       1.0  0.7004699999999995  0.70539  0.9892199999999999  1.0000
  C   C46       1.0  0.74962  0.71687  0.02387  1.0000
  C   C47       1.0  0.9163200000000001  0.74274  0.028859999999999997  1.0000
  C   C48       1.0  0.03742000000000008  0.7556599999999998  0.99826  1.0000
  C   C49       1.0  0.9907300000000002  0.74417  0.9636899999999999  1.0000
  C   C50       1.0  0.96653  0.75563  0.06578  1.0000
  C   C51       1.0  0.7812799999999996  0.67789  0.85285  1.0000
  C   C52       1.0  0.8895600000000004  0.69208  0.7900899999999997  1.0000
  C   C53       1.0  0.08158  0.68279  0.7972  1.0000
  C   C54       1.0  0.2193500000000001  0.69394  0.7695699999999999  1.0000
  C   C55       1.0  0.1679099999999998  0.71492  0.73489  1.0000
  C   C56       1.0  0.9738900000000001  0.72446  0.7284  1.0000
  C   C57       1.0  0.83559  0.71284  0.75556  1.0000
  C   C58       1.0  0.31499000000000016  0.72619  0.7055299999999998  1.0000
  C   C59       1.0  0.4997100000000001  0.7742899999999998  0.8673  1.0000
  C   C60       1.0  0.20240000000000005  0.85796  0.8774299999999999  1.0000
  C   C61       1.0  0.28628999999999977  0.91452  0.86262  1.0000
  C   C62       1.0  0.17394000000000007  0.9827199999999999  0.86045  1.0000
  C   C63       1.0  0.9785000000000003  0.99589  0.8723299999999999  1.0000
  C   C64       1.0  0.89513  0.93848  0.88649  1.0000
  C   C65       1.0  0.005810000000000062  0.8700599999999998  0.88884  1.0000
  C   C66       1.0  0.87056  0.07101  0.8699899999999998  1.0000
  C   C67       1.0  0.03508  0.80485  0.37579  1.0000
  C   C68       1.0  0.8513399999999999  0.8553  0.36666  1.0000
  C   C69       1.0  0.7247200000000003  0.9828199999999999  0.36850999999999995  1.0000
  C   C70       1.0  0.5371000000000001  0.97278  0.36593  1.0000
  C   C71       1.0  0.39133  0.03228999999999999  0.3641099999999999  1.0000
  C   C72       1.0  0.4284200000000001  0.10264  0.3649399999999999  1.0000
  C   C73       1.0  0.6179  0.11122  0.3671199999999999  1.0000
  C   C74       1.0  0.76468  0.05246  0.36902999999999997  1.0000
  C   C75       1.0  0.26732  0.16352  0.36279  1.0000
  C   C76       1.0  0.05454000000000005  0.81444  0.4163  1.0000
  C   C77       1.0  0.29027  0.78024  0.45889  1.0000
  C   C78       1.0  0.1545199999999999  0.79547  0.4889  1.0000
  C   C79       1.0  0.21395000000000006  0.7845  0.52365  1.0000
  C   C80       1.0  0.40621  0.75908  0.52888  1.0000
  C   C81       1.0  0.5414399999999999  0.74608  0.49849  1.0000
  C   C82       1.0  0.48460000000000003  0.75715  0.46383  1.0000
  C   C83       1.0  0.4680400000000001  0.74644  0.56586  1.0000
  C   C84       1.0  0.21081000000000003  0.8228599999999999  0.3527199999999999  1.0000
  C   C85       1.0  0.3367499999999999  0.80801  0.29005  1.0000
  C   C86       1.0  0.5192200000000001  0.8177  0.2971399999999999  1.0000
  C   C87       1.0  0.66837  0.80655  0.26951  1.0000
  C   C88       1.0  0.6383900000000001  0.78515  0.23487  1.0000
  C   C89       1.0  0.4539600000000001  0.77531  0.22845  1.0000
  C   C90       1.0  0.30401999999999996  0.78691  0.25555999999999995  1.0000
  C   C91       1.0  0.7958200000000001  0.77378  0.2053  1.0000
  C   C92       1.0  0.02338000000000004  0.72657  0.36741999999999997  1.0000
  C   C93       1.0  0.8109600000000001  0.64233  0.37852  1.0000
  C   C94       1.0  0.9504  0.58589  0.36343  1.0000
  C   C95       1.0  0.9057700000000001  0.5177  0.36108999999999997  1.0000
  C   C96       1.0  0.72349  0.50436  0.3730099999999999  1.0000
  C   C97       1.0  0.5836  0.5618199999999999  0.38734  1.0000
  C   C98       1.0  0.6263199999999999  0.6302199999999999  0.38988  1.0000
  C   C99       1.0  0.6889599999999999  0.42933  0.37023  1.0000
  C   C100      1.0  0.21777000000000002  0.19517999999999996  0.6241999999999999  1.0000
  C   C101      1.0  0.07597  0.14441999999999997  0.63329  1.0000
  C   C102      1.0  0.07869000000000001  0.01706  0.63134  1.0000
  C   C103      1.0  0.8782599999999999  0.0273  0.63408  1.0000
  C   C104      1.0  0.78923  0.9679  0.63584  1.0000
  C   C105      1.0  0.8967299999999999  0.89745  0.63483  1.0000
  C   C106      1.0  0.09698000000000014  0.8886999999999999  0.6323999999999999  1.0000
  C   C107      1.0  0.18776000000000004  0.94729  0.63054  1.0000
  C   C108      1.0  0.79409  0.8365999999999999  0.63705  1.0000
  C   C109      1.0  0.28741  0.18562  0.58368  1.0000
  C   C110      1.0  0.5311200000000001  0.22022  0.541  1.0000
  C   C111      1.0  0.44051000000000007  0.20475  0.51106  1.0000
  C   C112      1.0  0.52302  0.21587  0.47626  1.0000
  C   C113      1.0  0.69496  0.2415  0.47079999999999994  1.0000
  C   C114      1.0  0.7867699999999999  0.25495  0.5011  1.0000
  C   C115      1.0  0.7067  0.24386  0.53585  1.0000
  C   C116      1.0  0.77883  0.25351  0.4335  1.0000
  C   C117      1.0  0.38815  0.17723999999999995  0.64729  1.0000
  C   C118      1.0  0.4359000000000001  0.19196999999999997  0.7099799999999998  1.0000
  C   C119      1.0  0.6351599999999998  0.18232  0.70288  1.0000
  C   C120      1.0  0.7452200000000001  0.19355  0.73051  1.0000
  C   C121      1.0  0.6589900000000001  0.21493999999999994  0.7651299999999998  1.0000
  C   C122      1.0  0.4584199999999999  0.22466999999999998  0.7715999999999997  1.0000
  C   C123      1.0  0.34742  0.21302  0.74447  1.0000
  C   C124      1.0  0.7764300000000001  0.22634  0.79449  1.0000
  C   C125      1.0  0.11909000000000003  0.2734  0.63255  1.0000
  C   C126      1.0  0.83393  0.35752  0.62147  1.0000
  C   C127      1.0  0.9019600000000001  0.41402999999999995  0.6365199999999998  1.0000
  C   C128      1.0  0.78743  0.4823299999999999  0.63871  1.0000
  C   C129      1.0  0.6038699999999999  0.49573  0.6267399999999999  1.0000
  C   C130      1.0  0.5355100000000002  0.43817  0.61257  1.0000
  C   C131      1.0  0.64864  0.36972  0.6101499999999999  1.0000
  C   C132      1.0  0.49184999999999995  0.57088  0.62916  1.0000
  O   O1        1.0  0.00155999999999997  0.4281  0.12912  1.0000
  O   O2        1.0  0.39932999999999996  0.7321899999999999  0.13459  1.0000
  O   O3        1.0  0.21799000000000002  0.64979  0.14178  1.0000
  O   O4        1.0  0.42097999999999997  0.28537  0.07642  1.0000
  O   O5        1.0  0.96282  0.23089  0.9287999999999998  1.0000
  O   O6        1.0  0.6767999999999995  0.25687  0.90709  1.0000
  O   O7        1.0  0.24663999999999994  0.31768  0.18429999999999996  1.0000
  O   O8        1.0  0.92471  0.27866  0.28927  1.0000
  O   O9        1.0  0.67711  0.25718  0.32612  1.0000
  O   O10       1.0  0.9776199999999999  0.21073  0.11642999999999999  1.0000
  O   O11       1.0  0.94221  0.88212  0.14003999999999997  1.0000
  O   O12       1.0  0.6436300000000001  0.91886  0.12176  1.0000
  O   O13       1.0  0.5564299999999999  0.57296  0.87089  1.0000
  O   O14       1.0  0.2660500000000002  0.26810999999999996  0.8653999999999997  1.0000
  O   O15       1.0  0.009120000000000059  0.35018  0.85819  1.0000
  O   O16       1.0  0.7824800000000001  0.71473  0.9235699999999998  1.0000
  O   O17       1.0  0.12400000000000003  0.7715799999999999  0.071  1.0000
  O   O18       1.0  0.8413200000000001  0.74661  0.09292  1.0000
  O   O19       1.0  0.74322  0.68226  0.8153799999999999  1.0000
  O   O20       1.0  0.4872200000000001  0.72145  0.7105799999999999  1.0000
  O   O21       1.0  0.25757000000000013  0.74274  0.6732399999999998  1.0000
  O   O22       1.0  0.30195  0.78914  0.8819199999999999  1.0000
  O   O23       1.0  0.96952  0.1181  0.8602399999999998  1.0000
  O   O24       1.0  0.6865700000000001  0.08207  0.8779399999999999  1.0000
  O   O25       1.0  0.87797  0.9281099999999999  0.3709  1.0000
  O   O26       1.0  0.2793999999999999  0.23186999999999997  0.36523999999999995  1.0000
  O   O27       1.0  0.10505000000000002  0.14953999999999998  0.35819  1.0000
  O   O28       1.0  0.24833000000000002  0.78553  0.42342  1.0000
  O   O29       1.0  0.64088  0.72919  0.5711499999999998  1.0000
  O   O30       1.0  0.33337999999999995  0.75681  0.59292  1.0000
  O   O31       1.0  0.17997000000000007  0.8177  0.3151599999999999  1.0000
  O   O32       1.0  0.9640300000000002  0.77869  0.20981  1.0000
  O   O33       1.0  0.75296  0.75704  0.17323  1.0000
  O   O34       1.0  0.8432899999999997  0.71092  0.3835  1.0000
  O   O35       1.0  0.8335899999999998  0.3820999999999999  0.35997  1.0000
  O   O36       1.0  0.5161  0.41826999999999986  0.37823  1.0000
  O   O37       1.0  0.18062999999999999  0.07167  0.62912  1.0000
  O   O38       1.0  0.87662  0.76826  0.6346  1.0000
  O   O39       1.0  0.61304  0.8506699999999999  0.64179  1.0000
  O   O40       1.0  0.45925999999999995  0.21474  0.57651  1.0000
  O   O41       1.0  0.9409699999999999  0.26992999999999995  0.42735999999999996  1.0000
  O   O42       1.0  0.6777700000000001  0.24338999999999997  0.40707999999999994  1.0000
  O   O43       1.0  0.31404000000000004  0.18228999999999998  0.6848399999999999  1.0000
  O   O44       1.0  0.95378  0.22154  0.78951  1.0000
  O   O45       1.0  0.6861900000000001  0.24297  0.8267299999999999  1.0000
  O   O46       1.0  0.9395700000000001  0.28892  0.61648  1.0000
  O   O47       1.0  0.58046  0.61834  0.63855  1.0000
  O   O48       1.0  0.31507  0.58186  0.62171  1.0000
