data_image0
_chemical_formula_structural       Cd8H124C140N16O24
_chemical_formula_sum              "Cd8 H124 C140 N16 O24"
_cell_length_a       10.06884
_cell_length_b       14.63504
_cell_length_c       26.43705
_cell_angle_alpha    89.99993000000002
_cell_angle_beta     91.71560999999998
_cell_angle_gamma    90.00223999999999

_space_group_name_H-M_alt    "P 1"
_space_group_IT_number       1

loop_
  _space_group_symop_operation_xyz
  'x, y, z'

loop_
  _atom_site_type_symbol
  _atom_site_label
  _atom_site_symmetry_multiplicity
  _atom_site_fract_x
  _atom_site_fract_y
  _atom_site_fract_z
  _atom_site_occupancy
  Cd  Cd1       1.0  0.7765799999999999  0.87756  0.55505  1.0000
  Cd  Cd2       1.0  0.7666099999999998  0.63441  0.57731  1.0000
  Cd  Cd3       1.0  0.7234399999999999  0.37753  0.94498  1.0000
  Cd  Cd4       1.0  0.73335  0.13439  0.92269  1.0000
  Cd  Cd5       1.0  0.22340999999999997  0.12244000000000002  0.44496  1.0000
  Cd  Cd6       1.0  0.23337  0.36559  0.4227  1.0000
  Cd  Cd7       1.0  0.27655  0.62246  0.05502  1.0000
  Cd  Cd8       1.0  0.2666299999999999  0.86561  0.07731  1.0000
  H   H1        1.0  0.054419999999999996  0.61162  0.5162  1.0000
  H   H2        1.0  0.47929  0.61834  0.50295  1.0000
  H   H3        1.0  0.27713  0.84658  0.56904  1.0000
  H   H4        1.0  0.7885699999999999  0.73377  0.4630399999999999  1.0000
  H   H5        1.0  0.72992  0.72229  0.37103  1.0000
  H   H6        1.0  0.67419  0.01519  0.37015  1.0000
  H   H7        1.0  0.7383899999999999  0.01505  0.46169  1.0000
  H   H8        1.0  0.6238999999999999  0.9295200000000001  0.29325  1.0000
  H   H9        1.0  0.58385  0.81273  0.29997  1.0000
  H   H10       1.0  0.74642  0.82737  0.2347  1.0000
  H   H11       1.0  0.8222599999999999  0.76967  0.28603  1.0000
  H   H12       1.0  0.8510199999999999  0.97608  0.27178  1.0000
  H   H13       1.0  0.94862  0.90704  0.31237  1.0000
  H   H14       1.0  0.99634  0.88775  0.10421  1.0000
  H   H15       1.0  0.84067  0.9068  0.17271  1.0000
  H   H16       1.0  0.17086999999999994  0.8727200000000002  0.27957  1.0000
  H   H17       1.0  0.31515  0.84935  0.20662999999999998  1.0000
  H   H18       1.0  0.56652  0.8807800000000001  0.64396  1.0000
  H   H19       1.0  0.55625  0.9059  0.73732  1.0000
  H   H20       1.0  0.98411  0.88696  0.74499  1.0000
  H   H21       1.0  0.97718  0.86448  0.65118  1.0000
  H   H22       1.0  0.8593499999999998  0.9390600000000001  0.82122  1.0000
  H   H23       1.0  0.68521  0.94999  0.81791  1.0000
  H   H24       1.0  0.66325  0.77806  0.81336  1.0000
  H   H25       1.0  0.83665  0.76749  0.81792  1.0000
  H   H26       1.0  0.6612199999999999  0.85324  0.89872  1.0000
  H   H27       1.0  0.8359599999999999  0.84919  0.9031399999999999  1.0000
  H   H28       1.0  0.9347299999999997  0.53603  0.94325  1.0000
  H   H29       1.0  0.9543999999999999  0.69839  0.91613  1.0000
  H   H30       1.0  0.52542  0.71019  0.9077  1.0000
  H   H31       1.0  0.52286  0.54754  0.93573  1.0000
  H   H32       1.0  0.44558  0.11162  0.9838  1.0000
  H   H33       1.0  0.020709999999999985  0.11831  0.99705  1.0000
  H   H34       1.0  0.22284  0.34656000000000003  0.93097  1.0000
  H   H35       1.0  0.7114299999999999  0.23376  0.03697  1.0000
  H   H36       1.0  0.7700799999999999  0.22229  0.12898  1.0000
  H   H37       1.0  0.82579  0.51519  0.12986  1.0000
  H   H38       1.0  0.7615999999999999  0.51505  0.03833  1.0000
  H   H39       1.0  0.87608  0.42952  0.20676999999999998  1.0000
  H   H40       1.0  0.91613  0.31273  0.20004  1.0000
  H   H41       1.0  0.7535499999999999  0.32736  0.2653  1.0000
  H   H42       1.0  0.6777099999999998  0.26966  0.21398  1.0000
  H   H43       1.0  0.64896  0.47607  0.22822  1.0000
  H   H44       1.0  0.55136  0.40703000000000006  0.18763  1.0000
  H   H45       1.0  0.50368  0.38776000000000005  0.39579999999999993  1.0000
  H   H46       1.0  0.65933  0.4068  0.32729  1.0000
  H   H47       1.0  0.32910999999999996  0.37271000000000004  0.22044  1.0000
  H   H48       1.0  0.18483999999999998  0.34935  0.29338  1.0000
  H   H49       1.0  0.93345  0.38078  0.85606  1.0000
  H   H50       1.0  0.94373  0.40589  0.76269  1.0000
  H   H51       1.0  0.51586  0.38695  0.75503  1.0000
  H   H52       1.0  0.5227999999999999  0.36448  0.84884  1.0000
  H   H53       1.0  0.64062  0.43905  0.6787899999999999  1.0000
  H   H54       1.0  0.81476  0.44998  0.6821  1.0000
  H   H55       1.0  0.8367199999999999  0.27806  0.6866499999999999  1.0000
  H   H56       1.0  0.6633299999999998  0.26748  0.6820899999999998  1.0000
  H   H57       1.0  0.83875  0.35325  0.6013  1.0000
  H   H58       1.0  0.66401  0.34919000000000006  0.59687  1.0000
  H   H59       1.0  0.5652499999999999  0.03603  0.55675  1.0000
  H   H60       1.0  0.54558  0.19839  0.58387  1.0000
  H   H61       1.0  0.97456  0.2102  0.5923  1.0000
  H   H62       1.0  0.9771099999999999  0.04756  0.56428  1.0000
  H   H63       1.0  0.94557  0.38838  0.4838  1.0000
  H   H64       1.0  0.52069  0.38165  0.49705  1.0000
  H   H65       1.0  0.72285  0.15342  0.43097  1.0000
  H   H66       1.0  0.21140999999999996  0.26623  0.53696  1.0000
  H   H67       1.0  0.27007  0.27770000000000006  0.62897  1.0000
  H   H68       1.0  0.3257899999999999  0.98481  0.62985  1.0000
  H   H69       1.0  0.2616  0.9849500000000001  0.53832  1.0000
  H   H70       1.0  0.37608  0.07047  0.70676  1.0000
  H   H71       1.0  0.41614  0.18727  0.70003  1.0000
  H   H72       1.0  0.25356  0.17263  0.7653  1.0000
  H   H73       1.0  0.17771999999999993  0.23033  0.71397  1.0000
  H   H74       1.0  0.14896  0.02392  0.72822  1.0000
  H   H75       1.0  0.05137  0.09295  0.68763  1.0000
  H   H76       1.0  0.003649999999999997  0.11225  0.89579  1.0000
  H   H77       1.0  0.15931  0.0932  0.82729  1.0000
  H   H78       1.0  0.82911  0.12728  0.72043  1.0000
  H   H79       1.0  0.68484  0.15065000000000003  0.79337  1.0000
  H   H80       1.0  0.4334599999999999  0.11921  0.35604  1.0000
  H   H81       1.0  0.44373  0.0941  0.26268  1.0000
  H   H82       1.0  0.01588  0.11303  0.25502  1.0000
  H   H83       1.0  0.022809999999999993  0.13552  0.34882  1.0000
  H   H84       1.0  0.14062999999999998  0.06093  0.17878  1.0000
  H   H85       1.0  0.31477  0.05001  0.18209  1.0000
  H   H86       1.0  0.33673  0.22193  0.18664  1.0000
  H   H87       1.0  0.16334  0.2325  0.18209  1.0000
  H   H88       1.0  0.33876  0.14676  0.10129  1.0000
  H   H89       1.0  0.16402  0.15081  0.09686  1.0000
  H   H90       1.0  0.06526  0.46397  0.05675  1.0000
  H   H91       1.0  0.04559  0.30161  0.08386999999999999  1.0000
  H   H92       1.0  0.47456  0.28981  0.0923  1.0000
  H   H93       1.0  0.47712  0.45246  0.06427  1.0000
  H   H94       1.0  0.5544  0.88838  0.01621  1.0000
  H   H95       1.0  0.9792699999999999  0.88169  0.00295  1.0000
  H   H96       1.0  0.77714  0.65343  0.06903  1.0000
  H   H97       1.0  0.28855  0.76624  0.96303  1.0000
  H   H98       1.0  0.2299  0.7777  0.87102  1.0000
  H   H99       1.0  0.17419999999999994  0.48481  0.87014  1.0000
  H   H100      1.0  0.23838999999999996  0.48495  0.9616799999999999  1.0000
  H   H101      1.0  0.12389999999999998  0.57047  0.79323  1.0000
  H   H102      1.0  0.08384999999999995  0.68727  0.79996  1.0000
  H   H103      1.0  0.24643999999999996  0.67263  0.7347  1.0000
  H   H104      1.0  0.32226999999999995  0.73034  0.78602  1.0000
  H   H105      1.0  0.35102  0.52392  0.77178  1.0000
  H   H106      1.0  0.44862  0.59297  0.81237  1.0000
  H   H107      1.0  0.49631  0.61224  0.6042  1.0000
  H   H108      1.0  0.3406599999999999  0.5932  0.67271  1.0000
  H   H109      1.0  0.67088  0.62729  0.77956  1.0000
  H   H110      1.0  0.81514  0.65065  0.70662  1.0000
  H   H111      1.0  0.06653  0.6192100000000001  0.14395  1.0000
  H   H112      1.0  0.05626  0.59411  0.23731  1.0000
  H   H113      1.0  0.48412  0.61304  0.24497  1.0000
  H   H114      1.0  0.4771899999999999  0.63552  0.15117  1.0000
  H   H115      1.0  0.35935999999999996  0.56094  0.32121  1.0000
  H   H116      1.0  0.18521999999999997  0.55001  0.3179  1.0000
  H   H117      1.0  0.16326  0.72193  0.31336  1.0000
  H   H118      1.0  0.33666  0.73251  0.31790999999999997  1.0000
  H   H119      1.0  0.16123  0.64674  0.3987  1.0000
  H   H120      1.0  0.33596999999999994  0.65081  0.40313  1.0000
  H   H121      1.0  0.43473  0.96397  0.4432499999999999  1.0000
  H   H122      1.0  0.45439999999999997  0.8016100000000003  0.41613  1.0000
  H   H123      1.0  0.025429999999999994  0.78979  0.4077  1.0000
  H   H124      1.0  0.02287  0.9524400000000001  0.43572  1.0000
  C   C1        1.0  0.15258999999999998  0.73437  0.54469  1.0000
  C   C2        1.0  0.14872  0.6466  0.52304  1.0000
  C   C3        1.0  0.26698  0.60619  0.50736  1.0000
  C   C4        1.0  0.38899999999999996  0.65108  0.51533  1.0000
  C   C5        1.0  0.39355999999999997  0.73718  0.53872  1.0000
  C   C6        1.0  0.27471999999999996  0.77865  0.55256  1.0000
  C   C7        1.0  0.02852  0.78495  0.5553  1.0000
  C   C8        1.0  0.26345999999999997  0.51929  0.47786  1.0000
  C   C9        1.0  0.52083  0.78759  0.54674  1.0000
  C   C10       1.0  0.76393  0.79443  0.44083  1.0000
  C   C11       1.0  0.73115  0.78878  0.38955  1.0000
  C   C12       1.0  0.69758  0.86844  0.36206  1.0000
  C   C13       1.0  0.7004399999999997  0.95106  0.38879  1.0000
  C   C14       1.0  0.73518  0.9517  0.44014999999999993  1.0000
  C   C15       1.0  0.66355  0.86336  0.3063699999999999  1.0000
  C   C16       1.0  0.7826  0.83642  0.274  1.0000
  C   C17       1.0  0.8957099999999999  0.90753  0.27542  1.0000
  C   C18       1.0  0.03144999999999999  0.88324  0.1434  1.0000
  C   C19       1.0  0.94516  0.8952600000000001  0.18238  1.0000
  C   C20       1.0  0.9910499999999999  0.89287  0.23337999999999998  1.0000
  C   C21       1.0  0.1278  0.87567  0.24132999999999993  1.0000
  C   C22       1.0  0.20976  0.86309  0.20061  1.0000
  C   C23       1.0  0.6561599999999999  0.88296  0.66799  1.0000
  C   C24       1.0  0.65197  0.89731  0.71979  1.0000
  C   C25       1.0  0.7698899999999996  0.90014  0.7496  1.0000
  C   C26       1.0  0.8892399999999999  0.8864800000000002  0.72408  1.0000
  C   C27       1.0  0.88641  0.87303  0.67209  1.0000
  C   C28       1.0  0.7680199999999999  0.9067100000000002  0.8061199999999998  1.0000
  C   C29       1.0  0.7533599999999998  0.81076  0.82939  1.0000
  C   C30       1.0  0.7480999999999999  0.81333  0.88754  1.0000
  C   C31       1.0  0.8469099999999999  0.57732  0.93483  1.0000
  C   C32       1.0  0.85665  0.66763  0.91942  1.0000
  C   C33       1.0  0.7408799999999999  0.71836  0.90849  1.0000
  C   C34       1.0  0.61861  0.67419  0.91491  1.0000
  C   C35       1.0  0.61596  0.58371  0.9306399999999999  1.0000
  C   C36       1.0  0.3474  0.23435  0.9553099999999999  1.0000
  C   C37       1.0  0.35128  0.14659  0.97696  1.0000
  C   C38       1.0  0.23303  0.10618  0.99265  1.0000
  C   C39       1.0  0.11100999999999998  0.15105  0.98467  1.0000
  C   C40       1.0  0.10644999999999999  0.23714  0.96128  1.0000
  C   C41       1.0  0.22527  0.27863  0.94744  1.0000
  C   C42       1.0  0.47147999999999995  0.28495  0.9446999999999998  1.0000
  C   C43       1.0  0.23653  0.01929  0.02215  1.0000
  C   C44       1.0  0.9791499999999993  0.2875  0.95327  1.0000
  C   C45       1.0  0.7360699999999998  0.29443  0.05918  1.0000
  C   C46       1.0  0.7688499999999999  0.28877  0.11046  1.0000
  C   C47       1.0  0.8024099999999998  0.36844  0.13795  1.0000
  C   C48       1.0  0.79954  0.45106  0.11122  1.0000
  C   C49       1.0  0.76482  0.4517  0.05986  1.0000
  C   C50       1.0  0.8364299999999999  0.3633600000000001  0.19364  1.0000
  C   C51       1.0  0.7173799999999999  0.33641  0.22601  1.0000
  C   C52       1.0  0.60427  0.40752  0.22459  1.0000
  C   C53       1.0  0.46854999999999997  0.38324  0.35661  1.0000
  C   C54       1.0  0.55483  0.39526  0.31762999999999997  1.0000
  C   C55       1.0  0.50894  0.39286  0.26663  1.0000
  C   C56       1.0  0.37218000000000007  0.37566  0.25868  1.0000
  C   C57       1.0  0.29023999999999994  0.36308  0.2994  1.0000
  C   C58       1.0  0.8438099999999998  0.3829600000000001  0.83203  1.0000
  C   C59       1.0  0.84801  0.39730000000000004  0.78022  1.0000
  C   C60       1.0  0.7300799999999998  0.40013  0.7504099999999999  1.0000
  C   C61       1.0  0.61074  0.38648  0.77593  1.0000
  C   C62       1.0  0.61356  0.37303  0.82793  1.0000
  C   C63       1.0  0.7319599999999998  0.40670000000000006  0.6938999999999999  1.0000
  C   C64       1.0  0.7466099999999998  0.31075  0.6706199999999999  1.0000
  C   C65       1.0  0.75187  0.31334  0.6124699999999998  1.0000
  C   C66       1.0  0.6530599999999999  0.07732  0.56518  1.0000
  C   C67       1.0  0.64333  0.16764  0.58058  1.0000
  C   C68       1.0  0.7590999999999998  0.21837  0.59152  1.0000
  C   C69       1.0  0.88137  0.1742  0.5851  1.0000
  C   C70       1.0  0.8840099999999999  0.08373  0.56937  1.0000
  C   C71       1.0  0.8473899999999998  0.26563  0.45532  1.0000
  C   C72       1.0  0.85127  0.3534  0.47695999999999994  1.0000
  C   C73       1.0  0.7330099999999999  0.3938  0.4926499999999999  1.0000
  C   C74       1.0  0.61099  0.34891  0.48467  1.0000
  C   C75       1.0  0.6064299999999998  0.26281  0.46127999999999997  1.0000
  C   C76       1.0  0.72526  0.22134  0.44744  1.0000
  C   C77       1.0  0.9714699999999998  0.21505  0.4447  1.0000
  C   C78       1.0  0.73652  0.48071  0.52214  1.0000
  C   C79       1.0  0.47914999999999996  0.21241000000000004  0.45327  1.0000
  C   C80       1.0  0.23605  0.20556  0.55917  1.0000
  C   C81       1.0  0.26884  0.21122  0.61046  1.0000
  C   C82       1.0  0.30239999999999995  0.13156  0.63794  1.0000
  C   C83       1.0  0.29954  0.04894  0.61121  1.0000
  C   C84       1.0  0.26480999999999993  0.04829  0.55985  1.0000
  C   C85       1.0  0.33643  0.13663  0.6936299999999999  1.0000
  C   C86       1.0  0.21738999999999997  0.16358  0.7260099999999998  1.0000
  C   C87       1.0  0.10426999999999999  0.09247  0.72458  1.0000
  C   C88       1.0  0.96853  0.11676  0.8566  1.0000
  C   C89       1.0  0.05482  0.10474  0.81762  1.0000
  C   C90       1.0  0.008940000000000002  0.10713000000000002  0.76663  1.0000
  C   C91       1.0  0.87218  0.12433  0.75867  1.0000
  C   C92       1.0  0.79023  0.13691  0.79939  1.0000
  C   C93       1.0  0.34381999999999996  0.11704  0.33201  1.0000
  C   C94       1.0  0.34801  0.10269  0.28021  1.0000
  C   C95       1.0  0.23009  0.09985  0.2504  1.0000
  C   C96       1.0  0.11075  0.11351  0.27592  1.0000
  C   C97       1.0  0.11357  0.12696  0.32792  1.0000
  C   C98       1.0  0.23196999999999995  0.09328000000000002  0.19389  1.0000
  C   C99       1.0  0.24661999999999998  0.18924  0.17061  1.0000
  C   C100      1.0  0.25188  0.18667000000000003  0.11246  1.0000
  C   C101      1.0  0.15306999999999998  0.42268  0.06517  1.0000
  C   C102      1.0  0.14333999999999997  0.33236000000000004  0.08058  1.0000
  C   C103      1.0  0.2591  0.28163  0.09151999999999998  1.0000
  C   C104      1.0  0.38138  0.32581  0.08508999999999999  1.0000
  C   C105      1.0  0.38402  0.41628  0.06936  1.0000
  C   C106      1.0  0.65258  0.76564  0.04469  1.0000
  C   C107      1.0  0.6486999999999999  0.85341  0.023049999999999998  1.0000
  C   C108      1.0  0.76696  0.89382  0.00735  1.0000
  C   C109      1.0  0.8889799999999999  0.84894  0.01533  1.0000
  C   C110      1.0  0.89354  0.7628500000000003  0.03872  1.0000
  C   C111      1.0  0.77472  0.72136  0.05257  1.0000
  C   C112      1.0  0.52851  0.7150500000000001  0.0553  1.0000
  C   C113      1.0  0.76345  0.98071  0.9778599999999998  1.0000
  C   C114      1.0  0.020829999999999998  0.71249  0.04674  1.0000
  C   C115      1.0  0.26391  0.70557  0.9408199999999998  1.0000
  C   C116      1.0  0.23113999999999996  0.71122  0.88954  1.0000
  C   C117      1.0  0.19756999999999994  0.63156  0.8620499999999999  1.0000
  C   C118      1.0  0.20043999999999998  0.54894  0.88879  1.0000
  C   C119      1.0  0.23517  0.5483  0.94015  1.0000
  C   C120      1.0  0.16354999999999992  0.63663  0.80636  1.0000
  C   C121      1.0  0.2825999999999999  0.66358  0.77399  1.0000
  C   C122      1.0  0.39571  0.59248  0.77542  1.0000
  C   C123      1.0  0.53143  0.61675  0.64339  1.0000
  C   C124      1.0  0.44514999999999993  0.60474  0.6823799999999999  1.0000
  C   C125      1.0  0.49105  0.60713  0.73337  1.0000
  C   C126      1.0  0.6277999999999999  0.62433  0.74132  1.0000
  C   C127      1.0  0.70975  0.63691  0.7006  1.0000
  C   C128      1.0  0.15616999999999995  0.61704  0.16798  1.0000
  C   C129      1.0  0.15198  0.60269  0.21978  1.0000
  C   C130      1.0  0.2699  0.5998600000000002  0.24959  1.0000
  C   C131      1.0  0.38925  0.61352  0.22407  1.0000
  C   C132      1.0  0.38642  0.62697  0.17207  1.0000
  C   C133      1.0  0.26803  0.59329  0.3060999999999999  1.0000
  C   C134      1.0  0.25337  0.68924  0.32937999999999995  1.0000
  C   C135      1.0  0.24811  0.68666  0.3875299999999999  1.0000
  C   C136      1.0  0.3469199999999999  0.9226700000000001  0.43481999999999993  1.0000
  C   C137      1.0  0.3566499999999999  0.83236  0.41941999999999996  1.0000
  C   C138      1.0  0.24089  0.78162  0.40848  1.0000
  C   C139      1.0  0.11860999999999997  0.8257900000000001  0.41491  1.0000
  C   C140      1.0  0.11596999999999999  0.91627  0.43064  1.0000
  N   N1        1.0  0.7667899999999999  0.87476  0.46618  1.0000
  N   N2        1.0  0.16457  0.86764  0.15143999999999996  1.0000
  N   N3        1.0  0.77201  0.87093  0.64371  1.0000
  N   N4        1.0  0.7284  0.53521  0.9403  1.0000
  N   N5        1.0  0.73321  0.37476  0.03383  1.0000
  N   N6        1.0  0.33544  0.36763  0.34857  1.0000
  N   N7        1.0  0.72797  0.37092  0.8563  1.0000
  N   N8        1.0  0.77157  0.03522  0.55971  1.0000
  N   N9        1.0  0.23319  0.12523  0.53382  1.0000
  N   N10       1.0  0.83541  0.13236  0.84856  1.0000
  N   N11       1.0  0.22798  0.12907  0.35629  1.0000
  N   N12       1.0  0.27158  0.46479  0.0597  1.0000
  N   N13       1.0  0.26677  0.62524  0.96618  1.0000
  N   N14       1.0  0.66455  0.63236  0.65143  1.0000
  N   N15       1.0  0.2720099999999999  0.62907  0.1437  1.0000
  N   N16       1.0  0.22840999999999997  0.9647700000000001  0.44029  1.0000
  O   O1        1.0  0.0327  0.87006  0.56341  1.0000
  O   O2        1.0  0.91581  0.7412000000000001  0.55328  1.0000
  O   O3        1.0  0.15954  0.46786  0.47972999999999993  1.0000
  O   O4        1.0  0.36065  0.49987  0.4500699999999999  1.0000
  O   O5        1.0  0.51926  0.87163  0.55799  1.0000
  O   O6        1.0  0.63193  0.74466  0.54033  1.0000
  O   O7        1.0  0.46727999999999986  0.37006  0.9366  1.0000
  O   O8        1.0  0.58418  0.24121  0.94673  1.0000
  O   O9        1.0  0.34045  0.96786  0.02027  1.0000
  O   O10       1.0  0.13933  0.99987  0.04993  1.0000
  O   O11       1.0  0.9806899999999998  0.37155  0.9420099999999999  1.0000
  O   O12       1.0  0.86807  0.24456  0.9596799999999999  1.0000
  O   O13       1.0  0.96728  0.12993  0.43658999999999987  1.0000
  O   O14       1.0  0.08417  0.25879  0.44672  1.0000
  O   O15       1.0  0.84044  0.53214  0.52027  1.0000
  O   O16       1.0  0.63933  0.50013  0.54993  1.0000
  O   O17       1.0  0.48073  0.12837  0.44201  1.0000
  O   O18       1.0  0.36805  0.25534  0.45966999999999997  1.0000
  O   O19       1.0  0.5327  0.62994  0.06341  1.0000
  O   O20       1.0  0.41579999999999995  0.75879  0.053279999999999994  1.0000
  O   O21       1.0  0.65954  0.03214  0.97973  1.0000
  O   O22       1.0  0.8606499999999999  0.00012  0.95007  1.0000
  O   O23       1.0  0.01929  0.62845  0.05799  1.0000
  O   O24       1.0  0.13191  0.75544  0.04032  1.0000
