data_image0
_chemical_formula_structural       Pr4Co4H72C144N24O48
_chemical_formula_sum              "Pr4 Co4 H72 C144 N24 O48"
_cell_length_a       18.28322
_cell_length_b       18.28161
_cell_length_c       21.74494
_cell_angle_alpha    110.83183999999999
_cell_angle_beta     110.62128
_cell_angle_gamma    98.93508

_symmetry_space_group_name_H-M    'P 1'
_symmetry_Int_Tables_number       1

loop_
  _symmetry_equiv_pos_as_xyz
  'x,y,z'

loop_
  _atom_site_type_symbol
  _atom_site_label
  _atom_site_symmetry_multiplicity
  _atom_site_fract_x
  _atom_site_fract_y
  _atom_site_fract_z
  _atom_site_occupancy
  Pr  Pr1       1.0  0.8519399999999999  0.10187000000000002  0.75009  1.0000
  Pr  Pr2       1.0  0.39809  0.64811  0.75005  1.0000
  Pr  Pr3       1.0  0.14756000000000002  0.8991200000000001  0.24977000000000002  1.0000
  Pr  Pr4       1.0  0.6033699999999999  0.35330000000000006  0.25023  1.0000
  Co  Co1       1.0  0.8915400000000002  0.60762  0.7496400000000002  1.0000
  Co  Co2       1.0  0.35834  0.14195000000000002  0.75032  1.0000
  Co  Co3       1.0  0.10805999999999998  0.39155999999999996  0.24913  1.0000
  Co  Co4       1.0  0.64245  0.8590800000000002  0.2502  1.0000
  H   H1        1.0  0.9658999999999999  0.5523700000000002  0.86822  1.0000
  H   H2        1.0  0.9632100000000002  0.4117800000000001  0.8638600000000002  1.0000
  H   H3        1.0  0.74158  0.32735  0.54241  1.0000
  H   H4        1.0  0.8037000000000002  0.3016300000000002  0.6342800000000002  1.0000
  H   H5        1.0  0.71588  0.5197400000000001  0.47656000000000004  1.0000
  H   H6        1.0  0.80453  0.6243600000000001  0.6084900000000002  1.0000
  H   H7        1.0  0.7687799999999998  0.50446  0.77477  1.0000
  H   H8        1.0  0.63507  0.51448  0.78117  1.0000
  H   H9        1.0  0.6691600000000001  0.7320800000000001  0.7482000000000002  1.0000
  H   H10       1.0  0.40238  0.3159100000000002  0.8687800000000002  1.0000
  H   H11       1.0  0.40175999999999995  0.45232999999999995  0.86455  1.0000
  H   H12       1.0  0.30175  0.21423999999999999  0.54258  1.0000
  H   H13       1.0  0.33252999999999994  0.33240000000000003  0.63472  1.0000
  H   H14       1.0  0.2616  0.95611  0.47717  1.0000
  H   H15       1.0  0.3046199999999999  0.9838500000000001  0.60934  1.0000
  H   H16       1.0  0.5072100000000002  0.2691000000000001  0.7750300000000002  1.0000
  H   H17       1.0  0.6463200000000001  0.26338  0.77991  1.0000
  H   H18       1.0  0.57776  0.013580000000000089  0.7482400000000002  1.0000
  H   H19       1.0  0.94761  0.53365  0.63097  1.0000
  H   H20       1.0  0.08820999999999997  0.53718  0.63522  1.0000
  H   H21       1.0  0.17134000000000005  0.7583600000000003  0.9567900000000001  1.0000
  H   H22       1.0  0.19731000000000012  0.6971600000000001  0.8649600000000002  1.0000
  H   H23       1.0  0.9792299999999999  0.7842600000000002  0.023100000000000006  1.0000
  H   H24       1.0  0.8747699999999999  0.6952000000000003  0.8912100000000001  1.0000
  H   H25       1.0  0.9941  0.7312900000000001  0.7251000000000002  1.0000
  H   H26       1.0  0.98286  0.86449  0.71829  1.0000
  H   H27       1.0  0.76538  0.8289300000000002  0.75152  1.0000
  H   H28       1.0  0.18478  0.09854000000000004  0.63238  1.0000
  H   H29       1.0  0.048250000000000084  0.09793000000000009  0.6368600000000001  1.0000
  H   H30       1.0  0.28618000000000005  0.19951000000000013  0.9586300000000001  1.0000
  H   H31       1.0  0.16769000000000014  0.16579000000000016  0.8662600000000003  1.0000
  H   H32       1.0  0.5438  0.23927  0.023180000000000006  1.0000
  H   H33       1.0  0.51605  0.19572999999999993  0.89091  1.0000
  H   H34       1.0  0.23037000000000019  0.99391  0.7252300000000003  1.0000
  H   H35       1.0  0.23397000000000004  0.8540700000000001  0.7189700000000001  1.0000
  H   H36       1.0  0.48461000000000004  0.9212500000000001  0.7521300000000002  1.0000
  H   H37       1.0  0.033490000000000006  0.4480700000000001  0.13122  1.0000
  H   H38       1.0  0.03797000000000003  0.5891600000000002  0.13624  1.0000
  H   H39       1.0  0.25869  0.67125  0.4570600000000001  1.0000
  H   H40       1.0  0.19786  0.6977  0.3656900000000001  1.0000
  H   H41       1.0  0.28381  0.47830000000000006  0.52191  1.0000
  H   H42       1.0  0.19464999999999996  0.37391  0.38983  1.0000
  H   H43       1.0  0.23102000000000006  0.49526  0.22435000000000005  1.0000
  H   H44       1.0  0.36539  0.48603  0.21914000000000006  1.0000
  H   H45       1.0  0.33112  0.26823  0.25182  1.0000
  H   H46       1.0  0.59902  0.68477  0.13199  1.0000
  H   H47       1.0  0.59833  0.54833  0.13642000000000004  1.0000
  H   H48       1.0  0.69769  0.7870100000000001  0.45794  1.0000
  H   H49       1.0  0.66774  0.66908  0.36626  1.0000
  H   H50       1.0  0.7374399999999999  0.04491000000000003  0.52283  1.0000
  H   H51       1.0  0.6956699999999998  0.017290000000000052  0.3908200000000001  1.0000
  H   H52       1.0  0.49507000000000007  0.7306400000000001  0.22549  1.0000
  H   H53       1.0  0.35499  0.73383  0.21897  1.0000
  H   H54       1.0  0.42094  0.9842800000000002  0.25153  1.0000
  H   H55       1.0  0.05217999999999997  0.4657  0.36786  1.0000
  H   H56       1.0  0.91142  0.46284  0.3633100000000001  1.0000
  H   H57       1.0  0.82842  0.24077000000000004  0.04239  1.0000
  H   H58       1.0  0.80261  0.30359  0.13354000000000005  1.0000
  H   H59       1.0  0.020260000000000004  0.21473000000000003  0.97566  1.0000
  H   H60       1.0  0.12495999999999999  0.30374  0.10777000000000003  1.0000
  H   H61       1.0  0.0056600000000000044  0.26732000000000006  0.27366  1.0000
  H   H62       1.0  0.017670000000000057  0.13414000000000006  0.28049000000000013  1.0000
  H   H63       1.0  0.23618999999999998  0.17216000000000004  0.24911000000000003  1.0000
  H   H64       1.0  0.8162799999999999  0.90311  0.3683000000000001  1.0000
  H   H65       1.0  0.9522199999999994  0.90161  0.36342  1.0000
  H   H66       1.0  0.7146899999999999  0.80175  0.0421  1.0000
  H   H67       1.0  0.83236  0.8323400000000001  0.13379  1.0000
  H   H68       1.0  0.45698999999999995  0.76201  0.9773000000000001  1.0000
  H   H69       1.0  0.48456  0.8052600000000002  0.10949  1.0000
  H   H70       1.0  0.76906  0.008600000000000019  0.27493  1.0000
  H   H71       1.0  0.7621999999999999  0.14717  0.27884  1.0000
  H   H72       1.0  0.51292  0.07755000000000005  0.24771000000000007  1.0000
  C   C1        1.0  0.9314100000000002  0.4959500000000002  0.8174000000000002  1.0000
  C   C2        1.0  0.9294700000000001  0.41866000000000014  0.8149400000000002  1.0000
  C   C3        1.0  0.8831999999999999  0.3476500000000001  0.7481700000000002  1.0000
  C   C4        1.0  0.8402899999999998  0.35712  0.68583  1.0000
  C   C5        1.0  0.84536  0.43608  0.69092  1.0000
  C   C6        1.0  0.8055899999999999  0.4534100000000001  0.6289700000000003  1.0000
  C   C7        1.0  0.7559600000000001  0.39317000000000013  0.5573100000000001  1.0000
  C   C8        1.0  0.72338  0.4162  0.50131  1.0000
  C   C9        1.0  0.7407099999999999  0.50061  0.51966  1.0000
  C   C10       1.0  0.78984  0.55846  0.59232  1.0000
  C   C11       1.0  0.87854  0.2619400000000002  0.7432400000000002  1.0000
  C   C12       1.0  0.6720200000000001  0.34885  0.4222500000000001  1.0000
  C   C13       1.0  0.74557  0.55425  0.76986  1.0000
  C   C14       1.0  0.67203  0.5596900000000001  0.77307  1.0000
  C   C15       1.0  0.64346  0.62364  0.76428  1.0000
  C   C16       1.0  0.6918100000000001  0.6825600000000002  0.75539  1.0000
  C   C17       1.0  0.7661499999999999  0.67535  0.75413  1.0000
  C   C18       1.0  0.55956  0.62588  0.76042  1.0000
  C   C19       1.0  0.38667  0.32153  0.81801  1.0000
  C   C20       1.0  0.38665  0.39642  0.81561  1.0000
  C   C21       1.0  0.36676  0.4007000000000001  0.74888  1.0000
  C   C22       1.0  0.34721  0.32877  0.68641  1.0000
  C   C23       1.0  0.34669  0.25479  0.69149  1.0000
  C   C24       1.0  0.32422  0.17527  0.62955  1.0000
  C   C25       1.0  0.30224  0.1635800000000001  0.55783  1.0000
  C   C26       1.0  0.27897000000000005  0.08445000000000008  0.5019500000000002  1.0000
  C   C27       1.0  0.27978  0.018400000000000007  0.52029  1.0000
  C   C28       1.0  0.30314  0.0334700000000001  0.5930400000000002  1.0000
  C   C29       1.0  0.3671499999999999  0.48191000000000006  0.74477  1.0000
  C   C30       1.0  0.2521  0.07295  0.42308  1.0000
  C   C31       1.0  0.52473  0.21392  0.76975  1.0000
  C   C32       1.0  0.60101  0.21064  0.7723  1.0000
  C   C33       1.0  0.62007  0.13753  0.76347  1.0000
  C   C34       1.0  0.56262  0.07044000000000006  0.75524  1.0000
  C   C35       1.0  0.48736999999999997  0.07729999999999997  0.75432  1.0000
  C   C36       1.0  0.6995199999999999  0.1300900000000001  0.7587700000000002  1.0000
  C   C37       1.0  0.0038100000000000855  0.5684400000000001  0.6817900000000001  1.0000
  C   C38       1.0  0.08114000000000011  0.5708300000000001  0.6842100000000002  1.0000
  C   C39       1.0  0.15186  0.6175400000000001  0.7509900000000002  1.0000
  C   C40       1.0  0.14207  0.66027  0.81336  1.0000
  C   C41       1.0  0.0630400000000001  0.65463  0.8082700000000003  1.0000
  C   C42       1.0  0.04548000000000005  0.69414  0.8702800000000002  1.0000
  C   C43       1.0  0.10556999999999997  0.74387  0.9419  1.0000
  C   C44       1.0  0.08263000000000004  0.77684  0.99805  1.0000
  C   C45       1.0  0.99834  0.7592100000000002  0.9799  1.0000
  C   C46       1.0  0.9405799999999999  0.7098300000000003  0.9072400000000002  1.0000
  C   C47       1.0  0.23747999999999997  0.62255  0.75576  1.0000
  C   C48       1.0  0.15022  0.82957  0.07677  1.0000
  C   C49       1.0  0.9439699999999999  0.7540000000000002  0.72982  1.0000
  C   C50       1.0  0.93789  0.8273200000000002  0.7264800000000002  1.0000
  C   C51       1.0  0.8736200000000001  0.8553100000000001  0.7352900000000002  1.0000
  C   C52       1.0  0.81499  0.8065300000000001  0.74415  1.0000
  C   C53       1.0  0.82271  0.73231  0.7453  1.0000
  C   C54       1.0  0.8706399999999999  0.9392100000000001  0.73962  1.0000
  C   C55       1.0  0.17906000000000002  0.11384000000000002  0.6831400000000001  1.0000
  C   C56       1.0  0.10411000000000006  0.11302000000000005  0.6856300000000001  1.0000
  C   C57       1.0  0.09958000000000004  0.13202000000000005  0.7522600000000002  1.0000
  C   C58       1.0  0.17142000000000004  0.15182  0.81463  1.0000
  C   C59       1.0  0.24556  0.1535  0.80953  1.0000
  C   C60       1.0  0.3250100000000001  0.1764100000000001  0.8713900000000002  1.0000
  C   C61       1.0  0.3367899999999999  0.19880000000000012  0.9432600000000001  1.0000
  C   C62       1.0  0.41586  0.22209000000000007  0.99895  1.0000
  C   C63       1.0  0.48163999999999996  0.22109  0.98019  1.0000
  C   C64       1.0  0.46654000000000007  0.19748000000000007  0.9074000000000001  1.0000
  C   C65       1.0  0.018100000000000106  0.13080000000000014  0.7560300000000002  1.0000
  C   C66       1.0  0.4279999999999999  0.2491  0.07809  1.0000
  C   C67       1.0  0.28511  0.97569  0.7302800000000003  1.0000
  C   C68       1.0  0.2874399999999999  0.89904  0.72726  1.0000
  C   C69       1.0  0.36029000000000005  0.8794300000000003  0.73623  1.0000
  C   C70       1.0  0.42790999999999996  0.9366700000000001  0.74495  1.0000
  C   C71       1.0  0.42177000000000003  0.012100000000000062  0.7458800000000001  1.0000
  C   C72       1.0  0.36661  0.7994  0.73997  1.0000
  C   C73       1.0  0.06853  0.50429  0.18213  1.0000
  C   C74       1.0  0.07144  0.58188  0.185  1.0000
  C   C75       1.0  0.11839  0.65266  0.25187  1.0000
  C   C76       1.0  0.16082000000000002  0.64254  0.3139600000000001  1.0000
  C   C77       1.0  0.15479  0.56328  0.30842  1.0000
  C   C78       1.0  0.19417000000000004  0.5453900000000002  0.37005  1.0000
  C   C79       1.0  0.24394000000000005  0.6053200000000001  0.4417400000000001  1.0000
  C   C80       1.0  0.27648000000000006  0.58181  0.49736000000000014  1.0000
  C   C81       1.0  0.25884  0.49738  0.4788200000000001  1.0000
  C   C82       1.0  0.20947  0.4398300000000001  0.40616000000000013  1.0000
  C   C83       1.0  0.12378000000000002  0.7386300000000002  0.25712  1.0000
  C   C84       1.0  0.3285300000000001  0.6487100000000001  0.5763000000000003  1.0000
  C   C85       1.0  0.25440999999999997  0.44567000000000007  0.22953  1.0000
  C   C86       1.0  0.32833  0.44067  0.22702  1.0000
  C   C87       1.0  0.35705  0.37685  0.23601  1.0000
  C   C88       1.0  0.3085  0.31771000000000005  0.24453000000000005  1.0000
  C   C89       1.0  0.23388  0.32459  0.24522000000000002  1.0000
  C   C90       1.0  0.4411  0.37485  0.2401  1.0000
  C   C91       1.0  0.6144599999999998  0.67933  0.18282  1.0000
  C   C92       1.0  0.61382  0.6044  0.18538  1.0000
  C   C93       1.0  0.63355  0.60055  0.2522800000000001  1.0000
  C   C94       1.0  0.65332  0.6726900000000001  0.31459000000000004  1.0000
  C   C95       1.0  0.65431  0.74656  0.30930000000000013  1.0000
  C   C96       1.0  0.67649  0.8260600000000002  0.37107000000000007  1.0000
  C   C97       1.0  0.69763  0.83771  0.44272  1.0000
  C   C98       1.0  0.72009  0.91682  0.49832000000000004  1.0000
  C   C99       1.0  0.7196300000000001  0.9827100000000001  0.4797600000000001  1.0000
  C   C100      1.0  0.69706  0.9676900000000002  0.40716  1.0000
  C   C101      1.0  0.63341  0.5199900000000001  0.25753000000000004  1.0000
  C   C102      1.0  0.74549  0.92911  0.57726  1.0000
  C   C103      1.0  0.4766  0.78525  0.23038000000000003  1.0000
  C   C104      1.0  0.39985  0.78732  0.22717000000000004  1.0000
  C   C105      1.0  0.37979  0.85997  0.23593000000000003  1.0000
  C   C106      1.0  0.43672999999999995  0.92774  0.24452000000000002  1.0000
  C   C107      1.0  0.51235  0.9219300000000001  0.24575000000000002  1.0000
  C   C108      1.0  0.29966  0.86594  0.23984  1.0000
  C   C109      1.0  0.99598  0.43112000000000006  0.3170400000000001  1.0000
  C   C110      1.0  0.91866  0.42915  0.31443  1.0000
  C   C111      1.0  0.8481000000000001  0.38285  0.24752000000000002  1.0000
  C   C112      1.0  0.85785  0.3399700000000001  0.18521  1.0000
  C   C113      1.0  0.9368399999999999  0.3449800000000001  0.19059000000000006  1.0000
  C   C114      1.0  0.95435  0.30518000000000006  0.12869000000000005  1.0000
  C   C115      1.0  0.89417  0.25536  0.05722000000000001  1.0000
  C   C116      1.0  0.91715  0.22265  0.00112  1.0000
  C   C117      1.0  0.0013499999999999966  0.23984  0.01901  1.0000
  C   C118      1.0  0.05915000000000002  0.2891500000000001  0.09162000000000002  1.0000
  C   C119      1.0  0.76243  0.37801  0.24219  1.0000
  C   C120      1.0  0.8495700000000002  0.17138999999999996  0.9225100000000002  1.0000
  C   C121      1.0  0.055990000000000005  0.24492000000000003  0.26906  1.0000
  C   C122      1.0  0.06262999999999998  0.17179  0.27264  1.0000
  C   C123      1.0  0.12751  0.14465  0.26439  1.0000
  C   C124      1.0  0.18599  0.19384  0.25578  1.0000
  C   C125      1.0  0.17739  0.26751  0.25393  1.0000
  C   C126      1.0  0.13164  0.06112  0.26019  1.0000
  C   C127      1.0  0.82178  0.8871900000000001  0.3174  1.0000
  C   C128      1.0  0.89646  0.8867200000000001  0.31464000000000003  1.0000
  C   C129      1.0  0.9003999999999999  0.8666800000000001  0.24769000000000002  1.0000
  C   C130      1.0  0.82862  0.84725  0.18550000000000005  1.0000
  C   C131      1.0  0.7549299999999998  0.8470900000000001  0.19095000000000004  1.0000
  C   C132      1.0  0.67562  0.82458  0.12917  1.0000
  C   C133      1.0  0.66403  0.80242  0.05740000000000001  1.0000
  C   C134      1.0  0.5850699999999999  0.7792  0.0016800000000000003  1.0000
  C   C135      1.0  0.51916  0.78023  0.02031  1.0000
  C   C136      1.0  0.53412  0.80369  0.09306000000000003  1.0000
  C   C137      1.0  0.9808799999999999  0.8668800000000001  0.2424  1.0000
  C   C138      1.0  0.5731800000000001  0.75229  0.9226200000000001  1.0000
  C   C139      1.0  0.7137000000000001  0.025790000000000073  0.26951000000000014  1.0000
  C   C140      1.0  0.7097500000000001  0.10179000000000007  0.27150000000000013  1.0000
  C   C141      1.0  0.63636  0.12033000000000002  0.26245  1.0000
  C   C142      1.0  0.56987  0.06269999999999999  0.25474  1.0000
  C   C143      1.0  0.5772899999999999  0.98773  0.25419000000000014  1.0000
  C   C144      1.0  0.62757  0.19923  0.25705  1.0000
  N   N1        1.0  0.8902399999999999  0.50481  0.75656  1.0000
  N   N2        1.0  0.8226100000000001  0.53566  0.64615  1.0000
  N   N3        1.0  0.79177  0.61073  0.76034  1.0000
  N   N4        1.0  0.3671100000000001  0.25174000000000024  0.7571500000000002  1.0000
  N   N5        1.0  0.32417  0.11025000000000014  0.6468100000000002  1.0000
  N   N6        1.0  0.46859  0.14846  0.7605  1.0000
  N   N7        1.0  0.99457  0.60949  0.74262  1.0000
  N   N8        1.0  0.96332  0.6769900000000002  0.8532100000000002  1.0000
  N   N9        1.0  0.88769  0.7073100000000002  0.7391700000000002  1.0000
  N   N10       1.0  0.24876999999999996  0.13364  0.7439  1.0000
  N   N11       1.0  0.38987000000000005  0.1763000000000001  0.8538100000000001  1.0000
  N   N12       1.0  0.35094  0.03145  0.73969  1.0000
  N   N13       1.0  0.10950000000000003  0.49482  0.24267000000000002  1.0000
  N   N14       1.0  0.17686  0.4630600000000001  0.35259  1.0000
  N   N15       1.0  0.20800000000000002  0.38893  0.23866000000000004  1.0000
  N   N16       1.0  0.63432  0.74937  0.24359000000000003  1.0000
  N   N17       1.0  0.67658  0.8909300000000001  0.3536100000000001  1.0000
  N   N18       1.0  0.5321  0.8513  0.23979  1.0000
  N   N19       1.0  0.005210000000000001  0.38982  0.25628  1.0000
  N   N20       1.0  0.03643  0.32224  0.14561  1.0000
  N   N21       1.0  0.11194  0.2918  0.25952  1.0000
  N   N22       1.0  0.75209  0.8678400000000001  0.2567800000000001  1.0000
  N   N23       1.0  0.61074  0.82466  0.14667000000000005  1.0000
  N   N24       1.0  0.6486199999999999  0.9693800000000001  0.26048  1.0000
  O   O1        1.0  0.9242699999999999  0.25928  0.80127  1.0000
  O   O2        1.0  0.82869  0.20109000000000013  0.6826900000000002  1.0000
  O   O3        1.0  0.6602299999999999  0.27596  0.4131  1.0000
  O   O4        1.0  0.64875  0.37810000000000005  0.37593  1.0000
  O   O5        1.0  0.52601  0.5813  0.78218  1.0000
  O   O6        1.0  0.52865  0.67076  0.73269  1.0000
  O   O7        1.0  0.3776  0.5418200000000001  0.80257  1.0000
  O   O8        1.0  0.35860999999999993  0.48348  0.68492  1.0000
  O   O9        1.0  0.25532999999999995  0.13703000000000004  0.41438  1.0000
  O   O10       1.0  0.22915000000000002  0.9973900000000001  0.3766500000000001  1.0000
  O   O11       1.0  0.75374  0.1959  0.77724  1.0000
  O   O12       1.0  0.7037299999999999  0.05762999999999998  0.73395  1.0000
  O   O13       1.0  0.24048000000000008  0.5759500000000001  0.6981300000000003  1.0000
  O   O14       1.0  0.29826  0.6735800000000002  0.816  1.0000
  O   O15       1.0  0.22276  0.84054  0.08507  1.0000
  O   O16       1.0  0.12180999999999999  0.85502  0.12357  1.0000
  O   O17       1.0  0.91313  0.9721700000000001  0.7158  1.0000
  O   O18       1.0  0.82778  0.97053  0.76974  1.0000
  O   O19       1.0  0.9590700000000002  0.12176000000000002  0.6985500000000001  1.0000
  O   O20       1.0  0.015430000000000017  0.1376100000000001  0.8151900000000001  1.0000
  O   O21       1.0  0.36438  0.24679  0.08752  1.0000
  O   O22       1.0  0.50342  0.27102  0.12396  1.0000
  O   O23       1.0  0.30031  0.7443  0.7184  1.0000
  O   O24       1.0  0.43914  0.7959  0.76725  1.0000
  O   O25       1.0  0.07758000000000002  0.74144  0.19931000000000004  1.0000
  O   O26       1.0  0.17407999999999998  0.79933  0.31756  1.0000
  O   O27       1.0  0.34076  0.7216700000000003  0.5854300000000002  1.0000
  O   O28       1.0  0.35175  0.61908  0.62228  1.0000
  O   O29       1.0  0.47443  0.41968  0.21842  1.0000
  O   O30       1.0  0.47209000000000007  0.32986  0.26759  1.0000
  O   O31       1.0  0.62256  0.4593900000000001  0.19987000000000005  1.0000
  O   O32       1.0  0.6428699999999999  0.51962  0.31789  1.0000
  O   O33       1.0  0.7402600000000001  0.8654600000000001  0.5866400000000003  1.0000
  O   O34       1.0  0.7695099999999999  0.005120000000000023  0.6231  1.0000
  O   O35       1.0  0.24472000000000005  0.7994600000000002  0.21806  1.0000
  O   O36       1.0  0.29604  0.93846  0.2674  1.0000
  O   O37       1.0  0.75928  0.42289  0.30053  1.0000
  O   O38       1.0  0.7019200000000002  0.32914000000000004  0.18130000000000004  1.0000
  O   O39       1.0  0.7769699999999999  0.15965999999999997  0.91394  1.0000
  O   O40       1.0  0.8783299999999999  0.14812000000000006  0.8756700000000001  1.0000
  O   O41       1.0  0.08514000000000004  0.024990000000000057  0.2792300000000001  1.0000
  O   O42       1.0  0.17931  0.032849999999999976  0.23494  1.0000
  O   O43       1.0  0.04141000000000003  0.8781600000000003  0.30004  1.0000
  O   O44       1.0  0.98148  0.85755  0.18209  1.0000
  O   O45       1.0  0.63683  0.7555500000000002  0.9131700000000001  1.0000
  O   O46       1.0  0.4976300000000001  0.72939  0.8767600000000001  1.0000
  O   O47       1.0  0.69275  0.25318  0.27366  1.0000
  O   O48       1.0  0.55523  0.20351000000000005  0.23392  1.0000
