data_image0
_chemical_formula_structural       Zn24H104C176O52
_chemical_formula_sum              "Zn24 H104 C176 O52"
_cell_length_a       19.80617
_cell_length_b       20.14339
_cell_length_c       19.89229
_cell_angle_alpha    108.99496999999998
_cell_angle_beta     110.52592
_cell_angle_gamma    109.53372

_space_group_name_H-M_alt    "P 1"
_space_group_IT_number       1

loop_
  _space_group_symop_operation_xyz
  'x, y, z'

loop_
  _atom_site_type_symbol
  _atom_site_label
  _atom_site_symmetry_multiplicity
  _atom_site_fract_x
  _atom_site_fract_y
  _atom_site_fract_z
  _atom_site_occupancy
  Zn  Zn1       1.0  0.8893900000000001  0.40373  0.44497  1.0000
  Zn  Zn2       1.0  0.60882  0.56174  0.01288  1.0000
  Zn  Zn3       1.0  0.58218  0.10762999999999996  0.54524  1.0000
  Zn  Zn4       1.0  0.95996  0.94979  0.06454  1.0000
  Zn  Zn5       1.0  0.45129999999999987  0.61943  0.97678  1.0000
  Zn  Zn6       1.0  0.69352  0.95275  0.56235  1.0000
  Zn  Zn7       1.0  0.04392000000000002  0.52214  0.66665  1.0000
  Zn  Zn8       1.0  0.8922000000000001  0.9425600000000001  0.8757  1.0000
  Zn  Zn9       1.0  0.45760000000000006  0.06054999999999999  0.6024  1.0000
  Zn  Zn10      1.0  0.03090000000000002  0.43745  0.42086  1.0000
  Zn  Zn11      1.0  0.46823000000000004  0.39362  0.909  1.0000
  Zn  Zn12      1.0  0.02057  0.10484  0.054519999999999985  1.0000
  Zn  Zn13      1.0  0.11795999999999998  0.60252  0.5536  1.0000
  Zn  Zn14      1.0  0.38332  0.44059  0.98908  1.0000
  Zn  Zn15      1.0  0.4587399999999999  0.90673  0.51249  1.0000
  Zn  Zn16      1.0  0.039980000000000036  0.09916000000000004  0.84457  1.0000
  Zn  Zn17      1.0  0.53244  0.3770800000000001  0.02728  1.0000
  Zn  Zn18      1.0  0.3940999999999999  0.0036799999999999767  0.45607  1.0000
  Zn  Zn19      1.0  0.9558100000000002  0.48097000000000006  0.33609  1.0000
  Zn  Zn20      1.0  0.11088999999999996  0.040109999999999986  0.15455  1.0000
  Zn  Zn21      1.0  0.52172  0.94666  0.39499  1.0000
  Zn  Zn22      1.0  0.9774300000000001  0.57014  0.58028  1.0000
  Zn  Zn23      1.0  0.5257400000000001  0.6066100000000001  0.09494  1.0000
  Zn  Zn24      1.0  0.050760000000000055  0.94289  0.96578  1.0000
  H   H1        1.0  0.72874  0.14004  0.23233  1.0000
  H   H2        1.0  0.6671  0.01599  0.09756  1.0000
  H   H3        1.0  0.8712100000000002  0.13994  0.07054  1.0000
  H   H4        1.0  0.9377800000000001  0.25933000000000006  0.20960999999999996  1.0000
  H   H5        1.0  0.76034  0.50774  0.89671  1.0000
  H   H6        1.0  0.8237699999999999  0.43687  0.83583  1.0000
  H   H7        1.0  0.6542599999999998  0.2142999999999999  0.8057199999999998  1.0000
  H   H8        1.0  0.58486  0.2824  0.85702  1.0000
  H   H9        1.0  0.61403  0.35768000000000005  0.61029  1.0000
  H   H10       1.0  0.59842  0.47908  0.66006  1.0000
  H   H11       1.0  0.41564999999999985  0.35291999999999996  0.7097699999999998  1.0000
  H   H12       1.0  0.43908  0.23641000000000006  0.67001  1.0000
  H   H13       1.0  0.88733  0.016880000000000003  0.23092  1.0000
  H   H14       1.0  0.89893  0.07610999999999997  0.3678  1.0000
  H   H15       1.0  0.10565000000000005  0.30356  0.44643  1.0000
  H   H16       1.0  0.09297  0.2442  0.30893  1.0000
  H   H17       1.0  0.5129  0.72543  0.86611  1.0000
  H   H18       1.0  0.5695999999999999  0.8610699999999999  0.877  1.0000
  H   H19       1.0  0.79822  0.94844  0.09634  1.0000
  H   H20       1.0  0.7420400000000001  0.81193  0.08443  1.0000
  H   H21       1.0  0.8415599999999999  0.13211000000000003  0.60251  1.0000
  H   H22       1.0  0.9758900000000001  0.18897  0.60617  1.0000
  H   H23       1.0  0.85169  0.19231  0.3825  1.0000
  H   H24       1.0  0.71617  0.1266  0.37333  1.0000
  H   H25       1.0  0.98071  0.34799  0.70317  1.0000
  H   H26       1.0  0.9262  0.30663  0.78686  1.0000
  H   H27       1.0  0.70671  0.31521  0.65824  1.0000
  H   H28       1.0  0.7588  0.3513300000000001  0.57125  1.0000
  H   H29       1.0  0.65955  0.75465  0.76093  1.0000
  H   H30       1.0  0.53087  0.61885  0.68314  1.0000
  H   H31       1.0  0.64776  0.56146  0.86574  1.0000
  H   H32       1.0  0.77407  0.6982100000000001  0.9449199999999998  1.0000
  H   H33       1.0  0.57699  0.08882000000000001  0.84815  1.0000
  H   H34       1.0  0.65429  0.08684999999999998  0.97657  1.0000
  H   H35       1.0  0.70598  0.91512  0.84144  1.0000
  H   H36       1.0  0.62803  0.9168300000000001  0.71316  1.0000
  H   H37       1.0  0.25273  0.40705  0.48253  1.0000
  H   H38       1.0  0.38261999999999996  0.40518  0.55628  1.0000
  H   H39       1.0  0.43966  0.5866  0.78755  1.0000
  H   H40       1.0  0.31109000000000003  0.5901800000000001  0.71327  1.0000
  H   H41       1.0  0.24832  0.23691999999999996  0.6531999999999999  1.0000
  H   H42       1.0  0.11884000000000003  0.18223000000000006  0.52065  1.0000
  H   H43       1.0  0.06764000000000002  0.35893  0.64734  1.0000
  H   H44       1.0  0.19535  0.41150000000000003  0.78082  1.0000
  H   H45       1.0  0.92128  0.2488199999999999  0.99475  1.0000
  H   H46       1.0  0.8667900000000001  0.32388  0.93455  1.0000
  H   H47       1.0  0.75431  0.12540000000000007  0.68897  1.0000
  H   H48       1.0  0.8051400000000001  0.04933999999999997  0.7491499999999999  1.0000
  H   H49       1.0  0.27711999999999987  0.87284  0.76592  1.0000
  H   H50       1.0  0.33679  0.99373  0.90232  1.0000
  H   H51       1.0  0.13781999999999994  0.85761  0.92872  1.0000
  H   H52       1.0  0.07291000000000009  0.7420700000000001  0.78933  1.0000
  H   H53       1.0  0.22656  0.4970200000000001  0.09558  1.0000
  H   H54       1.0  0.16586  0.57465  0.15276  1.0000
  H   H55       1.0  0.37526000000000004  0.79861  0.2296  1.0000
  H   H56       1.0  0.44171  0.72235  0.18353  1.0000
  H   H57       1.0  0.39961  0.6590400000000002  0.39384  1.0000
  H   H58       1.0  0.40136  0.5296  0.34181  1.0000
  H   H59       1.0  0.60036  0.6425099999999998  0.3035799999999999  1.0000
  H   H60       1.0  0.59509  0.76959  0.35078  1.0000
  H   H61       1.0  0.11600999999999997  0.9658100000000001  0.77667  1.0000
  H   H62       1.0  0.12007999999999996  0.9131  0.64764  1.0000
  H   H63       1.0  0.87427  0.70662  0.5269699999999998  1.0000
  H   H64       1.0  0.8661400000000001  0.76506  0.65249  1.0000
  H   H65       1.0  0.48062  0.27756  0.12613  1.0000
  H   H66       1.0  0.43254  0.13932  0.11016  1.0000
  H   H67       1.0  0.18547000000000002  0.05792000000000002  0.92053  1.0000
  H   H68       1.0  0.23452999999999996  0.19573999999999997  0.9353  1.0000
  H   H69       1.0  0.14862999999999998  0.8740600000000001  0.38601  1.0000
  H   H70       1.0  0.023420000000000003  0.82971  0.4001  1.0000
  H   H71       1.0  0.15100000000000002  0.78962  0.59428  1.0000
  H   H72       1.0  0.27461  0.833  0.57917  1.0000
  H   H73       1.0  0.01573000000000003  0.64525  0.28556  1.0000
  H   H74       1.0  0.07164000000000002  0.6921900000000001  0.20503  1.0000
  H   H75       1.0  0.3049  0.7139  0.35358  1.0000
  H   H76       1.0  0.24938999999999986  0.6685399999999999  0.43464999999999987  1.0000
  H   H77       1.0  0.36262  0.26069  0.28781  1.0000
  H   H78       1.0  0.48857  0.39133000000000007  0.34198  1.0000
  H   H79       1.0  0.34336000000000005  0.43033  0.15628  1.0000
  H   H80       1.0  0.21804  0.29985  0.10227  1.0000
  H   H81       1.0  0.38312  0.89204  0.15641  1.0000
  H   H82       1.0  0.33133  0.90349  0.02933  1.0000
  H   H83       1.0  0.30756  0.10384000000000003  0.15957  1.0000
  H   H84       1.0  0.35554  0.08953  0.28424  1.0000
  H   H85       1.0  0.7528400000000002  0.59281  0.52138  1.0000
  H   H86       1.0  0.61923  0.59021  0.44966  1.0000
  H   H87       1.0  0.56677  0.4196  0.21535999999999994  1.0000
  H   H88       1.0  0.6998700000000002  0.4210300000000001  0.28727  1.0000
  H   H89       1.0  0.7564199999999999  0.76998  0.34531  1.0000
  H   H90       1.0  0.8882300000000001  0.82516  0.47523  1.0000
  H   H91       1.0  0.92965  0.63969  0.34715  1.0000
  H   H92       1.0  0.7990899999999999  0.5864  0.21603  1.0000
  H   H93       1.0  0.08705999999999996  0.7277899999999999  0.9787  1.0000
  H   H94       1.0  0.14685000000000006  0.67036  0.06109  1.0000
  H   H95       1.0  0.22288  0.8764600000000001  0.28538  1.0000
  H   H96       1.0  0.17376000000000008  0.93913  0.20461  1.0000
  H   H97       1.0  0.7887200000000001  0.99872  0.99282  1.0000
  H   H98       1.0  0.7074  0.21750000000000003  0.71184  1.0000
  H   H99       1.0  0.4956099999999999  0.49773  0.7821399999999998  1.0000
  H   H100      1.0  0.008529999999999954  0.29498  0.49976999999999994  1.0000
  H   H101      1.0  0.21021000000000006  0.9960200000000001  0.00424  1.0000
  H   H102      1.0  0.29157  0.80007  0.28721  1.0000
  H   H103      1.0  0.49616  0.49139000000000005  0.22044  1.0000
  H   H104      1.0  0.99411  0.7072099999999999  0.49513  1.0000
  C   C1        1.0  0.88076  0.27974  0.31318  1.0000
  C   C2        1.0  0.8376900000000002  0.20725  0.22991  1.0000
  C   C3        1.0  0.76011  0.13928  0.19705  1.0000
  C   C4        1.0  0.72519  0.07017000000000001  0.121  1.0000
  C   C5        1.0  0.76525  0.06934  0.07513  1.0000
  C   C6        1.0  0.84031  0.13948  0.10631  1.0000
  C   C7        1.0  0.87742  0.20681000000000005  0.18368  1.0000
  C   C8        1.0  0.61918  0.43485  0.90178  1.0000
  C   C9        1.0  0.6673600000000002  0.39892000000000005  0.87865  1.0000
  C   C10       1.0  0.7371999999999999  0.44341999999999987  0.8762699999999998  1.0000
  C   C11       1.0  0.7733000000000001  0.40371  0.84306  1.0000
  C   C12       1.0  0.74238  0.32054  0.81547  1.0000
  C   C13       1.0  0.6778499999999998  0.2786899999999998  0.8260099999999998  1.0000
  C   C14       1.0  0.63895  0.31655  0.85487  1.0000
  C   C15       1.0  0.54617  0.22201  0.62327  1.0000
  C   C16       1.0  0.52857  0.28964  0.63824  1.0000
  C   C17       1.0  0.5710000000000001  0.35711  0.63251  1.0000
  C   C18       1.0  0.56121  0.42476  0.65937  1.0000
  C   C19       1.0  0.5064600000000001  0.42468  0.68893  1.0000
  C   C20       1.0  0.45904  0.35416  0.68779  1.0000
  C   C21       1.0  0.47151000000000004  0.28842  0.66508  1.0000
  C   C22       1.0  0.97673  0.09449000000000002  0.1764  1.0000
  C   C23       1.0  0.9882600000000001  0.12729000000000001  0.26042  1.0000
  C   C24       1.0  0.93525  0.07953  0.27841  1.0000
  C   C25       1.0  0.9424  0.11285  0.35572  1.0000
  C   C26       1.0  0.0023299999999999944  0.19438  0.4164  1.0000
  C   C27       1.0  0.058659999999999955  0.24020999999999998  0.3998199999999999  1.0000
  C   C28       1.0  0.0516  0.20756000000000002  0.32286  1.0000
  C   C29       1.0  0.5928100000000001  0.6780100000000001  0.96575  1.0000
  C   C30       1.0  0.62421  0.7596999999999999  0.9741  1.0000
  C   C31       1.0  0.5752100000000001  0.7745900000000002  0.91689  1.0000
  C   C32       1.0  0.60713  0.8510500000000001  0.92331  1.0000
  C   C33       1.0  0.68827  0.91396  0.98735  1.0000
  C   C34       1.0  0.73527  0.89967  0.04679999999999999  1.0000
  C   C35       1.0  0.7044099999999999  0.82363  0.04006  1.0000
  C   C36       1.0  0.6884000000000001  0.09128999999999995  0.48312  1.0000
  C   C37       1.0  0.77012  0.1255  0.48767  1.0000
  C   C38       1.0  0.84376  0.14400999999999997  0.5535  1.0000
  C   C39       1.0  0.91948  0.17653  0.55562  1.0000
  C   C40       1.0  0.9238500000000001  0.19544000000000003  0.49489  1.0000
  C   C41       1.0  0.8495300000000001  0.17771  0.42995  1.0000
  C   C42       1.0  0.77331  0.14122  0.42473  1.0000
  C   C43       1.0  0.90332  0.3708600000000001  0.5781  1.0000
  C   C44       1.0  0.8725299999999999  0.35046999999999995  0.63074  1.0000
  C   C45       1.0  0.9205700000000001  0.34052  0.69366  1.0000
  C   C46       1.0  0.89006  0.31789999999999996  0.74096  1.0000
  C   C47       1.0  0.8117799999999997  0.3066699999999999  0.7273099999999998  1.0000
  C   C48       1.0  0.7668  0.32247  0.66819  1.0000
  C   C49       1.0  0.79552  0.3425100000000001  0.61926  1.0000
  C   C50       1.0  0.79906  0.81941  0.90679  1.0000
  C   C51       1.0  0.72483  0.73567  0.85832  1.0000
  C   C52       1.0  0.65633  0.71186  0.78342  1.0000
  C   C53       1.0  0.58445  0.63532  0.73957  1.0000
  C   C54       1.0  0.57976  0.58047  0.76904  1.0000
  C   C55       1.0  0.65005  0.60333  0.84206  1.0000
  C   C56       1.0  0.72133  0.68003  0.88683  1.0000
  C   C57       1.0  0.54892  0.9999000000000001  0.69424  1.0000
  C   C58       1.0  0.59726  0.0025099999999999988  0.77259  1.0000
  C   C59       1.0  0.60522  0.05081999999999996  0.84715  1.0000
  C   C60       1.0  0.64825  0.04933000000000008  0.91882  1.0000
  C   C61       1.0  0.68449  0.00024000000000002898  0.91732  1.0000
  C   C62       1.0  0.67738  0.95291  0.84267  1.0000
  C   C63       1.0  0.63413  0.9537  0.77114  1.0000
  C   C64       1.0  0.19829999999999995  0.50388  0.55194  1.0000
  C   C65       1.0  0.27383  0.49888  0.59321  1.0000
  C   C66       1.0  0.2941400000000001  0.44651  0.54934  1.0000
  C   C67       1.0  0.36729  0.44584  0.59095  1.0000
  C   C68       1.0  0.42039  0.49656  0.67707  1.0000
  C   C69       1.0  0.3989400000000001  0.54816  0.72056  1.0000
  C   C70       1.0  0.32732  0.54994  0.67959  1.0000
  C   C71       1.0  0.30471  0.36094  0.80685  1.0000
  C   C72       1.0  0.23001999999999992  0.32784999999999986  0.7254899999999997  1.0000
  C   C73       1.0  0.20842  0.26332  0.65178  1.0000
  C   C74       1.0  0.13558  0.23258  0.57754  1.0000
  C   C75       1.0  0.08423999999999998  0.2667  0.57536  1.0000
  C   C76       1.0  0.10715  0.33208  0.64931  1.0000
  C   C77       1.0  0.17828  0.36172  0.72342  1.0000
  C   C78       1.0  0.89645  0.09772999999999998  0.91013  1.0000
  C   C79       1.0  0.8664500000000002  0.14444999999999997  0.87583  1.0000
  C   C80       1.0  0.8846000000000002  0.22241000000000002  0.9279  1.0000
  C   C81       1.0  0.8545400000000001  0.26442999999999994  0.89395  1.0000
  C   C82       1.0  0.80689  0.22962  0.80767  1.0000
  C   C83       1.0  0.79072  0.15241  0.75613  1.0000
  C   C84       1.0  0.8193700000000002  0.10987999999999998  0.78941  1.0000
  C   C85       1.0  0.12757999999999992  0.7279699999999998  0.6843299999999998  1.0000
  C   C86       1.0  0.17052  0.79989  0.76819  1.0000
  C   C87       1.0  0.24642999999999998  0.87021  0.80167  1.0000
  C   C88       1.0  0.28051999999999994  0.93774  0.8789399999999998  1.0000
  C   C89       1.0  0.2415199999999999  0.93454  0.92554  1.0000
  C   C90       1.0  0.16847  0.86187  0.89327  1.0000
  C   C91       1.0  0.13184999999999997  0.79627  0.81505  1.0000
  C   C92       1.0  0.3789  0.56235  0.10775  1.0000
  C   C93       1.0  0.33833  0.60508  0.13707  1.0000
  C   C94       1.0  0.25931  0.56315  0.12613  1.0000
  C   C95       1.0  0.22492  0.60663  0.15692999999999993  1.0000
  C   C96       1.0  0.26702  0.69187  0.19536  1.0000
  C   C97       1.0  0.34369  0.73272  0.20163  1.0000
  C   C98       1.0  0.38039  0.6902800000000001  0.17504  1.0000
  C   C99       1.0  0.49186  0.79803  0.39931  1.0000
  C   C100      1.0  0.49688000000000004  0.7226  0.3752  1.0000
  C   C101      1.0  0.4435  0.65506  0.37408  1.0000
  C   C102      1.0  0.44499  0.5826000000000001  0.34532  1.0000
  C   C103      1.0  0.50077  0.57689  0.31887  1.0000
  C   C104      1.0  0.55676  0.64606  0.32403  1.0000
  C   C105      1.0  0.5542  0.71754  0.35053  1.0000
  C   C106      1.0  0.98653  0.9001899999999999  0.79918  1.0000
  C   C107      1.0  0.9905  0.8694500000000001  0.7228  1.0000
  C   C108      1.0  0.062300000000000015  0.91005  0.72115  1.0000
  C   C109      1.0  0.06477000000000004  0.8796200000000001  0.64855  1.0000
  C   C110      1.0  0.9975500000000003  0.80584  0.57794  1.0000
  C   C111      1.0  0.9265  0.76462  0.5809  1.0000
  C   C112      1.0  0.9217600000000001  0.79672  0.65119  1.0000
  C   C113      1.0  0.39056  0.3264500000000001  0.03909  1.0000
  C   C114      1.0  0.36082  0.24510000000000004  0.03152  1.0000
  C   C115      1.0  0.41646000000000005  0.22870000000000001  0.08028  1.0000
  C   C116      1.0  0.38935  0.15108999999999997  0.07099  1.0000
  C   C117      1.0  0.3059  0.08911  0.013799999999999996  1.0000
  C   C118      1.0  0.2506399999999999  0.10578  0.96446  1.0000
  C   C119      1.0  0.27751000000000003  0.1826300000000001  0.97286  1.0000
  C   C120      1.0  0.29123000000000004  0.8749400000000002  0.46772  1.0000
  C   C121      1.0  0.21938000000000005  0.8555700000000002  0.481  1.0000
  C   C122      1.0  0.1488400000000001  0.8563700000000001  0.4322  1.0000
  C   C123      1.0  0.07877000000000006  0.8316400000000002  0.44051  1.0000
  C   C124      1.0  0.07723999999999999  0.80539  0.4975  1.0000
  C   C125      1.0  0.15010000000000007  0.8093000000000001  0.54936  1.0000
  C   C126      1.0  0.21998000000000004  0.83363  0.5413  1.0000
  C   C127      1.0  0.09779000000000006  0.63098  0.41627  1.0000
  C   C128      1.0  0.12901000000000004  0.654  0.36513  1.0000
  C   C129      1.0  0.07869999999999999  0.6595  0.29941  1.0000
  C   C130      1.0  0.11022999999999998  0.68595  0.25443  1.0000
  C   C131      1.0  0.19222  0.7067700000000001  0.27424  1.0000
  C   C132      1.0  0.24109999999999998  0.69786  0.33799  1.0000
  C   C133      1.0  0.21052  0.67251  0.38341  1.0000
  C   C134      1.0  0.20463  0.19269000000000003  0.15589  1.0000
  C   C135      1.0  0.28179  0.2713  0.19117  1.0000
  C   C136      1.0  0.35852999999999996  0.29809  0.25927  1.0000
  C   C137      1.0  0.42918  0.3718700000000001  0.28991  1.0000
  C   C138      1.0  0.42511000000000004  0.42047  0.25339  1.0000
  C   C139      1.0  0.34773  0.39373  0.18585  1.0000
  C   C140      1.0  0.27731  0.32057  0.15519  1.0000
  C   C141      1.0  0.39473  0.97705  0.30046  1.0000
  C   C142      1.0  0.3716899999999999  0.9893699999999997  0.22784  1.0000
  C   C143      1.0  0.36689000000000005  0.9385400000000002  0.15651  1.0000
  C   C144      1.0  0.33831  0.94551  0.08556  1.0000
  C   C145      1.0  0.31557  0.004219999999999995  0.08539  1.0000
  C   C146      1.0  0.32521000000000005  0.058050000000000004  0.15884  1.0000
  C   C147      1.0  0.35175  0.05023000000000002  0.22881  1.0000
  C   C148      1.0  0.8113800000000001  0.50398  0.44878  1.0000
  C   C149      1.0  0.73439  0.5069700000000001  0.4086  1.0000
  C   C150      1.0  0.7117600000000001  0.55501  0.45436  1.0000
  C   C151      1.0  0.6367600000000002  0.55301  0.41408  1.0000
  C   C152      1.0  0.58395  0.50392  0.32772  1.0000
  C   C153      1.0  0.60776  0.45693000000000006  0.28239  1.0000
  C   C154      1.0  0.68159  0.45785  0.32204  1.0000
  C   C155      1.0  0.69215  0.64047  0.19261  1.0000
  C   C156      1.0  0.76909  0.67428  0.27242  1.0000
  C   C157      1.0  0.79461  0.7417200000000002  0.34587  1.0000
  C   C158      1.0  0.8689199999999999  0.77272  0.41865  1.0000
  C   C159      1.0  0.91781  0.7358100000000001  0.42019  1.0000
  C   C160      1.0  0.89161  0.66816  0.3463  1.0000
  C   C161      1.0  0.8189  0.63824  0.27333  1.0000
  C   C162      1.0  0.09903000000000003  0.8753000000000001  0.03848  1.0000
  C   C163      1.0  0.12746999999999994  0.83758  0.08625  1.0000
  C   C164      1.0  0.11768999999999996  0.76043  0.04598  1.0000
  C   C165      1.0  0.15035  0.72796  0.09232  1.0000
  C   C166      1.0  0.18981999999999996  0.77004  0.17915  1.0000
  C   C167      1.0  0.19421000000000005  0.8446300000000001  0.21829  1.0000
  C   C168      1.0  0.16594  0.87932  0.17297999999999994  1.0000
  C   C169      1.0  0.73211  0.9958  0.99307  1.0000
  C   C170      1.0  0.76821  0.26955999999999997  0.76636  1.0000
  C   C171      1.0  0.50024  0.49927000000000005  0.72885  1.0000
  C   C172      1.0  0.00513999999999997  0.23808  0.49684  1.0000
  C   C173      1.0  0.26964  0.00606  0.00704  1.0000
  C   C174      1.0  0.23486000000000004  0.7427600000000001  0.23405  1.0000
  C   C175      1.0  0.50122  0.49828  0.27971  1.0000
  C   C176      1.0  0.9974500000000001  0.76424  0.49856  1.0000
  O   O1        1.0  0.8369  0.30071  0.34001  1.0000
  O   O2        1.0  0.9608  0.31776  0.35354  1.0000
  O   O3        1.0  0.65819  0.5096599999999999  0.9582399999999998  1.0000
  O   O4        1.0  0.5399999999999999  0.38735999999999987  0.86253  1.0000
  O   O5        1.0  0.5727000000000001  0.20464000000000004  0.57224  1.0000
  O   O6        1.0  0.53573  0.18399000000000004  0.66196  1.0000
  O   O7        1.0  0.9208200000000001  0.020020000000000007  0.12139  1.0000
  O   O8        1.0  0.025180000000000022  0.14242  0.16292  1.0000
  O   O9        1.0  0.51619  0.62208  0.91192  1.0000
  O   O10       1.0  0.6435500000000001  0.66727  0.01671  1.0000
  O   O11       1.0  0.6879  0.12454000000000004  0.55023  1.0000
  O   O12       1.0  0.62423  0.03338000000000001  0.41278  1.0000
  O   O13       1.0  0.98  0.39368  0.59952  1.0000
  O   O14       1.0  0.85287  0.36985000000000007  0.51537  1.0000
  O   O15       1.0  0.7982699999999999  0.86354  0.87241  1.0000
  O   O16       1.0  0.85706  0.84155  0.9784  1.0000
  O   O17       1.0  0.51884  0.047590000000000014  0.69732  1.0000
  O   O18       1.0  0.54138  0.94948  0.62906  1.0000
  O   O19       1.0  0.14227  0.44924  0.47554  1.0000
  O   O20       1.0  0.19413  0.56288  0.59609  1.0000
  O   O21       1.0  0.35936  0.33943  0.80752  1.0000
  O   O22       1.0  0.30981000000000003  0.40904  0.87127  1.0000
  O   O23       1.0  0.94705  0.13409000000000001  0.98851  1.0000
  O   O24       1.0  0.86932  0.024140000000000016  0.85747  1.0000
  O   O25       1.0  0.17157999999999993  0.70654  0.65818  1.0000
  O   O26       1.0  0.04747000000000002  0.69034  0.64326  1.0000
  O   O27       1.0  0.33289  0.49154  0.04296  1.0000
  O   O28       1.0  0.45898999999999995  0.60039  0.1483  1.0000
  O   O29       1.0  0.45358  0.8083200000000001  0.43855  1.0000
  O   O30       1.0  0.52633  0.84763  0.37826  1.0000
  O   O31       1.0  0.056250000000000036  0.9420500000000002  0.86932  1.0000
  O   O32       1.0  0.9148400000000001  0.88237  0.79152  1.0000
  O   O33       1.0  0.46715  0.383  0.0922  1.0000
  O   O34       1.0  0.3393200000000001  0.3357900000000001  0.98723  1.0000
  O   O35       1.0  0.28987  0.89574  0.41308  1.0000
  O   O36       1.0  0.35331  0.87209  0.51438  1.0000
  O   O37       1.0  0.02116999999999992  0.60791  0.39522  1.0000
  O   O38       1.0  0.14862000000000003  0.63168  0.47862  1.0000
  O   O39       1.0  0.20904  0.14691  0.18772  1.0000
  O   O40       1.0  0.13868000000000003  0.17655000000000004  0.09450999999999997  1.0000
  O   O41       1.0  0.42513  0.9299000000000001  0.3011  1.0000
  O   O42       1.0  0.38112  0.013000000000000003  0.35633  1.0000
  O   O43       1.0  0.86574  0.55687  0.52587  1.0000
  O   O44       1.0  0.8180500000000002  0.44792  0.40319  1.0000
  O   O45       1.0  0.63873  0.66324  0.19339  1.0000
  O   O46       1.0  0.68422  0.58991  0.12756  1.0000
  O   O47       1.0  0.035330000000000084  0.8331400000000002  0.96504  1.0000
  O   O48       1.0  0.13969  0.95427  0.07154  1.0000
  O   O49       1.0  0.0048900000000000055  0.5032  0.50256  1.0000
  O   O50       1.0  0.49597  0.49978000000000006  0.00027  1.0000
  O   O51       1.0  0.50686  0.9932200000000001  0.48748  1.0000
  O   O52       1.0  0.9861799999999998  0.9906500000000001  0.98697  1.0000
