data_image0
_chemical_formula_structural       Mn4Fe6H96C192N16O32
_chemical_formula_sum              "Mn4 Fe6 H96 C192 N16 O32"
_cell_length_a       14.60006
_cell_length_b       15.37045
_cell_length_c       27.43232
_cell_angle_alpha    90.02979
_cell_angle_beta     88.81248
_cell_angle_gamma    89.95899

_symmetry_space_group_name_H-M    'P 1'
_symmetry_Int_Tables_number       1

loop_
  _symmetry_equiv_pos_as_xyz
  'x,y,z'

loop_
  _atom_site_type_symbol
  _atom_site_label
  _atom_site_symmetry_multiplicity
  _atom_site_fract_x
  _atom_site_fract_y
  _atom_site_fract_z
  _atom_site_occupancy
  Mn  Mn1       1.0  0.2885200000000001  0.02729  0.4846799999999999  1.0000
  Mn  Mn2       1.0  0.71151  0.02768  0.01527  1.0000
  Mn  Mn3       1.0  0.71095  0.973  0.5154199999999999  1.0000
  Mn  Mn4       1.0  0.28929  0.97282  0.9848  1.0000
  Fe  Fe1       1.0  0.73442  0.6216700000000002  0.75548  1.0000
  Fe  Fe2       1.0  0.2652500000000001  0.62111  0.7457099999999998  1.0000
  Fe  Fe3       1.0  0.2656900000000001  0.37895  0.24399999999999994  1.0000
  Fe  Fe4       1.0  0.7347900000000003  0.37917  0.25579  1.0000
  Fe  Fe5       1.0  0.49955  0.55885  0.7509799999999999  1.0000
  Fe  Fe6       1.0  0.50145  0.44486  0.24933  1.0000
  H   H1        1.0  0.08712  0.028630000000000006  0.3277499999999999  1.0000
  H   H2        1.0  0.17398000000000002  0.8734  0.32563  1.0000
  H   H3        1.0  0.3642700000000001  0.69574  0.4558199999999999  1.0000
  H   H4        1.0  0.44629  0.73596  0.54042  1.0000
  H   H5        1.0  0.4746700000000001  0.02326  0.64673  1.0000
  H   H6        1.0  0.41678000000000015  0.1891  0.6375199999999998  1.0000
  H   H7        1.0  0.22297  0.36204  0.50605  1.0000
  H   H8        1.0  0.10979000000000001  0.31083  0.4353399999999999  1.0000
  H   H9        1.0  0.16913000000000006  0.59088  0.33474999999999994  1.0000
  H   H10       1.0  0.14638  0.72141  0.38844  1.0000
  H   H11       1.0  0.4253500000000001  0.7974900000000003  0.3605399999999999  1.0000
  H   H12       1.0  0.44724  0.66895  0.3052799999999999  1.0000
  H   H13       1.0  0.44435000000000013  0.70974  0.68924  1.0000
  H   H14       1.0  0.35697000000000007  0.7975900000000002  0.6311499999999998  1.0000
  H   H15       1.0  0.60559  0.92631  0.58443  1.0000
  H   H16       1.0  0.69522  0.8323  0.63994  1.0000
  H   H17       1.0  0.50501  0.42963  0.62053  1.0000
  H   H18       1.0  0.48157  0.29718  0.56931  1.0000
  H   H19       1.0  0.19021000000000005  0.32129000000000013  0.59104  1.0000
  H   H20       1.0  0.21385000000000004  0.4540800000000001  0.6413599999999998  1.0000
  H   H21       1.0  0.027670000000000007  0.32845  0.2959999999999999  1.0000
  H   H22       1.0  0.14982  0.26052  0.3450099999999999  1.0000
  H   H23       1.0  0.95132  0.08725  0.41059999999999997  1.0000
  H   H24       1.0  0.8281500000000003  0.15645  0.3616899999999999  1.0000
  H   H25       1.0  0.90881  0.0307  0.17343  1.0000
  H   H26       1.0  0.82521  0.8733  0.17428  1.0000
  H   H27       1.0  0.6337900000000002  0.69554  0.04408  1.0000
  H   H28       1.0  0.54974  0.73677  0.9603399999999997  1.0000
  H   H29       1.0  0.5281200000000003  0.023620000000000006  0.85283  1.0000
  H   H30       1.0  0.58713  0.1897  0.86213  1.0000
  H   H31       1.0  0.77812  0.36383  0.9945299999999998  1.0000
  H   H32       1.0  0.8918000000000003  0.31205  0.06440999999999998  1.0000
  H   H33       1.0  0.8349300000000002  0.59473  0.16826  1.0000
  H   H34       1.0  0.8579700000000001  0.72553  0.11489999999999999  1.0000
  H   H35       1.0  0.57389  0.79229  0.13480999999999999  1.0000
  H   H36       1.0  0.5525000000000002  0.66523  0.19103  1.0000
  H   H37       1.0  0.5522200000000003  0.7059900000000002  0.8135399999999998  1.0000
  H   H38       1.0  0.6395100000000002  0.79289  0.8719299999999999  1.0000
  H   H39       1.0  0.39448  0.9348800000000003  0.9115699999999998  1.0000
  H   H40       1.0  0.30402  0.8402  0.85697  1.0000
  H   H41       1.0  0.4936800000000001  0.4293400000000001  0.8786099999999999  1.0000
  H   H42       1.0  0.5168300000000002  0.29538  0.9283599999999997  1.0000
  H   H43       1.0  0.80882  0.32688  0.9129  1.0000
  H   H44       1.0  0.7852700000000002  0.4596000000000001  0.86297  1.0000
  H   H45       1.0  0.97602  0.3361100000000001  0.19936  1.0000
  H   H46       1.0  0.8532800000000003  0.26895  0.15035  1.0000
  H   H47       1.0  0.04545  0.07846  0.09519  1.0000
  H   H48       1.0  0.16971000000000006  0.14836  0.143  1.0000
  H   H49       1.0  0.91307  0.9718900000000003  0.67216  1.0000
  H   H50       1.0  0.8247700000000002  0.12657  0.6746699999999998  1.0000
  H   H51       1.0  0.63385  0.30409  0.54484  1.0000
  H   H52       1.0  0.55106  0.26408  0.4605  1.0000
  H   H53       1.0  0.5242700000000001  0.9769000000000002  0.35336  1.0000
  H   H54       1.0  0.5839900000000002  0.81171  0.3621399999999999  1.0000
  H   H55       1.0  0.7794400000000002  0.63874  0.49329  1.0000
  H   H56       1.0  0.8921800000000002  0.69041  0.56402  1.0000
  H   H57       1.0  0.8295300000000002  0.41071000000000013  0.66379  1.0000
  H   H58       1.0  0.85265  0.27853  0.61152  1.0000
  H   H59       1.0  0.5733800000000002  0.20324  0.63999  1.0000
  H   H60       1.0  0.5515100000000001  0.33365  0.6938499999999999  1.0000
  H   H61       1.0  0.5540900000000001  0.29024  0.3109  1.0000
  H   H62       1.0  0.64092  0.20263  0.36941999999999997  1.0000
  H   H63       1.0  0.3916900000000001  0.07444  0.41556  1.0000
  H   H64       1.0  0.3028  0.16796  0.35964  1.0000
  H   H65       1.0  0.49263  0.57286  0.3796499999999999  1.0000
  H   H66       1.0  0.5181600000000002  0.70555  0.4301499999999999  1.0000
  H   H67       1.0  0.80921  0.67701  0.40847  1.0000
  H   H68       1.0  0.7833600000000002  0.5436  0.35912  1.0000
  H   H69       1.0  0.9746200000000003  0.67171  0.7031399999999999  1.0000
  H   H70       1.0  0.8521700000000002  0.7393900000000002  0.6543699999999998  1.0000
  H   H71       1.0  0.04998999999999999  0.9139700000000002  0.58927  1.0000
  H   H72       1.0  0.17351000000000005  0.84469  0.6377899999999997  1.0000
  H   H73       1.0  0.08638000000000004  0.9722900000000002  0.8283299999999998  1.0000
  H   H74       1.0  0.17502  0.12668  0.8257499999999998  1.0000
  H   H75       1.0  0.36579  0.3039  0.95585  1.0000
  H   H76       1.0  0.44891  0.26357  0.04000999999999998  1.0000
  H   H77       1.0  0.47655  0.97625  0.14670999999999998  1.0000
  H   H78       1.0  0.41576000000000013  0.8114500000000002  0.13816  1.0000
  H   H79       1.0  0.21996000000000004  0.63889  0.00698  1.0000
  H   H80       1.0  0.10743000000000001  0.6908  0.9362099999999998  1.0000
  H   H81       1.0  0.17049000000000006  0.4094  0.83573  1.0000
  H   H82       1.0  0.14696  0.27689  0.8876099999999999  1.0000
  H   H83       1.0  0.4279900000000001  0.20382  0.86164  1.0000
  H   H84       1.0  0.4498300000000001  0.3339  0.80766  1.0000
  H   H85       1.0  0.4461700000000001  0.28994  0.18893  1.0000
  H   H86       1.0  0.3597100000000001  0.20175  0.13043  1.0000
  H   H87       1.0  0.60928  0.07367  0.08456  1.0000
  H   H88       1.0  0.6979  0.16743  0.14055  1.0000
  H   H89       1.0  0.50678  0.57205  0.11985999999999997  1.0000
  H   H90       1.0  0.48132000000000014  0.70514  0.06967  1.0000
  H   H91       1.0  0.19031000000000006  0.67767  0.0919  1.0000
  H   H92       1.0  0.21608  0.54414  0.14117999999999997  1.0000
  H   H93       1.0  0.025219999999999996  0.6725400000000002  0.79695  1.0000
  H   H94       1.0  0.14755000000000004  0.73972  0.8459999999999998  1.0000
  H   H95       1.0  0.95011  0.91496  0.9110199999999998  1.0000
  H   H96       1.0  0.8264900000000002  0.84623  0.8622599999999998  1.0000
  C   C1        1.0  0.15409  0.04327  0.4000999999999999  1.0000
  C   C2        1.0  0.12975  0.0004399999999999999  0.3554599999999999  1.0000
  C   C3        1.0  0.17361000000000004  0.9216200000000002  0.35441  1.0000
  C   C4        1.0  0.22349000000000005  0.91423  0.39902  1.0000
  C   C5        1.0  0.27662  0.84254  0.41225  1.0000
  C   C6        1.0  0.3270000000000001  0.83694  0.4554899999999999  1.0000
  C   C7        1.0  0.3684100000000001  0.75877  0.47331  1.0000
  C   C8        1.0  0.4081100000000001  0.77877  0.51694  1.0000
  C   C9        1.0  0.3918300000000001  0.86949  0.52582  1.0000
  C   C10       1.0  0.4249  0.91687  0.56572  1.0000
  C   C11       1.0  0.4123700000000001  0.00617  0.57338  1.0000
  C   C12       1.0  0.4399400000000001  0.0524  0.61626  1.0000
  C   C13       1.0  0.4115500000000001  0.13678000000000004  0.6113  1.0000
  C   C14       1.0  0.36607  0.14353  0.56522  1.0000
  C   C15       1.0  0.32107  0.21873  0.54872  1.0000
  C   C16       1.0  0.25994  0.22067  0.50941  1.0000
  C   C17       1.0  0.2130100000000001  0.29668  0.49247999999999986  1.0000
  C   C18       1.0  0.15656  0.27087  0.45572  1.0000
  C   C19       1.0  0.17069000000000004  0.17948  0.44851999999999986  1.0000
  C   C20       1.0  0.1298  0.1291  0.41194  1.0000
  C   C21       1.0  0.30986  0.62184  0.3171799999999999  1.0000
  C   C22       1.0  0.22446  0.63706  0.3401099999999999  1.0000
  C   C23       1.0  0.2119300000000001  0.70974  0.37004  1.0000
  C   C24       1.0  0.28474  0.76733  0.37819999999999987  1.0000
  C   C25       1.0  0.3694300000000001  0.75239  0.35434  1.0000
  C   C26       1.0  0.38182000000000005  0.6811  0.3237199999999999  1.0000
  C   C27       1.0  0.3275  0.5422600000000002  0.28777  1.0000
  C   C28       1.0  0.5757000000000002  0.76355  0.66762  1.0000
  C   C29       1.0  0.4800500000000001  0.75558  0.6656  1.0000
  C   C30       1.0  0.4308900000000001  0.8056599999999999  0.63287  1.0000
  C   C31       1.0  0.47607  0.8664600000000002  0.60267  1.0000
  C   C32       1.0  0.57115  0.87711  0.60673  1.0000
  C   C33       1.0  0.62125  0.8254600000000002  0.6380799999999998  1.0000
  C   C34       1.0  0.6302600000000003  0.7087600000000002  0.70004  1.0000
  C   C35       1.0  0.36091  0.45012  0.63389  1.0000
  C   C36       1.0  0.43644  0.40606  0.6132299999999998  1.0000
  C   C37       1.0  0.4231600000000001  0.332  0.5850199999999998  1.0000
  C   C38       1.0  0.3343900000000001  0.30012  0.57674  1.0000
  C   C39       1.0  0.2589300000000001  0.34602  0.5967199999999999  1.0000
  C   C40       1.0  0.2719100000000001  0.42006  0.6248299999999999  1.0000
  C   C41       1.0  0.37413  0.52186  0.66912  1.0000
  C   C42       1.0  0.9200500000000003  0.24758  0.32666  1.0000
  C   C43       1.0  0.010840000000000006  0.27674  0.32172  1.0000
  C   C44       1.0  0.07927000000000001  0.23867  0.34928  1.0000
  C   C45       1.0  0.05819  0.17067  0.38178  1.0000
  C   C46       1.0  0.9673800000000002  0.14037  0.38568  1.0000
  C   C47       1.0  0.8987200000000002  0.17868  0.35852999999999996  1.0000
  C   C48       1.0  0.84627  0.29031000000000007  0.29957  1.0000
  C   C49       1.0  0.84669  0.04284  0.10016  1.0000
  C   C50       1.0  0.8690000000000002  0.00154  0.14486  1.0000
  C   C51       1.0  0.82591  0.92124  0.14538  1.0000
  C   C52       1.0  0.77905  0.91338  0.10060999999999998  1.0000
  C   C53       1.0  0.72522  0.84104  0.08668999999999998  1.0000
  C   C54       1.0  0.67392  0.83594  0.043889999999999985  1.0000
  C   C55       1.0  0.63042  0.75855  0.026549999999999997  1.0000
  C   C56       1.0  0.58988  0.77896  0.9831999999999997  1.0000
  C   C57       1.0  0.60809  0.86921  0.9738  1.0000
  C   C58       1.0  0.57356  0.91714  0.9344999999999998  1.0000
  C   C59       1.0  0.5858500000000001  0.00783  0.92688  1.0000
  C   C60       1.0  0.56098  0.05286  0.8838499999999999  1.0000
  C   C61       1.0  0.5905000000000002  0.13805  0.88884  1.0000
  C   C62       1.0  0.6326700000000001  0.14486  0.9350399999999998  1.0000
  C   C63       1.0  0.6778900000000002  0.22109  0.95238  1.0000
  C   C64       1.0  0.7393900000000002  0.22282  0.99146  1.0000
  C   C65       1.0  0.78721  0.29842  0.00813  1.0000
  C   C66       1.0  0.84368  0.27239  0.04482  1.0000
  C   C67       1.0  0.8280200000000002  0.18138  0.052629999999999996  1.0000
  C   C68       1.0  0.8703300000000002  0.13029  0.08835999999999998  1.0000
  C   C69       1.0  0.69198  0.62174  0.18242  1.0000
  C   C70       1.0  0.77865  0.6391900000000003  0.16135999999999998  1.0000
  C   C71       1.0  0.79126  0.71192  0.13156  1.0000
  C   C72       1.0  0.7169500000000001  0.76659  0.12086  1.0000
  C   C73       1.0  0.6308200000000003  0.74922  0.14272  1.0000
  C   C74       1.0  0.6187000000000001  0.6786500000000002  0.17378  1.0000
  C   C75       1.0  0.6744  0.54267  0.21199  1.0000
  C   C76       1.0  0.42183  0.7651900000000003  0.83229  1.0000
  C   C77       1.0  0.51696  0.75404  0.8359599999999998  1.0000
  C   C78       1.0  0.56611  0.80342  0.8689499999999998  1.0000
  C   C79       1.0  0.5221000000000001  0.8676300000000002  0.89758  1.0000
  C   C80       1.0  0.42792000000000013  0.8823900000000001  0.89124  1.0000
  C   C81       1.0  0.37747  0.83063  0.86011  1.0000
  C   C82       1.0  0.3669100000000001  0.7103300000000002  0.8002699999999998  1.0000
  C   C83       1.0  0.6379800000000002  0.45284  0.86772  1.0000
  C   C84       1.0  0.5622400000000002  0.4068  0.88684  1.0000
  C   C85       1.0  0.57535  0.33212000000000014  0.91441  1.0000
  C   C86       1.0  0.66435  0.30213  0.9246599999999998  1.0000
  C   C87       1.0  0.7399100000000002  0.35037  0.9063699999999998  1.0000
  C   C88       1.0  0.7270000000000001  0.42431  0.8782999999999999  1.0000
  C   C89       1.0  0.62544  0.5237900000000002  0.83222  1.0000
  C   C90       1.0  0.08078  0.24737  0.17322  1.0000
  C   C91       1.0  0.99137  0.28111  0.1756  1.0000
  C   C92       1.0  0.92282  0.24367  0.14803  1.0000
  C   C93       1.0  0.9419200000000002  0.17094000000000004  0.11829999999999997  1.0000
  C   C94       1.0  0.03107  0.13544000000000006  0.1176  1.0000
  C   C95       1.0  0.10019000000000003  0.17387  0.14424  1.0000
  C   C96       1.0  0.15441000000000005  0.29029  0.19997999999999994  1.0000
  C   C97       1.0  0.84611  0.95725  0.5998399999999998  1.0000
  C   C98       1.0  0.87017  1.9999999999999903e-05  0.6445499999999998  1.0000
  C   C99       1.0  0.8255800000000002  0.07850000000000003  0.64579  1.0000
  C   C100      1.0  0.77553  0.08577  0.60124  1.0000
  C   C101      1.0  0.7220100000000003  0.15731  0.58813  1.0000
  C   C102      1.0  0.67143  0.16291  0.54493  1.0000
  C   C103      1.0  0.62964  0.24109  0.5273099999999998  1.0000
  C   C104      1.0  0.5895100000000001  0.22117000000000006  0.4837999999999999  1.0000
  C   C105      1.0  0.6059400000000001  0.13052  0.4747  1.0000
  C   C106      1.0  0.573  0.08337000000000003  0.43466999999999995  1.0000
  C   C107      1.0  0.58677  0.9942500000000002  0.4266699999999999  1.0000
  C   C108      1.0  0.5595200000000001  0.9480400000000002  0.3837399999999999  1.0000
  C   C109      1.0  0.58879  0.86385  0.38849  1.0000
  C   C110      1.0  0.63452  0.85715  0.4344899999999999  1.0000
  C   C111      1.0  0.6798200000000002  0.7819  0.45085999999999987  1.0000
  C   C112      1.0  0.7413900000000001  0.77999  0.4900299999999999  1.0000
  C   C113      1.0  0.7889000000000002  0.7041700000000002  0.5068599999999999  1.0000
  C   C114      1.0  0.8452600000000002  0.7301700000000002  0.54361  1.0000
  C   C115      1.0  0.8305900000000003  0.82146  0.5509799999999999  1.0000
  C   C116      1.0  0.87126  0.87169  0.5877399999999999  1.0000
  C   C117      1.0  0.6889100000000002  0.38038  0.68157  1.0000
  C   C118      1.0  0.7743  0.36429  0.65884  1.0000
  C   C119      1.0  0.78692  0.29063  0.62968  1.0000
  C   C120      1.0  0.71404  0.23284  0.62201  1.0000
  C   C121      1.0  0.62935  0.24854  0.64574  1.0000
  C   C122      1.0  0.6169600000000002  0.32094  0.6755699999999999  1.0000
  C   C123      1.0  0.6718000000000002  0.4608  0.7104199999999999  1.0000
  C   C124      1.0  0.4225700000000001  0.23654  0.3320999999999999  1.0000
  C   C125      1.0  0.51819  0.24455000000000005  0.33453  1.0000
  C   C126      1.0  0.5670100000000002  0.19467  0.3674999999999999  1.0000
  C   C127      1.0  0.52165  0.13395  0.3977  1.0000
  C   C128      1.0  0.4265700000000001  0.12353  0.39338  1.0000
  C   C129      1.0  0.37674000000000013  0.17493  0.3616899999999999  1.0000
  C   C130      1.0  0.3693  0.29148000000000013  0.29914  1.0000
  C   C131      1.0  0.63642  0.5499100000000002  0.36642  1.0000
  C   C132      1.0  0.56161  0.59559  0.38673  1.0000
  C   C133      1.0  0.5761100000000002  0.6698000000000002  0.4146199999999999  1.0000
  C   C134      1.0  0.6654000000000002  0.70052  0.42296  1.0000
  C   C135      1.0  0.7400300000000001  0.6532500000000002  0.40304999999999996  1.0000
  C   C136      1.0  0.72587  0.57894  0.37534999999999996  1.0000
  C   C137      1.0  0.6222900000000001  0.4769600000000001  0.3321199999999999  1.0000
  C   C138      1.0  0.08204000000000002  0.75313  0.67288  1.0000
  C   C139      1.0  0.9912800000000003  0.72366  0.6775699999999998  1.0000
  C   C140      1.0  0.9226100000000003  0.76164  0.6501  1.0000
  C   C141      1.0  0.9432600000000002  0.83011  0.6177999999999998  1.0000
  C   C142      1.0  0.03409000000000001  0.86051  0.61399  1.0000
  C   C143      1.0  0.10303000000000004  0.82216  0.6410199999999998  1.0000
  C   C144      1.0  0.15553000000000006  0.71082  0.70059  1.0000
  C   C145      1.0  0.15393000000000007  0.9573900000000001  0.90045  1.0000
  C   C146      1.0  0.12966  0.00020999999999999995  0.85584  1.0000
  C   C147      1.0  0.17436000000000004  0.07858  0.85458  1.0000
  C   C148      1.0  0.22463  0.08569999999999998  0.8990599999999997  1.0000
  C   C149      1.0  0.27846  0.15701  0.9121799999999998  1.0000
  C   C150      1.0  0.32912000000000013  0.16249000000000005  0.9553299999999998  1.0000
  C   C151      1.0  0.3705200000000001  0.24074  0.9731399999999999  1.0000
  C   C152      1.0  0.4108100000000001  0.22066  0.016569999999999998  1.0000
  C   C153      1.0  0.39483  0.1299  0.02544  1.0000
  C   C154      1.0  0.42788  0.08270000000000002  0.06538  1.0000
  C   C155      1.0  0.41389  0.99367  0.07344  1.0000
  C   C156      1.0  0.44104  0.9475  0.11639  1.0000
  C   C157      1.0  0.41132  0.86344  0.11172  1.0000
  C   C158      1.0  0.3654900000000001  0.85687  0.06573  1.0000
  C   C159      1.0  0.31983  0.78185  0.04937  1.0000
  C   C160      1.0  0.25832  0.7800700000000003  0.01021  1.0000
  C   C161      1.0  0.21072  0.70431  0.9933699999999998  1.0000
  C   C162      1.0  0.15447000000000002  0.73041  0.9566099999999998  1.0000
  C   C163      1.0  0.16933  0.82163  0.9492499999999998  1.0000
  C   C164      1.0  0.12871  0.87191  0.9125399999999999  1.0000
  C   C165      1.0  0.3118800000000001  0.38  0.81918  1.0000
  C   C166      1.0  0.22594000000000006  0.36335  0.8411399999999998  1.0000
  C   C167      1.0  0.21311000000000005  0.28951  0.87003  1.0000
  C   C168      1.0  0.28645  0.23243000000000005  0.87837  1.0000
  C   C169      1.0  0.37168  0.24859  0.8553199999999997  1.0000
  C   C170      1.0  0.38412  0.32091  0.8255399999999999  1.0000
  C   C171      1.0  0.3291800000000001  0.46068  0.79089  1.0000
  C   C172      1.0  0.5778800000000002  0.23617  0.16784  1.0000
  C   C173      1.0  0.48224  0.24414  0.16538  1.0000
  C   C174      1.0  0.4336300000000001  0.19398  0.13247999999999996  1.0000
  C   C175      1.0  0.4792400000000001  0.13325  0.10233  1.0000
  C   C176      1.0  0.5743100000000001  0.12285  0.10670999999999999  1.0000
  C   C177      1.0  0.62396  0.1744  0.13838  1.0000
  C   C178      1.0  0.63101  0.29125  0.20070999999999994  1.0000
  C   C179      1.0  0.36307  0.54985  0.13342  1.0000
  C   C180      1.0  0.43786  0.59519  0.11296  1.0000
  C   C181      1.0  0.42341  0.66951  0.08523999999999997  1.0000
  C   C182      1.0  0.33408  0.70048  0.07718  1.0000
  C   C183      1.0  0.2594200000000001  0.65354  0.09718  1.0000
  C   C184      1.0  0.27355  0.5792  0.12481999999999997  1.0000
  C   C185      1.0  0.37773  0.47689  0.16749  1.0000
  C   C186      1.0  0.9178  0.75446  0.82715  1.0000
  C   C187      1.0  0.008510000000000002  0.72458  0.82252  1.0000
  C   C188      1.0  0.07714000000000006  0.76216  0.8501399999999998  1.0000
  C   C189      1.0  0.05658  0.8306400000000003  0.88249  1.0000
  C   C190      1.0  0.9658800000000002  0.8615000000000003  0.88623  1.0000
  C   C191      1.0  0.8969300000000001  0.82348  0.8590899999999998  1.0000
  C   C192      1.0  0.8442700000000002  0.71224  0.79947  1.0000
  N   N1        1.0  0.21091000000000004  0.9892900000000002  0.4268099999999999  1.0000
  N   N2        1.0  0.34155  0.90436  0.4879999999999999  1.0000
  N   N3        1.0  0.36763  0.06309  0.5422  1.0000
  N   N4        1.0  0.23392  0.14919  0.4819099999999999  1.0000
  N   N5        1.0  0.7917  0.9884400000000002  0.07265999999999999  1.0000
  N   N6        1.0  0.66062  0.90329  0.01098  1.0000
  N   N7        1.0  0.62964  0.06466  0.9586099999999997  1.0000
  N   N8        1.0  0.7639300000000002  0.15144  0.019589999999999996  1.0000
  N   N9        1.0  0.78858  0.010910000000000003  0.5733199999999999  1.0000
  N   N10       1.0  0.65677  0.09561  0.51236  1.0000
  N   N11       1.0  0.63236  0.9374500000000001  0.45763  1.0000
  N   N12       1.0  0.7670700000000003  0.8515300000000002  0.51764  1.0000
  N   N13       1.0  0.21168000000000006  0.010880000000000004  0.9269199999999997  1.0000
  N   N14       1.0  0.34412  0.09506000000000002  0.98772  1.0000
  N   N15       1.0  0.36791  0.93704  0.04257  1.0000
  N   N16       1.0  0.2328000000000001  0.8516300000000002  0.9826199999999998  1.0000
  O   O1        1.0  0.4057  0.53565  0.26653  1.0000
  O   O2        1.0  0.26383000000000006  0.4844400000000001  0.28581  1.0000
  O   O3        1.0  0.59316  0.65827  0.73344  1.0000
  O   O4        1.0  0.7173900000000002  0.70999  0.6976399999999999  1.0000
  O   O5        1.0  0.4543700000000001  0.5457000000000001  0.68037  1.0000
  O   O6        1.0  0.30042  0.55431  0.68845  1.0000
  O   O7        1.0  0.8659800000000001  0.35491  0.2701799999999999  1.0000
  O   O8        1.0  0.76282  0.26783  0.30468  1.0000
  O   O9        1.0  0.5960500000000002  0.53592  0.23320999999999997  1.0000
  O   O10       1.0  0.7377700000000003  0.48456  0.21425999999999995  1.0000
  O   O11       1.0  0.40317  0.65829  0.76705  1.0000
  O   O12       1.0  0.27966  0.71209  0.80249  1.0000
  O   O13       1.0  0.54529  0.54907  0.8210699999999997  1.0000
  O   O14       1.0  0.6992100000000002  0.55446  0.8120899999999998  1.0000
  O   O15       1.0  0.13447000000000003  0.3558500000000001  0.22876999999999995  1.0000
  O   O16       1.0  0.23811000000000004  0.26766  0.19553  1.0000
  O   O17       1.0  0.5934600000000002  0.46817  0.7315699999999999  1.0000
  O   O18       1.0  0.7357300000000002  0.51832  0.7119  1.0000
  O   O19       1.0  0.4073000000000001  0.34256  0.26670999999999995  1.0000
  O   O20       1.0  0.2817500000000001  0.2899100000000001  0.30024999999999996  1.0000
  O   O21       1.0  0.54148  0.45471  0.32035999999999987  1.0000
  O   O22       1.0  0.6951  0.44088  0.31433  1.0000
  O   O23       1.0  0.13455  0.64775  0.73082  1.0000
  O   O24       1.0  0.2394  0.73205  0.69544  1.0000
  O   O25       1.0  0.40698  0.46763  0.76908  1.0000
  O   O26       1.0  0.2659000000000001  0.51904  0.79027  1.0000
  O   O27       1.0  0.5927  0.34258  0.23312999999999995  1.0000
  O   O28       1.0  0.71841  0.28985  0.19970999999999997  1.0000
  O   O29       1.0  0.4588600000000001  0.4546400000000001  0.17874999999999996  1.0000
  O   O30       1.0  0.3052300000000001  0.4407700000000001  0.18561  1.0000
  O   O31       1.0  0.8654400000000001  0.6494100000000003  0.76906  1.0000
  O   O32       1.0  0.76018  0.73277  0.8048899999999998  1.0000
