data_image0
_chemical_formula_structural       Zn8H112C160N32O40
_chemical_formula_sum              "Zn8 H112 C160 N32 O40"
_cell_length_a       14.72596
_cell_length_b       20.40918
_cell_length_c       20.03605
_cell_angle_alpha    120.12176
_cell_angle_beta     112.00426
_cell_angle_gamma    90.03202999999999

_symmetry_space_group_name_H-M    'P 1'
_symmetry_Int_Tables_number       1

loop_
  _symmetry_equiv_pos_as_xyz
  'x,y,z'

loop_
  _atom_site_type_symbol
  _atom_site_label
  _atom_site_symmetry_multiplicity
  _atom_site_fract_x
  _atom_site_fract_y
  _atom_site_fract_z
  _atom_site_occupancy
  Zn  Zn1       1.0  0.2544599999999999  0.34329999999999994  0.2853999999999999  1.0000
  Zn  Zn2       1.0  0.030219999999999993  0.44144999999999995  0.28302  1.0000
  Zn  Zn3       1.0  0.7537899999999998  0.94184  0.28345  1.0000
  Zn  Zn4       1.0  0.53114  0.8434099999999999  0.2854599999999999  1.0000
  Zn  Zn5       1.0  0.2461999999999999  0.0581599999999999  0.7165399999999997  1.0000
  Zn  Zn6       1.0  0.46885  0.15659  0.71454  1.0000
  Zn  Zn7       1.0  0.7455299999999996  0.6567  0.7145999999999998  1.0000
  Zn  Zn8       1.0  0.9697700000000001  0.55854  0.71698  1.0000
  H   H1        1.0  0.38416999999999996  0.50477  0.43935999999999986  1.0000
  H   H2        1.0  0.4587399999999998  0.5834199999999999  0.5973699999999997  1.0000
  H   H3        1.0  0.31723  0.38891  0.58444  1.0000
  H   H4        1.0  0.24894  0.31679  0.42361  1.0000
  H   H5        1.0  0.54338  0.75428  0.83606  1.0000
  H   H6        1.0  0.59906  0.8837499999999999  0.9742999999999998  1.0000
  H   H7        1.0  0.67985  0.9617  0.13498  1.0000
  H   H8        1.0  0.70528  0.7624799999999999  0.14063999999999993  1.0000
  H   H9        1.0  0.62214  0.67643  0.981  1.0000
  H   H10       1.0  0.36152  0.015299999999999942  0.2794199999999999  1.0000
  H   H11       1.0  0.29688999999999993  0.12986999999999996  0.2838699999999999  1.0000
  H   H12       1.0  0.57046  0.21633999999999998  0.2921799999999999  1.0000
  H   H13       1.0  0.63258  0.09935  0.28449  1.0000
  H   H14       1.0  0.4975799999999998  0.63708  0.7182099999999998  1.0000
  H   H15       1.0  0.05544000000000002  0.43401  0.4382  1.0000
  H   H16       1.0  0.13768  0.51375  0.59626  1.0000
  H   H17       1.0  0.2650699999999998  0.6945499999999999  0.5814799999999998  1.0000
  H   H18       1.0  0.17428999999999994  0.60527  0.4207299999999999  1.0000
  H   H19       1.0  0.2938899999999999  0.58284  0.83747  1.0000
  H   H20       1.0  0.3767899999999999  0.5924  0.9777  1.0000
  H   H21       1.0  0.45611  0.6751  0.13815  1.0000
  H   H22       1.0  0.43381  0.8772799999999998  0.13863999999999996  1.0000
  H   H23       1.0  0.35781  0.804  0.97915  1.0000
  H   H24       1.0  0.9184299999999997  0.76526  0.28055  1.0000
  H   H25       1.0  0.9859999999999999  0.65357  0.28225  1.0000
  H   H26       1.0  0.72138  0.5756799999999999  0.29108  1.0000
  H   H27       1.0  0.65274  0.68652  0.28624  1.0000
  H   H28       1.0  0.22069  0.58097  0.71767  1.0000
  H   H29       1.0  0.88385  0.9347799999999999  0.43986  1.0000
  H   H30       1.0  0.9588599999999997  0.014190000000000005  0.59785  1.0000
  H   H31       1.0  0.8149099999999998  0.1934399999999999  0.5804899999999997  1.0000
  H   H32       1.0  0.7468099999999999  0.10489999999999995  0.41993  1.0000
  H   H33       1.0  0.0445799999999999  0.08269999999999994  0.8375999999999998  1.0000
  H   H34       1.0  0.10079999999999992  0.09216999999999992  0.9777599999999997  1.0000
  H   H35       1.0  0.18121  0.17505999999999997  0.13828  1.0000
  H   H36       1.0  0.20425  0.37735  0.13884  1.0000
  H   H37       1.0  0.12148999999999997  0.3036299999999999  0.97915  1.0000
  H   H38       1.0  0.8621599999999998  0.26477  0.27973  1.0000
  H   H39       1.0  0.79706  0.15467  0.28397  1.0000
  H   H40       1.0  0.06997  0.07585999999999997  0.29201  1.0000
  H   H41       1.0  0.13332000000000002  0.18570000000000003  0.28543  1.0000
  H   H42       1.0  0.99851  0.08153000000000002  0.71871  1.0000
  H   H43       1.0  0.5556999999999996  0.005309999999999971  0.4389899999999999  1.0000
  H   H44       1.0  0.63875  0.08326999999999993  0.59695  1.0000
  H   H45       1.0  0.76813  0.8895699999999999  0.58548  1.0000
  H   H46       1.0  0.6758  0.8180999999999999  0.4244499999999999  1.0000
  H   H47       1.0  0.7926899999999999  0.2533799999999999  0.8350799999999998  1.0000
  H   H48       1.0  0.8751699999999997  0.38376999999999994  0.9741199999999998  1.0000
  H   H49       1.0  0.9549399999999997  0.4614199999999999  0.13475999999999994  1.0000
  H   H50       1.0  0.9346899999999998  0.26179  0.13957  1.0000
  H   H51       1.0  0.8582999999999998  0.1759899999999998  0.9800599999999998  1.0000
  H   H52       1.0  0.41844  0.51545  0.2797399999999999  1.0000
  H   H53       1.0  0.4873799999999999  0.63011  0.2841799999999999  1.0000
  H   H54       1.0  0.22205999999999998  0.7159699999999999  0.2924299999999999  1.0000
  H   H55       1.0  0.1523599999999999  0.5987999999999999  0.2845699999999999  1.0000
  H   H56       1.0  0.7210299999999998  0.13619999999999988  0.7176399999999997  1.0000
  H   H57       1.0  0.11613999999999987  0.06521999999999988  0.5601399999999997  1.0000
  H   H58       1.0  0.041139999999999996  0.98581  0.40215  1.0000
  H   H59       1.0  0.18508999999999995  0.80656  0.4195099999999999  1.0000
  H   H60       1.0  0.25319  0.8950900000000002  0.58007  1.0000
  H   H61       1.0  0.95541  0.9173  0.16239999999999993  1.0000
  H   H62       1.0  0.89919  0.90782  0.022239999999999992  1.0000
  H   H63       1.0  0.81878  0.82493  0.8617199999999998  1.0000
  H   H64       1.0  0.79574  0.62265  0.86116  1.0000
  H   H65       1.0  0.8785  0.69636  0.02085  1.0000
  H   H66       1.0  0.13782999999999987  0.7352199999999998  0.7202699999999997  1.0000
  H   H67       1.0  0.20293000000000005  0.84533  0.71603  1.0000
  H   H68       1.0  0.93002  0.92414  0.70799  1.0000
  H   H69       1.0  0.8666799999999997  0.8142999999999999  0.7145699999999998  1.0000
  H   H70       1.0  0.001480000000000007  0.9184699999999999  0.28129  1.0000
  H   H71       1.0  0.44428999999999985  0.99469  0.5609999999999998  1.0000
  H   H72       1.0  0.36124  0.91673  0.40305  1.0000
  H   H73       1.0  0.23185999999999996  0.11041999999999996  0.4145099999999999  1.0000
  H   H74       1.0  0.32418999999999987  0.18188999999999989  0.5755499999999998  1.0000
  H   H75       1.0  0.20729999999999998  0.74661  0.16492  1.0000
  H   H76       1.0  0.12482  0.61623  0.02588  1.0000
  H   H77       1.0  0.04504999999999996  0.53857  0.86524  1.0000
  H   H78       1.0  0.06529999999999986  0.7381999999999997  0.8604299999999998  1.0000
  H   H79       1.0  0.14169  0.8240099999999999  0.019939999999999992  1.0000
  H   H80       1.0  0.58156  0.48455  0.72026  1.0000
  H   H81       1.0  0.5126099999999998  0.36988  0.71582  1.0000
  H   H82       1.0  0.77793  0.28403000000000006  0.70756  1.0000
  H   H83       1.0  0.8476299999999999  0.40119999999999983  0.7154299999999998  1.0000
  H   H84       1.0  0.27896  0.8638  0.2823599999999999  1.0000
  H   H85       1.0  0.6158199999999999  0.49522999999999995  0.5606399999999998  1.0000
  H   H86       1.0  0.5412499999999999  0.41658  0.4026299999999999  1.0000
  H   H87       1.0  0.68276  0.61109  0.4155599999999999  1.0000
  H   H88       1.0  0.75105  0.68321  0.5763799999999998  1.0000
  H   H89       1.0  0.45661  0.24572  0.16392999999999994  1.0000
  H   H90       1.0  0.40093  0.11624  0.025699999999999994  1.0000
  H   H91       1.0  0.32013999999999987  0.038299999999999855  0.8650199999999998  1.0000
  H   H92       1.0  0.29471  0.23751999999999993  0.8593599999999998  1.0000
  H   H93       1.0  0.37785  0.32357  0.018999999999999993  1.0000
  H   H94       1.0  0.63847  0.9846899999999997  0.7205799999999998  1.0000
  H   H95       1.0  0.7031  0.87013  0.71613  1.0000
  H   H96       1.0  0.42952999999999997  0.7836499999999998  0.7078099999999998  1.0000
  H   H97       1.0  0.36741  0.90064  0.71551  1.0000
  H   H98       1.0  0.50241  0.3629199999999999  0.2817899999999999  1.0000
  H   H99       1.0  0.9445499999999998  0.5659899999999999  0.5617999999999997  1.0000
  H   H100      1.0  0.86231  0.48624999999999996  0.40374  1.0000
  H   H101      1.0  0.73492  0.30545  0.41852  1.0000
  H   H102      1.0  0.8257  0.39472  0.57927  1.0000
  H   H103      1.0  0.7060999999999996  0.41716  0.16252999999999995  1.0000
  H   H104      1.0  0.6231999999999998  0.40758999999999995  0.022299999999999993  1.0000
  H   H105      1.0  0.54388  0.32489999999999997  0.86185  1.0000
  H   H106      1.0  0.56618  0.12270999999999986  0.8613599999999998  1.0000
  H   H107      1.0  0.64218  0.196  0.02085  1.0000
  H   H108      1.0  0.08155999999999991  0.23472999999999988  0.7194399999999997  1.0000
  H   H109      1.0  0.013989999999999878  0.34642999999999985  0.7177499999999998  1.0000
  H   H110      1.0  0.27861  0.42432  0.70891  1.0000
  H   H111      1.0  0.34725  0.31347  0.71376  1.0000
  H   H112      1.0  0.7793  0.41903  0.28233  1.0000
  C   C1        1.0  0.37072  0.48136999999999996  0.47393  1.0000
  C   C2        1.0  0.4121299999999999  0.5250099999999998  0.5629699999999997  1.0000
  C   C3        1.0  0.39244  0.49229  0.6045  1.0000
  C   C4        1.0  0.33327  0.41585999999999995  0.55377  1.0000
  C   C5        1.0  0.29522  0.37611  0.46511  1.0000
  C   C6        1.0  0.4293499999999998  0.5338399999999998  0.6999199999999998  1.0000
  C   C7        1.0  0.5546599999999999  0.7255399999999999  0.8713099999999998  1.0000
  C   C8        1.0  0.60319  0.77306  0.96448  1.0000
  C   C9        1.0  0.62107  0.8547300000000001  0.009019999999999997  1.0000
  C   C10       1.0  0.6658099999999998  0.89841  0.09811999999999997  1.0000
  C   C11       1.0  0.6794499999999999  0.7871699999999999  0.10177999999999997  1.0000
  C   C12       1.0  0.63397  0.73942  0.013279999999999997  1.0000
  C   C13       1.0  0.5016300000000001  0.05163  0.28403  1.0000
  C   C14       1.0  0.40679  0.05997  0.28319  1.0000
  C   C15       1.0  0.371  0.12381999999999999  0.28563  1.0000
  C   C16       1.0  0.43077  0.18104  0.29036  1.0000
  C   C17       1.0  0.5253999999999998  0.17251  0.29025  1.0000
  C   C18       1.0  0.56023  0.10766999999999999  0.2862  1.0000
  C   C19       1.0  0.39286  0.25048  0.29445  1.0000
  C   C20       1.0  0.5397899999999998  0.9831399999999999  0.2822199999999999  1.0000
  C   C21       1.0  0.10292999999999988  0.49191  0.4724299999999999  1.0000
  C   C22       1.0  0.14991999999999991  0.53757  0.5615199999999998  1.0000
  C   C23       1.0  0.21053999999999984  0.61172  0.6026599999999998  1.0000
  C   C24       1.0  0.2189899999999998  0.63702  0.5513099999999997  1.0000
  C   C25       1.0  0.16917999999999994  0.5878  0.46261999999999986  1.0000
  C   C26       1.0  0.26849  0.6658  0.6982  1.0000
  C   C27       1.0  0.3166799999999999  0.6463499999999999  0.87165  1.0000
  C   C28       1.0  0.3613499999999999  0.6919299999999999  0.9648899999999998  1.0000
  C   C29       1.0  0.38872  0.65554  0.01098  1.0000
  C   C30       1.0  0.4328999999999999  0.7009299999999999  0.10009999999999997  1.0000
  C   C31       1.0  0.42148  0.8143399999999998  0.10092  1.0000
  C   C32       1.0  0.3785999999999999  0.77364  0.012359999999999996  1.0000
  C   C33       1.0  0.78338  0.73375  0.28581  1.0000
  C   C34       1.0  0.87681  0.7240599999999999  0.2839299999999999  1.0000
  C   C35       1.0  0.9142099999999999  0.6618399999999998  0.28487  1.0000
  C   C36       1.0  0.85913  0.60909  0.28925  1.0000
  C   C37       1.0  0.7647599999999998  0.61793  0.28982999999999987  1.0000
  C   C38       1.0  0.72654  0.67955  0.2872999999999999  1.0000
  C   C39       1.0  0.90079  0.5431599999999999  0.2924299999999999  1.0000
  C   C40       1.0  0.74446  0.80116  0.28511  1.0000
  C   C41       1.0  0.87022  0.99234  0.4735099999999999  1.0000
  C   C42       1.0  0.91171  0.03772999999999999  0.56253  1.0000
  C   C43       1.0  0.8912999999999999  0.11128  0.60281  1.0000
  C   C44       1.0  0.8315299999999999  0.1363799999999999  0.5508799999999998  1.0000
  C   C45       1.0  0.79362  0.08756000000000004  0.46233  1.0000
  C   C46       1.0  0.92796  0.16494999999999996  0.69806  1.0000
  C   C47       1.0  0.0553399999999999  0.14610999999999982  0.8718999999999998  1.0000
  C   C48       1.0  0.10376999999999997  0.19169999999999998  0.96512  1.0000
  C   C49       1.0  0.12222  0.15535  0.011169999999999996  1.0000
  C   C50       1.0  0.16681  0.20088000000000003  0.10027  1.0000
  C   C51       1.0  0.17917  0.31431  0.10109999999999997  1.0000
  C   C52       1.0  0.13383  0.27345  0.01251  1.0000
  C   C53       1.0  0.00253999999999994  0.2332199999999999  0.2850699999999999  1.0000
  C   C54       1.0  0.90749  0.22397999999999993  0.2838199999999999  1.0000
  C   C55       1.0  0.87114  0.16234  0.28569  1.0000
  C   C56       1.0  0.93031  0.10938999999999999  0.28989  1.0000
  C   C57       1.0  0.025239999999999978  0.11794999999999999  0.29031  1.0000
  C   C58       1.0  0.06087  0.17916  0.28706  1.0000
  C   C59       1.0  0.8909699999999999  0.04316  0.29215  1.0000
  C   C60       1.0  0.040499999999999946  0.30018  0.28349999999999986  1.0000
  C   C61       1.0  0.6035799999999999  0.98182  0.4738599999999999  1.0000
  C   C62       1.0  0.65112  0.025129999999999982  0.56296  1.0000
  C   C63       1.0  0.71235  0.99238  0.60491  1.0000
  C   C64       1.0  0.72119  0.9164200000000001  0.5545  1.0000
  C   C65       1.0  0.6706699999999999  0.8770299999999999  0.4657699999999999  1.0000
  C   C66       1.0  0.77078  0.03348999999999989  0.7004699999999998  1.0000
  C   C67       1.0  0.8167199999999999  0.22504999999999986  0.8708099999999998  1.0000
  C   C68       1.0  0.86115  0.27279  0.96391  1.0000
  C   C69       1.0  0.8877899999999999  0.35452  0.00858  1.0000
  C   C70       1.0  0.93201  0.39809  0.09768  1.0000
  C   C71       1.0  0.9217599999999999  0.2866699999999999  0.10096999999999998  1.0000
  C   C72       1.0  0.87889  0.23903000000000002  0.01252  1.0000
  C   C73       1.0  0.28318  0.55159  0.28449  1.0000
  C   C74       1.0  0.37706999999999996  0.56011  0.28358  1.0000
  C   C75       1.0  0.41514  0.624  0.286  1.0000
  C   C76       1.0  0.3600499999999999  0.6811199999999998  0.2907399999999999  1.0000
  C   C77       1.0  0.2653099999999999  0.6722999999999999  0.29054999999999986  1.0000
  C   C78       1.0  0.22650999999999988  0.60737  0.2864699999999999  1.0000
  C   C79       1.0  0.40209  0.7506100000000001  0.29474  1.0000
  C   C80       1.0  0.2436999999999999  0.48293  0.28266999999999987  1.0000
  C   C81       1.0  0.12976999999999994  0.007659999999999989  0.52649  1.0000
  C   C82       1.0  0.08827999999999993  0.96227  0.4374699999999999  1.0000
  C   C83       1.0  0.10869  0.8887099999999999  0.39719  1.0000
  C   C84       1.0  0.16846  0.86362  0.44912  1.0000
  C   C85       1.0  0.20637  0.91244  0.53767  1.0000
  C   C86       1.0  0.07203999999999997  0.83505  0.30193  1.0000
  C   C87       1.0  0.94465  0.8538799999999999  0.12809  1.0000
  C   C88       1.0  0.89623  0.8083000000000001  0.03487999999999999  1.0000
  C   C89       1.0  0.8777699999999998  0.84465  0.98883  1.0000
  C   C90       1.0  0.83318  0.79912  0.8997299999999998  1.0000
  C   C91       1.0  0.82083  0.68568  0.8988999999999998  1.0000
  C   C92       1.0  0.86616  0.72654  0.98748  1.0000
  C   C93       1.0  0.99745  0.7667699999999998  0.7149299999999997  1.0000
  C   C94       1.0  0.09250000000000003  0.77602  0.71618  1.0000
  C   C95       1.0  0.12885  0.8376599999999998  0.7143  1.0000
  C   C96       1.0  0.06968  0.8906099999999999  0.7101  1.0000
  C   C97       1.0  0.9747499999999997  0.88204  0.70969  1.0000
  C   C98       1.0  0.93913  0.8208400000000001  0.7129399999999998  1.0000
  C   C99       1.0  0.10901999999999995  0.95684  0.7078499999999998  1.0000
  C   C100      1.0  0.9594899999999998  0.6998199999999999  0.7164999999999998  1.0000
  C   C101      1.0  0.39641  0.01817  0.52614  1.0000
  C   C102      1.0  0.34886999999999996  0.9748699999999998  0.43702999999999986  1.0000
  C   C103      1.0  0.2876399999999999  0.007619999999999941  0.3950899999999999  1.0000
  C   C104      1.0  0.2788  0.08357  0.44549  1.0000
  C   C105      1.0  0.32932  0.12297  0.53423  1.0000
  C   C106      1.0  0.22921  0.9665  0.29953  1.0000
  C   C107      1.0  0.18327  0.77494  0.12919  1.0000
  C   C108      1.0  0.13884  0.7272  0.03609  1.0000
  C   C109      1.0  0.11220000000000004  0.64547  0.99142  1.0000
  C   C110      1.0  0.06797999999999997  0.6019000000000001  0.90232  1.0000
  C   C111      1.0  0.07822999999999987  0.71333  0.8990299999999998  1.0000
  C   C112      1.0  0.12110000000000004  0.76097  0.98748  1.0000
  C   C113      1.0  0.71681  0.44841  0.71551  1.0000
  C   C114      1.0  0.6229299999999999  0.43988999999999984  0.7164199999999997  1.0000
  C   C115      1.0  0.5848599999999999  0.3759899999999998  0.7139999999999997  1.0000
  C   C116      1.0  0.63994  0.3188799999999999  0.7092599999999998  1.0000
  C   C117      1.0  0.7346799999999999  0.3276899999999998  0.7094499999999998  1.0000
  C   C118      1.0  0.7734799999999995  0.3926299999999999  0.7135299999999998  1.0000
  C   C119      1.0  0.5979  0.24939000000000003  0.70526  1.0000
  C   C120      1.0  0.75629  0.51707  0.7173299999999998  1.0000
  C   C121      1.0  0.62927  0.51863  0.52607  1.0000
  C   C122      1.0  0.58786  0.47497999999999996  0.43702999999999986  1.0000
  C   C123      1.0  0.60755  0.50771  0.39549999999999996  1.0000
  C   C124      1.0  0.66672  0.58414  0.4462299999999999  1.0000
  C   C125      1.0  0.70477  0.62389  0.53489  1.0000
  C   C126      1.0  0.5706399999999998  0.46616  0.30008  1.0000
  C   C127      1.0  0.44533  0.27446  0.12869  1.0000
  C   C128      1.0  0.3968  0.22694000000000003  0.03552  1.0000
  C   C129      1.0  0.37893  0.14526  0.99097  1.0000
  C   C130      1.0  0.3341799999999998  0.10158999999999993  0.9018799999999998  1.0000
  C   C131      1.0  0.3205399999999998  0.21281999999999987  0.8982099999999997  1.0000
  C   C132      1.0  0.3660199999999999  0.2605799999999998  0.9867099999999998  1.0000
  C   C133      1.0  0.49836  0.9483599999999999  0.7159699999999998  1.0000
  C   C134      1.0  0.5931999999999998  0.9400199999999999  0.7168099999999998  1.0000
  C   C135      1.0  0.62899  0.8761799999999998  0.71437  1.0000
  C   C136      1.0  0.5692299999999999  0.81895  0.7096399999999998  1.0000
  C   C137      1.0  0.4745899999999999  0.82749  0.7097499999999998  1.0000
  C   C138      1.0  0.43976  0.89233  0.7138  1.0000
  C   C139      1.0  0.60713  0.74952  0.70554  1.0000
  C   C140      1.0  0.4601999999999998  0.01684999999999987  0.7177799999999998  1.0000
  C   C141      1.0  0.8970599999999999  0.5080899999999999  0.5275699999999998  1.0000
  C   C142      1.0  0.85008  0.46243  0.43847999999999987  1.0000
  C   C143      1.0  0.78945  0.38827999999999996  0.39733999999999997  1.0000
  C   C144      1.0  0.7809999999999998  0.36297999999999997  0.44868999999999987  1.0000
  C   C145      1.0  0.83081  0.4122  0.53738  1.0000
  C   C146      1.0  0.7314999999999998  0.33419  0.3018  1.0000
  C   C147      1.0  0.68332  0.35364  0.12834999999999994  1.0000
  C   C148      1.0  0.63864  0.30807  0.03510999999999999  1.0000
  C   C149      1.0  0.61127  0.34445999999999993  0.9890199999999999  1.0000
  C   C150      1.0  0.5671  0.2990600000000001  0.8999  1.0000
  C   C151      1.0  0.57851  0.18565999999999983  0.8990799999999998  1.0000
  C   C152      1.0  0.6213899999999998  0.22635999999999987  0.9876399999999997  1.0000
  C   C153      1.0  0.21660999999999989  0.2662499999999999  0.7141899999999998  1.0000
  C   C154      1.0  0.12317999999999993  0.27592999999999984  0.7160699999999998  1.0000
  C   C155      1.0  0.08578000000000004  0.33816  0.71513  1.0000
  C   C156      1.0  0.14085999999999982  0.3909099999999998  0.7107499999999998  1.0000
  C   C157      1.0  0.23523  0.38207  0.71017  1.0000
  C   C158      1.0  0.27345999999999987  0.3204399999999999  0.7126999999999998  1.0000
  C   C159      1.0  0.09920999999999987  0.4568399999999999  0.7075699999999998  1.0000
  C   C160      1.0  0.25553  0.19883  0.71489  1.0000
  N   N1        1.0  0.31259  0.40845999999999993  0.42514999999999986  1.0000
  N   N2        1.0  0.48284  0.60992  0.74628  1.0000
  N   N3        1.0  0.52398  0.6507599999999999  0.8331099999999998  1.0000
  N   N4        1.0  0.69516  0.86571  0.14465  1.0000
  N   N5        1.0  0.11242999999999997  0.51566  0.4231299999999999  1.0000
  N   N6        1.0  0.26229999999999987  0.6363  0.7453399999999998  1.0000
  N   N7        1.0  0.30769999999999986  0.68235  0.8321799999999998  1.0000
  N   N8        1.0  0.44933000000000006  0.77941  0.14526  1.0000
  N   N9        1.0  0.8115399999999999  0.01588999999999993  0.4235799999999999  1.0000
  N   N10       1.0  0.98297  0.13611999999999985  0.7456699999999998  1.0000
  N   N11       1.0  0.024029999999999888  0.18209999999999987  0.8324499999999998  1.0000
  N   N12       1.0  0.19552  0.27941  0.14542  1.0000
  N   N13       1.0  0.61312  0.90927  0.42544  1.0000
  N   N14       1.0  0.76361  0.10929999999999988  0.7463799999999998  1.0000
  N   N15       1.0  0.80933  0.1504  0.83322  1.0000
  N   N16       1.0  0.94899  0.36526  0.14401  1.0000
  N   N17       1.0  0.18845  0.9841000000000001  0.57642  1.0000
  N   N18       1.0  0.01702  0.86387  0.25433  1.0000
  N   N19       1.0  0.97596  0.8179  0.16754999999999995  1.0000
  N   N20       1.0  0.8044699999999996  0.7205799999999999  0.8545699999999998  1.0000
  N   N21       1.0  0.38686999999999977  0.0907199999999999  0.5745499999999998  1.0000
  N   N22       1.0  0.23639  0.8907  0.25362  1.0000
  N   N23       1.0  0.19065999999999997  0.8496  0.16677999999999996  1.0000
  N   N24       1.0  0.05099999999999984  0.6347299999999998  0.8559899999999998  1.0000
  N   N25       1.0  0.6874  0.59153  0.57485  1.0000
  N   N26       1.0  0.51715  0.39008  0.25371  1.0000
  N   N27       1.0  0.47601  0.34923999999999994  0.16687999999999995  1.0000
  N   N28       1.0  0.3048299999999999  0.1342799999999999  0.8553499999999998  1.0000
  N   N29       1.0  0.88756  0.48433000000000004  0.57687  1.0000
  N   N30       1.0  0.7377  0.3636999999999999  0.25466  1.0000
  N   N31       1.0  0.69229  0.31764  0.16782  1.0000
  N   N32       1.0  0.55066  0.22057999999999992  0.8547299999999998  1.0000
  O   O1        1.0  0.41092  0.50132  0.73298  1.0000
  O   O2        1.0  0.30142  0.24966999999999998  0.28517  1.0000
  O   O3        1.0  0.44991  0.30528  0.3062  1.0000
  O   O4        1.0  0.61661  0.97031  0.2678099999999999  1.0000
  O   O5        1.0  0.4903899999999999  0.94096  0.29381  1.0000
  O   O6        1.0  0.3188999999999999  0.7314199999999997  0.7307899999999998  1.0000
  O   O7        1.0  0.98148  0.53379  0.2811  1.0000
  O   O8        1.0  0.85704  0.50053  0.30561  1.0000
  O   O9        1.0  0.65351  0.8009699999999998  0.27224  1.0000
  O   O10       1.0  0.80566  0.8540999999999999  0.2957  1.0000
  O   O11       1.0  0.9080699999999999  0.2295499999999999  0.7300499999999998  1.0000
  O   O12       1.0  0.79925  0.03475  0.28218  1.0000
  O   O13       1.0  0.9467499999999996  0.9989699999999998  0.3029699999999999  1.0000
  O   O14       1.0  0.11747000000000003  0.2991  0.26926  1.0000
  O   O15       1.0  0.9907799999999998  0.35351999999999995  0.2947799999999999  1.0000
  O   O16       1.0  0.82218  0.0009599999999999813  0.73393  1.0000
  O   O17       1.0  0.48347  0.74936  0.28452  1.0000
  O   O18       1.0  0.35804  0.80599  0.3072399999999999  1.0000
  O   O19       1.0  0.15228999999999995  0.4697  0.2684399999999999  1.0000
  O   O20       1.0  0.3051399999999999  0.44082  0.29405  1.0000
  O   O21       1.0  0.09192  0.77045  0.26995  1.0000
  O   O22       1.0  0.2007399999999998  0.9652399999999998  0.7178199999999998  1.0000
  O   O23       1.0  0.053239999999999885  0.0010199999999998685  0.6970299999999998  1.0000
  O   O24       1.0  0.8825199999999995  0.7009  0.7307399999999997  1.0000
  O   O25       1.0  0.009219999999999864  0.6464799999999998  0.7052199999999997  1.0000
  O   O26       1.0  0.17781  0.99904  0.26607  1.0000
  O   O27       1.0  0.5165199999999999  0.25063999999999986  0.7154799999999998  1.0000
  O   O28       1.0  0.64195  0.19400999999999988  0.6927599999999998  1.0000
  O   O29       1.0  0.8477  0.53029  0.73156  1.0000
  O   O30       1.0  0.6948499999999996  0.5591799999999999  0.7059499999999997  1.0000
  O   O31       1.0  0.58907  0.49868  0.26701  1.0000
  O   O32       1.0  0.69857  0.7503199999999999  0.7148299999999997  1.0000
  O   O33       1.0  0.55008  0.6947199999999998  0.6937999999999998  1.0000
  O   O34       1.0  0.38338  0.02968000000000002  0.73218  1.0000
  O   O35       1.0  0.5096  0.05903999999999991  0.7061899999999998  1.0000
  O   O36       1.0  0.68109  0.26857999999999993  0.2692099999999999  1.0000
  O   O37       1.0  0.018509999999999926  0.46621  0.7189  1.0000
  O   O38       1.0  0.14294999999999985  0.49946999999999986  0.6943899999999997  1.0000
  O   O39       1.0  0.34648  0.19903  0.72776  1.0000
  O   O40       1.0  0.19433  0.14588999999999996  0.7043  1.0000
