data_image0
_chemical_formula_structural       Eu8P12H120C108N12O60
_chemical_formula_sum              "Eu8 P12 H120 C108 N12 O60"
_cell_length_a       7.24802
_cell_length_b       21.07156
_cell_length_c       28.291659999999997
_cell_angle_alpha    106.57116000000002
_cell_angle_beta     90.00135
_cell_angle_gamma    89.98413999999998

_symmetry_space_group_name_H-M    'P 1'
_symmetry_Int_Tables_number       1

loop_
  _symmetry_equiv_pos_as_xyz
  'x,y,z'

loop_
  _atom_site_type_symbol
  _atom_site_label
  _atom_site_symmetry_multiplicity
  _atom_site_fract_x
  _atom_site_fract_y
  _atom_site_fract_z
  _atom_site_occupancy
  Eu  Eu1       1.0  0.88465  0.90688  0.6601300000000002  1.0000
  Eu  Eu2       1.0  0.08495999999999997  0.7633800000000002  0.21578000000000006  1.0000
  Eu  Eu3       1.0  0.38518  0.0924500000000001  0.8390600000000003  1.0000
  Eu  Eu4       1.0  0.5857  0.23842000000000002  0.28467000000000003  1.0000
  Eu  Eu5       1.0  0.11476  0.09265999999999999  0.33914  1.0000
  Eu  Eu6       1.0  0.9141899999999997  0.23855000000000004  0.78483  1.0000
  Eu  Eu7       1.0  0.6169399999999999  0.9071400000000001  0.16041  1.0000
  Eu  Eu8       1.0  0.41504  0.76346  0.7158500000000002  1.0000
  P   P1        1.0  0.9324599999999997  0.9213300000000001  0.27232  1.0000
  P   P2        1.0  0.92522  0.7484700000000002  0.6807900000000002  1.0000
  P   P3        1.0  0.39448  0.8578900000000002  0.6245300000000003  1.0000
  P   P4        1.0  0.4342499999999999  0.07918000000000003  0.22741000000000006  1.0000
  P   P5        1.0  0.42376999999999987  0.25149  0.81915  1.0000
  P   P6        1.0  0.89341  0.14258000000000004  0.87518  1.0000
  P   P7        1.0  0.06705  0.07906000000000009  0.7276100000000002  1.0000
  P   P8        1.0  0.07521  0.25104  0.3191400000000001  1.0000
  P   P9        1.0  0.6063  0.14260000000000006  0.37519000000000013  1.0000
  P   P10       1.0  0.5692299999999999  0.92142  0.7722500000000002  1.0000
  P   P11       1.0  0.57573  0.7482400000000001  0.18089  1.0000
  P   P12       1.0  0.10674999999999997  0.8579600000000002  0.12467000000000003  1.0000
  H   H1        1.0  0.70589  0.011999999999999997  0.34663  1.0000
  H   H2        1.0  0.79775  0.6224900000000001  0.69116  1.0000
  H   H3        1.0  0.03717  0.6181000000000001  0.69213  1.0000
  H   H4        1.0  0.04587  0.8066100000000002  0.5500900000000001  1.0000
  H   H5        1.0  0.1352  0.7735800000000002  0.5916300000000001  1.0000
  H   H6        1.0  0.9069899999999999  0.91573  0.35369  1.0000
  H   H7        1.0  0.7332799999999999  0.8623400000000001  0.31806  1.0000
  H   H8        1.0  0.42494  0.9953800000000003  0.3826700000000001  1.0000
  H   H9        1.0  0.43322  0.90831  0.35198000000000007  1.0000
  H   H10       1.0  0.52279  0.8342400000000001  0.3991600000000001  1.0000
  H   H11       1.0  0.66782  0.8146500000000001  0.4738000000000001  1.0000
  H   H12       1.0  0.8377499999999999  0.017770000000000043  0.5225200000000002  1.0000
  H   H13       1.0  0.69753  0.03712  0.4473  1.0000
  H   H14       1.0  0.81903  0.65481  0.6148500000000002  1.0000
  H   H15       1.0  0.06565  0.6527600000000002  0.6206300000000002  1.0000
  H   H16       1.0  0.035059999999999994  0.5372100000000001  0.61279  1.0000
  H   H17       1.0  0.7882  0.5399  0.61348  1.0000
  H   H18       1.0  0.61603  0.5018100000000002  0.6782300000000002  1.0000
  H   H19       1.0  0.61889  0.43498  0.73777  1.0000
  H   H20       1.0  0.20120999999999994  0.4039300000000001  0.7161700000000002  1.0000
  H   H21       1.0  0.2007  0.47234  0.6572200000000001  1.0000
  H   H22       1.0  0.98938  0.7750000000000001  0.38075  1.0000
  H   H23       1.0  0.9427699999999998  0.76537  0.466  1.0000
  H   H24       1.0  0.29008  0.68611  0.53066  1.0000
  H   H25       1.0  0.04606  0.68758  0.52182  1.0000
  H   H26       1.0  0.45047  0.7874300000000001  0.5419400000000002  1.0000
  H   H27       1.0  0.31439  0.8564500000000002  0.5391000000000001  1.0000
  H   H28       1.0  0.48201  0.6781300000000002  0.46118000000000003  1.0000
  H   H29       1.0  0.53332  0.6923000000000001  0.37739000000000006  1.0000
  H   H30       1.0  0.45455  0.74576  0.27113000000000004  1.0000
  H   H31       1.0  0.20895  0.9895700000000001  0.15329000000000004  1.0000
  H   H32       1.0  0.29779999999999995  0.3775400000000001  0.8087800000000003  1.0000
  H   H33       1.0  0.53694  0.38182  0.80781  1.0000
  H   H34       1.0  0.54632  0.19323000000000018  0.9498400000000002  1.0000
  H   H35       1.0  0.63667  0.22632  0.9085300000000002  1.0000
  H   H36       1.0  0.40507999999999994  0.08744  0.14644000000000001  1.0000
  H   H37       1.0  0.23010999999999995  0.13895000000000005  0.18226000000000003  1.0000
  H   H38       1.0  0.9265399999999999  0.004429999999999997  0.1175  1.0000
  H   H39       1.0  0.93163  0.09150000000000004  0.14775000000000005  1.0000
  H   H40       1.0  0.022749999999999992  0.16556000000000007  0.10092  1.0000
  H   H41       1.0  0.1673  0.18564  0.026400000000000007  1.0000
  H   H42       1.0  0.33778  0.98228  0.9773700000000002  1.0000
  H   H43       1.0  0.19805  0.96296  0.052730000000000006  1.0000
  H   H44       1.0  0.3181099999999999  0.3450200000000001  0.8850100000000002  1.0000
  H   H45       1.0  0.56507  0.34706000000000004  0.8794200000000001  1.0000
  H   H46       1.0  0.53513  0.46267  0.8872100000000003  1.0000
  H   H47       1.0  0.28824  0.45999000000000007  0.8865700000000002  1.0000
  H   H48       1.0  0.11570999999999998  0.49823  0.8218300000000002  1.0000
  H   H49       1.0  0.11902999999999997  0.5650600000000001  0.7622600000000003  1.0000
  H   H50       1.0  0.70116  0.59595  0.7839000000000003  1.0000
  H   H51       1.0  0.70063  0.52757  0.84288  1.0000
  H   H52       1.0  0.48974  0.22491000000000003  0.11930000000000003  1.0000
  H   H53       1.0  0.44292999999999993  0.23468  0.034030000000000005  1.0000
  H   H54       1.0  0.79027  0.31386000000000014  0.9694500000000003  1.0000
  H   H55       1.0  0.54619  0.3121700000000001  0.9781600000000003  1.0000
  H   H56       1.0  0.95162  0.21217  0.95809  1.0000
  H   H57       1.0  0.8152  0.14332000000000003  0.9608800000000001  1.0000
  H   H58       1.0  0.98211  0.32192  0.03892000000000001  1.0000
  H   H59       1.0  0.03352  0.30760000000000004  0.12270000000000003  1.0000
  H   H60       1.0  0.95455  0.25444  0.22902000000000006  1.0000
  H   H61       1.0  0.2901  0.9896900000000001  0.65319  1.0000
  H   H62       1.0  0.20222  0.37762  0.3088000000000001  1.0000
  H   H63       1.0  0.96305  0.38183000000000006  0.30796  1.0000
  H   H64       1.0  0.95385  0.19332  0.44991  1.0000
  H   H65       1.0  0.86399  0.22639000000000012  0.4085300000000001  1.0000
  H   H66       1.0  0.09378  0.0877900000000001  0.6466900000000002  1.0000
  H   H67       1.0  0.2696  0.13909000000000002  0.68259  1.0000
  H   H68       1.0  0.57293  0.004610000000000003  0.6178  1.0000
  H   H69       1.0  0.56725  0.09171  0.648  1.0000
  H   H70       1.0  0.47687  0.16571  0.6009  1.0000
  H   H71       1.0  0.33253  0.1854500000000001  0.5262400000000002  1.0000
  H   H72       1.0  0.16223  0.9822200000000002  0.4774600000000001  1.0000
  H   H73       1.0  0.30214  0.9629900000000001  0.5527500000000001  1.0000
  H   H74       1.0  0.18146  0.34521000000000013  0.38527000000000006  1.0000
  H   H75       1.0  0.93514  0.3468000000000001  0.37924000000000013  1.0000
  H   H76       1.0  0.96488  0.46281  0.38727000000000006  1.0000
  H   H77       1.0  0.21179999999999996  0.46014  0.38659  1.0000
  H   H78       1.0  0.38406  0.4982  0.32181  1.0000
  H   H79       1.0  0.38116  0.5650300000000001  0.26225000000000004  1.0000
  H   H80       1.0  0.79891  0.59609  0.28384000000000004  1.0000
  H   H81       1.0  0.7992999999999999  0.52768  0.3428  1.0000
  H   H82       1.0  0.01115  0.22484000000000004  0.61925  1.0000
  H   H83       1.0  0.05751  0.23480000000000012  0.5340600000000002  1.0000
  H   H84       1.0  0.70974  0.31393  0.46956000000000003  1.0000
  H   H85       1.0  0.95385  0.31227  0.47821  1.0000
  H   H86       1.0  0.54868  0.2123100000000001  0.4580300000000001  1.0000
  H   H87       1.0  0.6845599999999998  0.14341000000000007  0.4608600000000001  1.0000
  H   H88       1.0  0.51813  0.3220100000000002  0.5391200000000003  1.0000
  H   H89       1.0  0.46718  0.30755  0.62286  1.0000
  H   H90       1.0  0.54528  0.25428000000000006  0.7288200000000001  1.0000
  H   H91       1.0  0.79359  0.011550000000000003  0.84645  1.0000
  H   H92       1.0  0.70229  0.62255  0.19123000000000007  1.0000
  H   H93       1.0  0.46285999999999994  0.6181000000000001  0.19228000000000006  1.0000
  H   H94       1.0  0.45432  0.80658  0.050290000000000015  1.0000
  H   H95       1.0  0.36428  0.7735  0.09165  1.0000
  H   H96       1.0  0.59289  0.9155800000000001  0.8533900000000002  1.0000
  H   H97       1.0  0.7674599999999998  0.86203  0.81856  1.0000
  H   H98       1.0  0.07491  0.9955  0.8827400000000001  1.0000
  H   H99       1.0  0.0678  0.9084900000000001  0.8522200000000001  1.0000
  H   H100      1.0  0.97725  0.83449  0.8991000000000002  1.0000
  H   H101      1.0  0.8322  0.81442  0.9735700000000003  1.0000
  H   H102      1.0  0.66199  0.01776  0.02258  1.0000
  H   H103      1.0  0.8019299999999999  0.03709999999999998  0.94731  1.0000
  H   H104      1.0  0.68166  0.65506  0.11518000000000003  1.0000
  H   H105      1.0  0.4345  0.65259  0.12049000000000003  1.0000
  H   H106      1.0  0.46489  0.53733  0.11286000000000003  1.0000
  H   H107      1.0  0.71178  0.54006  0.11349  1.0000
  H   H108      1.0  0.88433  0.50178  0.17822  1.0000
  H   H109      1.0  0.8808099999999999  0.4349500000000001  0.23779000000000006  1.0000
  H   H110      1.0  0.29871  0.40406000000000003  0.21609000000000006  1.0000
  H   H111      1.0  0.29936  0.47247  0.15712000000000004  1.0000
  H   H112      1.0  0.50976  0.77499  0.8807000000000003  1.0000
  H   H113      1.0  0.5567299999999998  0.76544  0.9659900000000001  1.0000
  H   H114      1.0  0.2099  0.68612  0.0307  1.0000
  H   H115      1.0  0.45387  0.68766  0.02182  1.0000
  H   H116      1.0  0.04894  0.78762  0.04217  1.0000
  H   H117      1.0  0.1856  0.85656  0.03914  1.0000
  H   H118      1.0  0.01762  0.67817  0.9612600000000002  1.0000
  H   H119      1.0  0.96599  0.6923000000000002  0.8774600000000002  1.0000
  H   H120      1.0  0.04591  0.74574  0.7709000000000003  1.0000
  C   C1        1.0  0.79753  0.91134  0.3258400000000001  1.0000
  C   C2        1.0  0.51273  0.95114  0.37365  1.0000
  C   C3        1.0  0.59382  0.93782  0.41959000000000013  1.0000
  C   C4        1.0  0.58951  0.8745900000000001  0.4264100000000001  1.0000
  C   C5        1.0  0.6716599999999998  0.8633600000000001  0.46778  1.0000
  C   C6        1.0  0.75994  0.9151100000000001  0.50289  1.0000
  C   C7        1.0  0.76681  0.97809  0.4956000000000001  1.0000
  C   C8        1.0  0.6869  0.98897  0.45391000000000004  1.0000
  C   C9        1.0  0.8459599999999998  0.90197  0.5474300000000001  1.0000
  C   C10       1.0  0.9347499999999999  0.6623900000000001  0.6408000000000001  1.0000
  C   C11       1.0  0.91229  0.5430300000000001  0.6362500000000001  1.0000
  C   C12       1.0  0.90942  0.4933  0.6652100000000001  1.0000
  C   C13       1.0  0.74407  0.48027000000000003  0.6863200000000003  1.0000
  C   C14       1.0  0.7453199999999998  0.44285000000000013  0.7197  1.0000
  C   C15       1.0  0.91171  0.41824000000000006  0.73254  1.0000
  C   C16       1.0  0.07393  0.4253500000000001  0.7074200000000003  1.0000
  C   C17       1.0  0.07311  0.46329  0.6743500000000002  1.0000
  C   C18       1.0  0.9177899999999998  0.38665  0.7741000000000001  1.0000
  C   C19       1.0  0.284  0.74093  0.32334000000000007  1.0000
  C   C20       1.0  0.26278  0.7330800000000002  0.3736800000000001  1.0000
  C   C21       1.0  0.0956  0.7534500000000001  0.39857  1.0000
  C   C22       1.0  0.06874  0.74696  0.4456700000000001  1.0000
  C   C23       1.0  0.20667999999999997  0.71884  0.46818000000000004  1.0000
  C   C24       1.0  0.1763  0.71317  0.5195800000000002  1.0000
  C   C25       1.0  0.3369  0.82002  0.5594  1.0000
  C   C26       1.0  0.37367999999999996  0.69884  0.4433400000000001  1.0000
  C   C27       1.0  0.40267  0.70637  0.3964  1.0000
  C   C28       1.0  0.29701  0.09041000000000003  0.17441000000000006  1.0000
  C   C29       1.0  0.01292  0.049  0.12631  1.0000
  C   C30       1.0  0.09329  0.062020000000000006  0.08022  1.0000
  C   C31       1.0  0.08933999999999997  0.12531  0.07354000000000001  1.0000
  C   C32       1.0  0.17147  0.13675  0.032220000000000006  1.0000
  C   C33       1.0  0.25913  0.08497000000000013  0.9968700000000003  1.0000
  C   C34       1.0  0.26678  0.02201  0.00426  1.0000
  C   C35       1.0  0.18705  0.011020000000000002  0.04596000000000001  1.0000
  C   C36       1.0  0.34442  0.0979300000000001  0.9521500000000003  1.0000
  C   C37       1.0  0.43421  0.33758  0.85919  1.0000
  C   C38       1.0  0.41226  0.4568900000000003  0.8637800000000002  1.0000
  C   C39       1.0  0.40927  0.50666  0.83488  1.0000
  C   C40       1.0  0.24388999999999994  0.5197200000000002  0.8137600000000003  1.0000
  C   C41       1.0  0.24531999999999998  0.55716  0.78039  1.0000
  C   C42       1.0  0.41169  0.5818000000000002  0.7675800000000003  1.0000
  C   C43       1.0  0.57387  0.57459  0.7926700000000002  1.0000
  C   C44       1.0  0.5729999999999997  0.53663  0.8257300000000002  1.0000
  C   C45       1.0  0.41778  0.61338  0.72598  1.0000
  C   C46       1.0  0.7842  0.25887  0.1767  1.0000
  C   C47       1.0  0.76297  0.26685000000000003  0.12638000000000002  1.0000
  C   C48       1.0  0.59574  0.24652  0.10149  1.0000
  C   C49       1.0  0.56884  0.25308  0.05442000000000002  1.0000
  C   C50       1.0  0.70683  0.28120000000000006  0.03195  1.0000
  C   C51       1.0  0.67657  0.28677000000000014  0.9805300000000001  1.0000
  C   C52       1.0  0.83746  0.17983000000000005  0.9406400000000003  1.0000
  C   C53       1.0  0.87383  0.30122  0.056790000000000014  1.0000
  C   C54       1.0  0.90279  0.2936100000000001  0.10369000000000003  1.0000
  C   C55       1.0  0.20237  0.09059000000000006  0.67448  1.0000
  C   C56       1.0  0.48640999999999995  0.04916000000000001  0.62643  1.0000
  C   C57       1.0  0.4066  0.06214000000000004  0.5802800000000001  1.0000
  C   C58       1.0  0.41051999999999994  0.1254  0.57354  1.0000
  C   C59       1.0  0.32826  0.1366900000000001  0.5322200000000001  1.0000
  C   C60       1.0  0.24012  0.08496000000000002  0.49702000000000013  1.0000
  C   C61       1.0  0.23303999999999997  0.021960000000000004  0.50435  1.0000
  C   C62       1.0  0.31312  0.011049999999999977  0.54603  1.0000
  C   C63       1.0  0.15486  0.09823000000000008  0.4523800000000001  1.0000
  C   C64       1.0  0.06625  0.33742000000000005  0.35915000000000014  1.0000
  C   C65       1.0  0.08771  0.45695  0.36381000000000013  1.0000
  C   C66       1.0  0.09061  0.50669  0.33485  1.0000
  C   C67       1.0  0.25597  0.51972  0.31372  1.0000
  C   C68       1.0  0.25477  0.5571500000000001  0.2803500000000001  1.0000
  C   C69       1.0  0.08842999999999997  0.5818200000000001  0.26754  1.0000
  C   C70       1.0  0.92615  0.57467  0.29261000000000004  1.0000
  C   C71       1.0  0.92695  0.53672  0.32568000000000014  1.0000
  C   C72       1.0  0.08229  0.6133  0.22591000000000006  1.0000
  C   C73       1.0  0.7159399999999998  0.25865  0.67662  1.0000
  C   C74       1.0  0.7378  0.26679  0.62643  1.0000
  C   C75       1.0  0.9049  0.24650000000000002  0.6015100000000001  1.0000
  C   C76       1.0  0.93166  0.25314  0.55446  1.0000
  C   C77       1.0  0.7935  0.2812799999999999  0.53203  1.0000
  C   C78       1.0  0.82358  0.28685000000000005  0.48059000000000013  1.0000
  C   C79       1.0  0.66283  0.17995000000000005  0.4406100000000001  1.0000
  C   C80       1.0  0.62659  0.30126  0.55691  1.0000
  C   C81       1.0  0.59776  0.2936  0.6038  1.0000
  C   C82       1.0  0.7034  0.9109900000000001  0.82581  1.0000
  C   C83       1.0  0.9875099999999999  0.95121  0.87374  1.0000
  C   C84       1.0  0.9061099999999997  0.93796  0.9196500000000002  1.0000
  C   C85       1.0  0.91047  0.87473  0.9264400000000003  1.0000
  C   C86       1.0  0.82837  0.8632800000000002  0.96775  1.0000
  C   C87       1.0  0.74032  0.91501  0.0029900000000000005  1.0000
  C   C88       1.0  0.7330499999999999  0.9780200000000001  0.9957000000000003  1.0000
  C   C89       1.0  0.81276  0.9890000000000002  0.9540000000000001  1.0000
  C   C90       1.0  0.65488  0.9020500000000002  0.047620000000000016  1.0000
  C   C91       1.0  0.56512  0.6623400000000002  0.14086  1.0000
  C   C92       1.0  0.58778  0.54311  0.13627  1.0000
  C   C93       1.0  0.5907399999999998  0.49334  0.16516  1.0000
  C   C94       1.0  0.75613  0.48028  0.18627  1.0000
  C   C95       1.0  0.75457  0.44285000000000013  0.21965000000000007  1.0000
  C   C96       1.0  0.58814  0.41824000000000006  0.23248000000000002  1.0000
  C   C97       1.0  0.42605  0.42542  0.20734000000000002  1.0000
  C   C98       1.0  0.42696  0.46338  0.17428  1.0000
  C   C99       1.0  0.58218  0.3865  0.27398  1.0000
  C   C100      1.0  0.21538  0.7409500000000001  0.8233800000000002  1.0000
  C   C101      1.0  0.23658  0.7330700000000001  0.8736900000000002  1.0000
  C   C102      1.0  0.4037  0.7534300000000003  0.8985600000000002  1.0000
  C   C103      1.0  0.43078  0.74699  0.94567  1.0000
  C   C104      1.0  0.2929  0.7188800000000001  0.9682000000000001  1.0000
  C   C105      1.0  0.3235  0.7132100000000001  0.0196  1.0000
  C   C106      1.0  0.16296  0.82011  0.059430000000000004  1.0000
  C   C107      1.0  0.12592  0.69885  0.9433700000000003  1.0000
  C   C108      1.0  0.09673  0.7063500000000003  0.8964300000000002  1.0000
  N   N1        1.0  0.66726  0.9623400000000001  0.34419  1.0000
  N   N2        1.0  0.91852  0.6132700000000001  0.66961  1.0000
  N   N3        1.0  0.16543  0.77945  0.5568000000000001  1.0000
  N   N4        1.0  0.16894  0.03883  0.15567  1.0000
  N   N5        1.0  0.41842  0.3867300000000001  0.8303700000000002  1.0000
  N   N6        1.0  0.66586  0.22044000000000008  0.9433700000000003  1.0000
  N   N7        1.0  0.3301  0.03892000000000008  0.6556100000000002  1.0000
  N   N8        1.0  0.08173999999999997  0.3867  0.33043  1.0000
  N   N9        1.0  0.83431  0.22057000000000002  0.4434000000000001  1.0000
  N   N10       1.0  0.83302  0.96209  0.8441500000000002  1.0000
  N   N11       1.0  0.58141  0.61326  0.16971  1.0000
  N   N12       1.0  0.33441999999999994  0.7794800000000001  0.056850000000000005  1.0000
  O   O1        1.0  0.8946999999999998  0.95028  0.5834400000000001  1.0000
  O   O2        1.0  0.8631  0.84074  0.5463900000000003  1.0000
  O   O3        1.0  0.00566  0.9918400000000002  0.28932  1.0000
  O   O4        1.0  0.08204  0.86854  0.26863000000000004  1.0000
  O   O5        1.0  0.7944199999999998  0.90689  0.22996000000000005  1.0000
  O   O6        1.0  0.97262  0.7899300000000001  0.6461500000000002  1.0000
  O   O7        1.0  0.73233  0.7557600000000001  0.7017700000000002  1.0000
  O   O8        1.0  0.07469  0.7514500000000001  0.7206200000000003  1.0000
  O   O9        1.0  0.76879  0.3819600000000001  0.79695  1.0000
  O   O10       1.0  0.07368  0.3671900000000001  0.7854700000000002  1.0000
  O   O11       1.0  0.4557  0.74154  0.3074200000000001  1.0000
  O   O12       1.0  0.14525  0.74612  0.29912  1.0000
  O   O13       1.0  0.58001  0.8909900000000001  0.62386  1.0000
  O   O14       1.0  0.23393999999999995  0.90607  0.6449100000000002  1.0000
  O   O15       1.0  0.39324  0.79617  0.64364  1.0000
  O   O16       1.0  0.38965  0.04932000000000011  0.9158800000000002  1.0000
  O   O17       1.0  0.36252  0.15914000000000006  0.9533500000000001  1.0000
  O   O18       1.0  0.5103  0.009220000000000016  0.20855000000000007  1.0000
  O   O19       1.0  0.5813099999999999  0.13340000000000005  0.23247000000000007  1.0000
  O   O20       1.0  0.29669  0.0918  0.26984  1.0000
  O   O21       1.0  0.4674599999999999  0.21026  0.8542600000000002  1.0000
  O   O22       1.0  0.23188  0.24461  0.79768  1.0000
  O   O23       1.0  0.57457  0.2484700000000001  0.7796600000000002  1.0000
  O   O24       1.0  0.26876  0.6175  0.7029700000000002  1.0000
  O   O25       1.0  0.57356  0.6329600000000001  0.7146400000000003  1.0000
  O   O26       1.0  0.9558999999999999  0.2583  0.19262000000000007  1.0000
  O   O27       1.0  0.64583  0.25397  0.20101  1.0000
  O   O28       1.0  0.07916  0.10920000000000003  0.87562  1.0000
  O   O29       1.0  0.7339  0.09402999999999999  0.85463  1.0000
  O   O30       1.0  0.8886199999999997  0.20487000000000008  0.8567300000000002  1.0000
  O   O31       1.0  0.10794  0.049899999999999986  0.41611  1.0000
  O   O32       1.0  0.13706  0.15947000000000003  0.45364000000000004  1.0000
  O   O33       1.0  0.9916  0.008930000000000065  0.7084900000000001  1.0000
  O   O34       1.0  0.91934  0.13316999999999998  0.73312  1.0000
  O   O35       1.0  0.20481  0.09159000000000006  0.7698000000000003  1.0000
  O   O36       1.0  0.027669999999999993  0.21012000000000008  0.35421000000000014  1.0000
  O   O37       1.0  0.26727  0.24234000000000003  0.29778  1.0000
  O   O38       1.0  0.92529  0.24837  0.2794600000000001  1.0000
  O   O39       1.0  0.23140999999999995  0.6179300000000001  0.20311000000000007  1.0000
  O   O40       1.0  0.9262499999999998  0.63247  0.21444  1.0000
  O   O41       1.0  0.54432  0.2584400000000001  0.6925700000000002  1.0000
  O   O42       1.0  0.8546099999999998  0.25306  0.7008900000000002  1.0000
  O   O43       1.0  0.42054999999999987  0.10935  0.37598  1.0000
  O   O44       1.0  0.7656899999999999  0.09391000000000006  0.3545900000000001  1.0000
  O   O45       1.0  0.61081  0.20489000000000013  0.35671000000000014  1.0000
  O   O46       1.0  0.60859  0.9506300000000002  0.08371000000000003  1.0000
  O   O47       1.0  0.63719  0.84082  0.04663  1.0000
  O   O48       1.0  0.49535  0.9917700000000002  0.78961  1.0000
  O   O49       1.0  0.41867  0.86868  0.7682600000000003  1.0000
  O   O50       1.0  0.70679  0.90726  0.73001  1.0000
  O   O51       1.0  0.53281  0.78969  0.14593000000000003  1.0000
  O   O52       1.0  0.7680699999999998  0.7549400000000002  0.20225000000000007  1.0000
  O   O53       1.0  0.42508  0.7516100000000001  0.22044000000000005  1.0000
  O   O54       1.0  0.731  0.38244  0.2970900000000001  1.0000
  O   O55       1.0  0.42660999999999993  0.36646  0.28520000000000006  1.0000
  O   O56       1.0  0.0443  0.74183  0.80736  1.0000
  O   O57       1.0  0.3547299999999999  0.74599  0.79913  1.0000
  O   O58       1.0  0.9207999999999997  0.89123  0.12432000000000003  1.0000
  O   O59       1.0  0.26688  0.90628  0.14491  1.0000
  O   O60       1.0  0.10974  0.79612  0.14368  1.0000
