data_image0
_chemical_formula_structural       Ni4Mo2H120C64N40O8
_chemical_formula_sum              "Ni4 Mo2 H120 C64 N40 O8"
_cell_length_a       14.87462
_cell_length_b       14.868429999999998
_cell_length_c       16.84956
_cell_angle_alpha    105.36213
_cell_angle_beta     105.42732
_cell_angle_gamma    113.08035999999998

_symmetry_space_group_name_H-M    'P 1'
_symmetry_Int_Tables_number       1

loop_
  _symmetry_equiv_pos_as_xyz
  'x,y,z'

loop_
  _atom_site_type_symbol
  _atom_site_label
  _atom_site_symmetry_multiplicity
  _atom_site_fract_x
  _atom_site_fract_y
  _atom_site_fract_z
  _atom_site_occupancy
  Ni  Ni1       1.0  0.50272  0.0018199999999999673  0.99825  1.0000
  Ni  Ni2       1.0  0.9981700000000001  0.49729  0.50175  1.0000
  Ni  Ni3       1.0  0.0024500000000000077  0.002449999999999991  0.50199  1.0000
  Ni  Ni4       1.0  0.9975500000000003  0.99755  0.9980100000000002  1.0000
  Mo  Mo1       1.0  0.872  0.12818000000000002  0.24997  1.0000
  Mo  Mo2       1.0  0.12677000000000002  0.8731  0.75004  1.0000
  H   H1        1.0  0.5845200000000002  0.87702  0.09415000000000003  1.0000
  H   H2        1.0  0.47814  0.74304  0.02627  1.0000
  H   H3        1.0  0.65809  0.90925  0.98576  1.0000
  H   H4        1.0  0.57164  0.77139  0.90874  1.0000
  H   H5        1.0  0.6242600000000003  0.0072100000000000575  0.8145200000000001  1.0000
  H   H6        1.0  0.6875700000000002  0.04232000000000003  0.93292  1.0000
  H   H7        1.0  0.34487000000000007  0.8108199999999998  0.02227  1.0000
  H   H8        1.0  0.4226300000000001  0.83217  0.13324  1.0000
  H   H9        1.0  0.0052600000000000025  0.2021  0.62845  1.0000
  H   H10       1.0  0.07176  0.2079  0.73622  1.0000
  H   H11       1.0  0.14669000000000001  0.25305  0.58334  1.0000
  H   H12       1.0  0.23953  0.28705  0.69258  1.0000
  H   H13       1.0  0.2685800000000001  0.14087000000000005  0.46455000000000013  1.0000
  H   H14       1.0  0.16148  0.16907000000000003  0.45322  1.0000
  H   H15       1.0  0.8772700000000002  0.06864  0.6683  1.0000
  H   H16       1.0  0.9581  0.006880000000000009  0.67595  1.0000
  H   H17       1.0  0.46817000000000003  0.8450899999999998  0.72357  1.0000
  H   H18       1.0  0.4043500000000001  0.76932  0.77571  1.0000
  H   H19       1.0  0.5629600000000002  0.74464  0.69977  1.0000
  H   H20       1.0  0.5155100000000002  0.67488  0.76422  1.0000
  H   H21       1.0  0.3672500000000002  0.14633000000000004  0.59597  1.0000
  H   H22       1.0  0.2687300000000001  0.07935999999999997  0.63141  1.0000
  H   H23       1.0  0.44429  0.31608  0.73504  1.0000
  H   H24       1.0  0.3504000000000001  0.24182999999999993  0.77244  1.0000
  H   H25       1.0  0.42249  0.79688  0.91087  1.0000
  H   H26       1.0  0.5357800000000003  0.011210000000000015  0.16197  1.0000
  H   H27       1.0  0.13877  0.10665000000000005  0.67197  1.0000
  H   H28       1.0  0.8422200000000002  0.01869000000000001  0.51177  1.0000
  H   H29       1.0  0.41094000000000014  0.58434  0.6027500000000001  1.0000
  H   H30       1.0  0.42529  0.12241  0.7468  1.0000
  H   H31       1.0  0.12287999999999998  0.41546999999999995  0.40595  1.0000
  H   H32       1.0  0.25685  0.52189  0.47381  1.0000
  H   H33       1.0  0.09065999999999999  0.34184999999999993  0.51439  1.0000
  H   H34       1.0  0.22854000000000005  0.4282  0.59134  1.0000
  H   H35       1.0  0.9929600000000002  0.3756999999999999  0.68563  1.0000
  H   H36       1.0  0.95781  0.31235  0.56726  1.0000
  H   H37       1.0  0.18912999999999996  0.6551799999999999  0.47765  1.0000
  H   H38       1.0  0.16761  0.57728  0.36671  1.0000
  H   H39       1.0  0.79787  0.99481  0.87141  1.0000
  H   H40       1.0  0.7920600000000001  0.92835  0.76368  1.0000
  H   H41       1.0  0.7468900000000003  0.85321  0.91652  1.0000
  H   H42       1.0  0.7129900000000002  0.7604499999999998  0.80734  1.0000
  H   H43       1.0  0.85919  0.73127  0.03542  1.0000
  H   H44       1.0  0.8310100000000002  0.83841  0.04675  1.0000
  H   H45       1.0  0.9313000000000002  0.12290000000000005  0.83162  1.0000
  H   H46       1.0  0.9930700000000005  0.042060000000000056  0.8240400000000002  1.0000
  H   H47       1.0  0.15516000000000002  0.5318  0.77658  1.0000
  H   H48       1.0  0.23083000000000012  0.59561  0.72439  1.0000
  H   H49       1.0  0.2556000000000001  0.43696000000000007  0.80044  1.0000
  H   H50       1.0  0.3251600000000001  0.48431  0.73586  1.0000
  H   H51       1.0  0.8537000000000001  0.6326799999999999  0.904  1.0000
  H   H52       1.0  0.92066  0.73132  0.8686100000000001  1.0000
  H   H53       1.0  0.6839700000000002  0.55577  0.76495  1.0000
  H   H54       1.0  0.75814  0.6498  0.72758  1.0000
  H   H55       1.0  0.20316000000000006  0.57747  0.58921  1.0000
  H   H56       1.0  0.9886700000000003  0.46431999999999995  0.33804  1.0000
  H   H57       1.0  0.8933000000000002  0.8613299999999999  0.82802  1.0000
  H   H58       1.0  0.98128  0.15784000000000004  0.98814  1.0000
  H   H59       1.0  0.4159400000000001  0.58883  0.89732  1.0000
  H   H60       1.0  0.87756  0.5748000000000001  0.75323  1.0000
  H   H61       1.0  0.42129  0.12916999999999998  0.9033  1.0000
  H   H62       1.0  0.5294300000000002  0.26205  0.97227  1.0000
  H   H63       1.0  0.34521  0.09313000000000002  0.00849  1.0000
  H   H64       1.0  0.43064000000000013  0.23056  0.08679  1.0000
  H   H65       1.0  0.3755899999999999  0.9925299999999999  0.17856  1.0000
  H   H66       1.0  0.3143200000000001  0.95841  0.060210000000000014  1.0000
  H   H67       1.0  0.6596599999999999  0.1904499999999999  0.97432  1.0000
  H   H68       1.0  0.5828200000000002  0.17197000000000007  0.86411  1.0000
  H   H69       1.0  0.0010699999999999527  0.80273  0.37614  1.0000
  H   H70       1.0  0.9325500000000002  0.79517  0.26806  1.0000
  H   H71       1.0  0.8566300000000001  0.75034  0.42087  1.0000
  H   H72       1.0  0.76572  0.71705  0.311  1.0000
  H   H73       1.0  0.7341400000000002  0.86509  0.5369  1.0000
  H   H74       1.0  0.8404300000000003  0.8355199999999998  0.54955  1.0000
  H   H75       1.0  0.12668999999999989  0.9359299999999996  0.33432  1.0000
  H   H76       1.0  0.04445999999999995  0.9961399999999998  0.32639  1.0000
  H   H77       1.0  0.53144  0.15493  0.27103  1.0000
  H   H78       1.0  0.5954  0.23377  0.22074  1.0000
  H   H79       1.0  0.4326800000000001  0.25163  0.29398  1.0000
  H   H80       1.0  0.4816099999999999  0.32469  0.23201  1.0000
  H   H81       1.0  0.6387800000000001  0.86111  0.40561  1.0000
  H   H82       1.0  0.73555  0.92241  0.36648  1.0000
  H   H83       1.0  0.55747  0.68644  0.27012  1.0000
  H   H84       1.0  0.6497099999999999  0.7550899999999999  0.2287  1.0000
  H   H85       1.0  0.58088  0.20635999999999996  0.08676  1.0000
  H   H86       1.0  0.4661800000000001  0.9918700000000001  0.8344200000000003  1.0000
  H   H87       1.0  0.8665600000000001  0.89743  0.3327500000000001  1.0000
  H   H88       1.0  0.16346000000000005  0.98704  0.49077  1.0000
  H   H89       1.0  0.58343  0.4137900000000001  0.39321000000000006  1.0000
  H   H90       1.0  0.5758900000000002  0.87687  0.25081  1.0000
  H   H91       1.0  0.87083  0.5786800000000001  0.5965600000000001  1.0000
  H   H92       1.0  0.7379900000000003  0.47042999999999996  0.52759  1.0000
  H   H93       1.0  0.9069100000000003  0.65484  0.49136  1.0000
  H   H94       1.0  0.76946  0.5695  0.4131  1.0000
  H   H95       1.0  0.007329999999999915  0.6245299999999998  0.32135  1.0000
  H   H96       1.0  0.04145000000000001  0.68579  0.43967  1.0000
  H   H97       1.0  0.8096000000000002  0.34029  0.52579  1.0000
  H   H98       1.0  0.8282400000000002  0.41729  0.63596  1.0000
  H   H99       1.0  0.19731000000000007  0.99888  0.124  1.0000
  H   H100      1.0  0.20484000000000005  0.06735  0.23203  1.0000
  H   H101      1.0  0.24974000000000002  0.14351  0.07932  1.0000
  H   H102      1.0  0.28286000000000006  0.23433999999999994  0.18914  1.0000
  H   H103      1.0  0.13484000000000013  0.26600000000000007  0.96312  1.0000
  H   H104      1.0  0.16441000000000006  0.15968  0.9505  1.0000
  H   H105      1.0  0.06412999999999994  0.8731499999999998  0.16575  1.0000
  H   H106      1.0  0.0038999999999999534  0.95538  0.17361  1.0000
  H   H107      1.0  0.84497  0.46864  0.22887  1.0000
  H   H108      1.0  0.7662100000000001  0.40464  0.27917  1.0000
  H   H109      1.0  0.7481200000000002  0.5672400000000002  0.20571  1.0000
  H   H110      1.0  0.67519  0.51835  0.26775  1.0000
  H   H111      1.0  0.13885  0.36129000000000006  0.09439  1.0000
  H   H112      1.0  0.07759000000000002  0.26446  0.13353  1.0000
  H   H113      1.0  0.31353  0.44252  0.22985  1.0000
  H   H114      1.0  0.24494  0.35024  0.27131  1.0000
  H   H115      1.0  0.7936  0.41916  0.41314  1.0000
  H   H116      1.0  0.008239999999999964  0.53377  0.66557  1.0000
  H   H117      1.0  0.10257000000000002  0.13332  0.16724  1.0000
  H   H118      1.0  0.012979999999999988  0.83647  0.009310000000000004  1.0000
  H   H119      1.0  0.58616  0.41636  0.10647  1.0000
  H   H120      1.0  0.12322  0.42417  0.24915  1.0000
  C   C1        1.0  0.7424200000000002  0.10603  0.1388  1.0000
  C   C2        1.0  0.7250100000000003  0.06518  0.26798  1.0000
  C   C3        1.0  0.9415700000000001  0.11277999999999996  0.37553  1.0000
  C   C4        1.0  0.043129999999999995  0.18173999999999998  0.28513  1.0000
  C   C5        1.0  0.5015  0.82773  0.04215  1.0000
  C   C6        1.0  0.5794000000000002  0.8516899999999998  0.9289600000000001  1.0000
  C   C7        1.0  0.6109  0.99359  0.8725100000000001  1.0000
  C   C8        1.0  0.42628000000000005  0.85513  0.07689  1.0000
  C   C9        1.0  0.030119999999999994  0.15722  0.66292  1.0000
  C   C10       1.0  0.18747  0.22289999999999993  0.62402  1.0000
  C   C11       1.0  0.20448000000000005  0.13529  0.48723  1.0000
  C   C12       1.0  0.9323200000000003  0.05205999999999995  0.64249  1.0000
  C   C13       1.0  0.47982000000000014  0.8036499999999999  0.76719  1.0000
  C   C14       1.0  0.4957800000000001  0.71232  0.71896  1.0000
  C   C15       1.0  0.31848  0.15802000000000005  0.63223  1.0000
  C   C16       1.0  0.3953900000000001  0.23572  0.73073  1.0000
  C   C17       1.0  0.89417  0.2577  0.36114  1.0000
  C   C18       1.0  0.93503  0.2752499999999999  0.23198  1.0000
  C   C19       1.0  0.88733  0.058560000000000015  0.12442000000000003  1.0000
  C   C20       1.0  0.8182500000000001  0.9569599999999998  0.21477  1.0000
  C   C21       1.0  0.17217000000000005  0.49851  0.45792  1.0000
  C   C22       1.0  0.14828000000000005  0.42053  0.57116  1.0000
  C   C23       1.0  0.006530000000000037  0.38905000000000006  0.6276300000000001  1.0000
  C   C24       1.0  0.14474000000000004  0.57374  0.4231000000000001  1.0000
  C   C25       1.0  0.8427400000000002  0.96997  0.8370000000000002  1.0000
  C   C26       1.0  0.7771  0.81252  0.87592  1.0000
  C   C27       1.0  0.8647600000000002  0.7954299999999999  0.01276  1.0000
  C   C28       1.0  0.9478800000000004  0.06780999999999995  0.85745  1.0000
  C   C29       1.0  0.19652000000000006  0.52013  0.7329400000000001  1.0000
  C   C30       1.0  0.2878600000000001  0.50412  0.78117  1.0000
  C   C31       1.0  0.8420300000000002  0.68154  0.86777  1.0000
  C   C32       1.0  0.7642900000000001  0.60471  0.76925  1.0000
  C   C33       1.0  0.2648600000000001  0.90126  0.85394  1.0000
  C   C34       1.0  0.2661  0.93378  0.722  1.0000
  C   C35       1.0  0.07082999999999999  0.89388  0.62815  1.0000
  C   C36       1.0  0.9587500000000002  0.82125  0.70531  1.0000
  C   C37       1.0  0.50427  0.17681999999999998  0.95536  1.0000
  C   C38       1.0  0.4231100000000001  0.15037  0.06623  1.0000
  C   C39       1.0  0.39026000000000005  0.007220000000000001  0.12131  1.0000
  C   C40       1.0  0.5783700000000002  0.14799000000000012  0.9198300000000003  1.0000
  C   C41       1.0  0.9748800000000003  0.84666  0.34123  1.0000
  C   C42       1.0  0.8170000000000001  0.78097  0.37974  1.0000
  C   C43       1.0  0.7985500000000004  0.86972  0.51491  1.0000
  C   C44       1.0  0.07155000000000004  0.952  0.36033  1.0000
  C   C45       1.0  0.5194400000000002  0.19704999999999998  0.22811  1.0000
  C   C46       1.0  0.5010100000000002  0.28629  0.27658  1.0000
  C   C47       1.0  0.68551  0.8457399999999998  0.36843  1.0000
  C   C48       1.0  0.6062600000000002  0.76486  0.27108  1.0000
  C   C49       1.0  0.09859000000000011  0.73506  0.64613  1.0000
  C   C50       1.0  0.06613000000000004  0.73367  0.77807  1.0000
  C   C51       1.0  0.10603999999999998  0.92905  0.87193  1.0000
  C   C52       1.0  0.1787500000000001  0.04118000000000008  0.7948000000000001  1.0000
  C   C53       1.0  0.8232200000000002  0.49567999999999995  0.54454  1.0000
  C   C54       1.0  0.84962  0.57695  0.43365  1.0000
  C   C55       1.0  0.9926800000000002  0.6098499999999998  0.37861  1.0000
  C   C56       1.0  0.85212  0.42162  0.58019  1.0000
  C   C57       1.0  0.15338000000000004  0.02503000000000003  0.15884000000000004  1.0000
  C   C58       1.0  0.21901000000000004  0.18304  0.12035  1.0000
  C   C59       1.0  0.13022000000000003  0.20153999999999994  0.98511  1.0000
  C   C60       1.0  0.04804999999999996  0.9283199999999999  0.13972  1.0000
  C   C61       1.0  0.80289  0.48063  0.27178  1.0000
  C   C62       1.0  0.7135600000000002  0.49895  0.22323  1.0000
  C   C63       1.0  0.15423  0.31451  0.13157  1.0000
  C   C64       1.0  0.23515000000000005  0.3937399999999999  0.22892000000000004  1.0000
  N   N1        1.0  0.66067  0.07969  0.07987  1.0000
  N   N2        1.0  0.6463400000000002  0.02774  0.28008  1.0000
  N   N3        1.0  0.9671300000000002  0.09587  0.44029  1.0000
  N   N4        1.0  0.13431  0.20406  0.30868  1.0000
  N   N5        1.0  0.49671  0.8528499999999998  0.96221  1.0000
  N   N6        1.0  0.57376  0.88128  0.85311  1.0000
  N   N7        1.0  0.4660600000000001  0.97161  0.1034  1.0000
  N   N8        1.0  0.10199000000000008  0.13079  0.6278800000000001  1.0000
  N   N9        1.0  0.2538700000000001  0.19631000000000004  0.58432  1.0000
  N   N10       1.0  0.8790900000000003  0.98494  0.54399  1.0000
  N   N11       1.0  0.92039  0.33935  0.42008  1.0000
  N   N12       1.0  0.97241  0.35395  0.21989000000000006  1.0000
  N   N13       1.0  0.9041800000000002  0.03289  0.059680000000000004  1.0000
  N   N14       1.0  0.79573  0.86571  0.19116  1.0000
  N   N15       1.0  0.14713000000000007  0.50327  0.53787  1.0000
  N   N16       1.0  0.11881999999999995  0.42618999999999996  0.64704  1.0000
  N   N17       1.0  0.028290000000000048  0.53403  0.3966  1.0000
  N   N18       1.0  0.8691800000000001  0.89807  0.8720800000000002  1.0000
  N   N19       1.0  0.8037499999999999  0.74611  0.91566  1.0000
  N   N20       1.0  0.015019999999999986  0.12096999999999998  0.95597  1.0000
  N   N21       1.0  0.34307  0.92248  0.91383  1.0000
  N   N22       1.0  0.34589999999999993  0.9706099999999999  0.71165  1.0000
  N   N23       1.0  0.03895999999999982  0.9079999999999996  0.56321  1.0000
  N   N24       1.0  0.86703  0.79487  0.68523  1.0000
  N   N25       1.0  0.5073400000000002  0.15039  0.03452  1.0000
  N   N26       1.0  0.42683000000000015  0.1196  0.14129  1.0000
  N   N27       1.0  0.53675  0.031020000000000027  0.892  1.0000
  N   N28       1.0  0.9033100000000002  0.8731  0.3766900000000001  1.0000
  N   N29       1.0  0.74992  0.80826  0.41800000000000004  1.0000
  N   N30       1.0  0.12524  0.019919999999999983  0.45872  1.0000
  N   N31       1.0  0.07740000000000001  0.65694  0.58622  1.0000
  N   N32       1.0  0.029399999999999954  0.6538299999999999  0.78841  1.0000
  N   N33       1.0  0.09193999999999998  0.9609699999999999  0.93681  1.0000
  N   N34       1.0  0.2052700000000001  0.13295  0.81491  1.0000
  N   N35       1.0  0.8496000000000002  0.49266  0.46539  1.0000
  N   N36       1.0  0.8803200000000001  0.5732599999999998  0.35858  1.0000
  N   N37       1.0  0.9690700000000003  0.4632  0.60802  1.0000
  N   N38       1.0  0.12690000000000004  0.09663  0.12333  1.0000
  N   N39       1.0  0.19167  0.25012  0.08203  1.0000
  N   N40       1.0  0.9801200000000002  0.87469  0.04132  1.0000
  O   O1        1.0  0.3965400000000001  0.63414  0.64022  1.0000
  O   O2        1.0  0.4680100000000001  0.20052999999999996  0.76515  1.0000
  O   O3        1.0  0.3662300000000001  0.60336  0.85985  1.0000
  O   O4        1.0  0.7994400000000004  0.5321000000000002  0.7348000000000002  1.0000
  O   O5        1.0  0.59888  0.36401  0.35698  1.0000
  O   O6        1.0  0.53376  0.79914  0.23449  1.0000
  O   O7        1.0  0.63584  0.40097  0.14296  1.0000
  O   O8        1.0  0.20094000000000006  0.46625  0.26552  1.0000
