data_image0
_chemical_formula_structural       Cd8Ag16H110C128N48
_chemical_formula_sum              "Cd8 Ag16 H110 C128 N48"
_cell_length_a       13.76122
_cell_length_b       19.68003
_cell_length_c       19.37662
_cell_angle_alpha    77.2044
_cell_angle_beta     69.80405
_cell_angle_gamma    69.71987

_symmetry_space_group_name_H-M    'P 1'
_symmetry_Int_Tables_number       1

loop_
  _symmetry_equiv_pos_as_xyz
  'x,y,z'

loop_
  _atom_site_type_symbol
  _atom_site_label
  _atom_site_symmetry_multiplicity
  _atom_site_fract_x
  _atom_site_fract_y
  _atom_site_fract_z
  _atom_site_occupancy
  Cd  Cd1       1.0  0.9957699999999999  0.7617499999999999  0.011830000000000004  1.0000
  Cd  Cd2       1.0  0.27225000000000005  0.7374899999999998  0.48866  1.0000
  Cd  Cd3       1.0  0.7682500000000001  0.4844499999999999  0.73883  1.0000
  Cd  Cd4       1.0  0.4910499999999998  0.015380000000000001  0.75269  1.0000
  Cd  Cd5       1.0  0.23624000000000014  0.5155399999999999  0.26033  1.0000
  Cd  Cd6       1.0  0.5126599999999999  0.9840299999999998  0.24781  1.0000
  Cd  Cd7       1.0  0.008080000000000089  0.23940999999999998  0.98799  1.0000
  Cd  Cd8       1.0  0.7328299999999998  0.2613400000000001  0.51168  1.0000
  Ag  Ag1       1.0  0.3802500000000001  0.6835899999999998  0.80342  1.0000
  Ag  Ag2       1.0  0.6455399999999999  0.72468  0.25184000000000006  1.0000
  Ag  Ag3       1.0  0.3677699999999998  0.81402  0.6986800000000002  1.0000
  Ag  Ag4       1.0  0.11725000000000005  0.7751399999999999  0.25084  1.0000
  Ag  Ag5       1.0  0.8639899999999998  0.6975099999999999  0.81354  1.0000
  Ag  Ag6       1.0  0.62045  0.24553  0.77161  1.0000
  Ag  Ag7       1.0  0.8806599999999997  0.80505  0.68266  1.0000
  Ag  Ag8       1.0  0.13841999999999988  0.25284999999999996  0.7259000000000002  1.0000
  Ag  Ag9       1.0  0.1355699999999999  0.30326  0.18772  1.0000
  Ag  Ag10      1.0  0.37574  0.758  0.22838000000000003  1.0000
  Ag  Ag11      1.0  0.12379999999999998  0.19471  0.3172  1.0000
  Ag  Ag12      1.0  0.8612199999999997  0.74319  0.27542  1.0000
  Ag  Ag13      1.0  0.62174  0.31402  0.19710000000000003  1.0000
  Ag  Ag14      1.0  0.35535  0.27552  0.74427  1.0000
  Ag  Ag15      1.0  0.63297  0.1857  0.30387  1.0000
  Ag  Ag16      1.0  0.87845  0.22382  0.75391  1.0000
  H   H1        1.0  0.09883999999999993  0.64702  0.89123  1.0000
  H   H2        1.0  0.16484000000000001  0.51364  0.88024  1.0000
  H   H3        1.0  0.08901000000000003  0.47518999999999995  0.11822000000000002  1.0000
  H   H4        1.0  0.024749999999999987  0.60981  0.12002  1.0000
  H   H5        1.0  0.16973000000000005  0.3876199999999999  0.94463  1.0000
  H   H6        1.0  0.137  0.37125  0.042870000000000005  1.0000
  H   H7        1.0  0.26415999999999995  0.38331999999999994  0.9897100000000001  1.0000
  H   H8        1.0  0.86588  0.87749  0.13161  1.0000
  H   H9        1.0  0.77247  0.010119999999999999  0.1373  1.0000
  H   H10       1.0  0.9154299999999996  0.04353  0.90113  1.0000
  H   H11       1.0  0.0004699999999999224  0.90836  0.9045100000000001  1.0000
  H   H12       1.0  0.7072699999999997  0.12967  0.06905  1.0000
  H   H13       1.0  0.7511699999999997  0.1418099999999999  0.9697800000000001  1.0000
  H   H14       1.0  0.83179  0.14831  0.02016  1.0000
  H   H15       1.0  0.1458599999999998  0.8514200000000001  0.6108700000000002  1.0000
  H   H16       1.0  0.06695999999999983  0.98479  0.62171  1.0000
  H   H17       1.0  0.19167999999999996  0.023099999999999996  0.38415000000000005  1.0000
  H   H18       1.0  0.26468  0.8886299999999999  0.3825  1.0000
  H   H19       1.0  0.012169999999999946  0.10978999999999993  0.5592900000000002  1.0000
  H   H20       1.0  0.04719999999999999  0.1254  0.4610000000000001  1.0000
  H   H21       1.0  0.14236000000000001  0.11818999999999999  0.50644  1.0000
  H   H22       1.0  0.3753500000000001  0.6220699999999999  0.3687400000000001  1.0000
  H   H23       1.0  0.41929999999999984  0.48941999999999997  0.3629  1.0000
  H   H24       1.0  0.36059999999999987  0.45611  0.5995600000000001  1.0000
  H   H25       1.0  0.31479000000000007  0.5913999999999999  0.59627  1.0000
  H   H26       1.0  0.4014299999999999  0.37059999999999993  0.43164  1.0000
  H   H27       1.0  0.3638099999999999  0.3576  0.5309100000000001  1.0000
  H   H28       1.0  0.49913999999999953  0.35166  0.47852000000000006  1.0000
  H   H29       1.0  0.6415100000000001  0.6045399999999997  0.8518300000000001  1.0000
  H   H30       1.0  0.5630299999999995  0.61859  0.9864300000000001  1.0000
  H   H31       1.0  0.6774099999999998  0.38437999999999994  0.030820000000000004  1.0000
  H   H32       1.0  0.7502999999999996  0.37946999999999986  0.8945400000000001  1.0000
  H   H33       1.0  0.5466299999999997  0.46185  0.13401  1.0000
  H   H34       1.0  0.5033999999999998  0.55856  0.11482000000000003  1.0000
  H   H35       1.0  0.6363300000000001  0.5126199999999999  0.12139  1.0000
  H   H36       1.0  0.8727299999999997  0.36793999999999993  0.6201200000000001  1.0000
  H   H37       1.0  0.91861  0.36389  0.4849600000000001  1.0000
  H   H38       1.0  0.8640899999999996  0.59657  0.4542300000000001  1.0000
  H   H39       1.0  0.8163600000000002  0.59162  0.59182  1.0000
  H   H40       1.0  0.8635499999999997  0.53027  0.3533  1.0000
  H   H41       1.0  0.9060499999999996  0.43237999999999993  0.36428  1.0000
  H   H42       1.0  0.00018000000000007395  0.4812499999999999  0.34646  1.0000
  H   H43       1.0  0.57627  0.8931  0.63705  1.0000
  H   H44       1.0  0.66191  0.8773499999999999  0.5034400000000002  1.0000
  H   H45       1.0  0.5874799999999999  0.11376  0.45894  1.0000
  H   H46       1.0  0.50243  0.11867999999999995  0.59421  1.0000
  H   H47       1.0  0.7114100000000001  0.9352399999999998  0.37141  1.0000
  H   H48       1.0  0.6799399999999998  0.036009999999999986  0.3518  1.0000
  H   H49       1.0  0.36547999999999997  0.13253  0.87291  1.0000
  H   H50       1.0  0.2750899999999999  0.13753  0.00782  1.0000
  H   H51       1.0  0.41713999999999996  0.9045399999999998  0.03981  1.0000
  H   H52       1.0  0.49771999999999966  0.90839  0.9024200000000001  1.0000
  H   H53       1.0  0.26132000000000005  0.97081  0.14238  1.0000
  H   H54       1.0  0.21109  0.06847999999999999  0.12959000000000004  1.0000
  H   H55       1.0  0.33849999999999997  0.02446  0.14583  1.0000
  H   H56       1.0  0.36289999999999994  0.39585999999999993  0.14679  1.0000
  H   H57       1.0  0.43322999999999995  0.38227  0.01214  1.0000
  H   H58       1.0  0.31568999999999997  0.61643  0.96908  1.0000
  H   H59       1.0  0.25249999999999995  0.62099  0.10527  1.0000
  H   H60       1.0  0.3716  0.53847  0.86708  1.0000
  H   H61       1.0  0.41199  0.4411899999999999  0.8863200000000001  1.0000
  H   H62       1.0  0.5037399999999996  0.49018  0.8735300000000003  1.0000
  H   H63       1.0  0.13430000000000006  0.6318199999999999  0.37829  1.0000
  H   H64       1.0  0.08138000000000001  0.63748  0.5137  1.0000
  H   H65       1.0  0.13522999999999996  0.4047799999999999  0.54583  1.0000
  H   H66       1.0  0.18937000000000007  0.4082  0.40808  1.0000
  H   H67       1.0  0.042140000000000025  0.47849  0.65527  1.0000
  H   H68       1.0  0.024030000000000114  0.5742999999999999  0.64107  1.0000
  H   H69       1.0  0.15353999999999998  0.5120699999999999  0.6376200000000002  1.0000
  H   H70       1.0  0.42640999999999984  0.10619999999999999  0.3631800000000001  1.0000
  H   H71       1.0  0.3399599999999999  0.12198  0.49667  1.0000
  H   H72       1.0  0.4131699999999998  0.88558  0.5410700000000002  1.0000
  H   H73       1.0  0.5005299999999998  0.88058  0.4060100000000001  1.0000
  H   H74       1.0  0.3200599999999995  0.96325  0.6482  1.0000
  H   H75       1.0  0.28810999999999987  0.06406000000000002  0.62862  1.0000
  H   H76       1.0  0.6391400000000002  0.8677099999999999  0.12803  1.0000
  H   H77       1.0  0.7241799999999998  0.8617199999999999  0.9927500000000001  1.0000
  H   H78       1.0  0.5837600000000001  0.09491999999999999  0.96019  1.0000
  H   H79       1.0  0.50846  0.09197  0.09774  1.0000
  H   H80       1.0  0.6590199999999996  0.01619999999999999  0.8514  1.0000
  H   H81       1.0  0.7356599999999995  0.92308  0.86587  1.0000
  H   H82       1.0  0.7873800000000003  0.9940099999999993  0.86546  1.0000
  H   H83       1.0  0.90398  0.35449  0.10804000000000002  1.0000
  H   H84       1.0  0.8304699999999997  0.48785  0.11878000000000001  1.0000
  H   H85       1.0  0.74356  0.6108199999999999  0.05481  1.0000
  H   H86       1.0  0.7877200000000001  0.62774  0.9561200000000001  1.0000
  H   H87       1.0  0.13841999999999982  0.12425999999999994  0.8685900000000002  1.0000
  H   H88       1.0  0.22645  0.9912599999999996  0.8614600000000002  1.0000
  H   H89       1.0  0.08515999999999999  0.95667  0.09774  1.0000
  H   H90       1.0  0.0050700000000000155  0.09210999999999997  0.09574  1.0000
  H   H91       1.0  0.23065999999999995  0.86455  0.92504  1.0000
  H   H92       1.0  0.17362000000000016  0.8497899999999998  0.02279  1.0000
  H   H93       1.0  0.3000799999999999  0.86848  0.9847800000000001  1.0000
  H   H94       1.0  0.8574  0.14682  0.3894400000000001  1.0000
  H   H95       1.0  0.92644  0.013369999999999996  0.37889  1.0000
  H   H96       1.0  0.8024299999999998  0.9765499999999999  0.6166  1.0000
  H   H97       1.0  0.7390899999999999  0.11101  0.6179700000000002  1.0000
  H   H98       1.0  0.9046199999999999  0.8893  0.44293  1.0000
  H   H99       1.0  0.8683499999999997  0.87279  0.5417600000000002  1.0000
  H   H100      1.0  0.9986299999999999  0.8809599999999999  0.48955  1.0000
  H   H101      1.0  0.6319  0.37613  0.63116  1.0000
  H   H102      1.0  0.58066  0.50914  0.63845  1.0000
  H   H103      1.0  0.63887  0.54367  0.40177000000000007  1.0000
  H   H104      1.0  0.6915599999999997  0.40813999999999995  0.40368  1.0000
  H   H105      1.0  0.5332400000000002  0.63441  0.57699  1.0000
  H   H106      1.0  0.53691  0.6505299999999998  0.48200000000000004  1.0000
  H   H107      1.0  0.65656  0.63292  0.50647  1.0000
  H   H108      1.0  0.9058599999999996  0.52517  0.8808  1.0000
  H   H109      1.0  0.9788200000000002  0.39061  0.8792  1.0000
  H   H110      1.0  0.8727799999999998  0.6223599999999998  0.00911  1.0000
  C   C1        1.0  0.52649  0.61805  0.74831  1.0000
  C   C2        1.0  0.7688900000000001  0.72672  0.1544  1.0000
  C   C3        1.0  0.51727  0.7297699999999998  0.34707  1.0000
  C   C4        1.0  0.23417000000000013  0.7385599999999998  0.8695500000000002  1.0000
  C   C5        1.0  0.0981900000000001  0.6070999999999999  0.9402  1.0000
  C   C6        1.0  0.1351199999999999  0.53268  0.9345100000000001  1.0000
  C   C7        1.0  0.13382000000000005  0.48244999999999993  0.9984400000000001  1.0000
  C   C8        1.0  0.0924  0.51116  0.06636000000000003  1.0000
  C   C9        1.0  0.056490000000000005  0.5864  0.06785  1.0000
  C   C10       1.0  0.17750999999999986  0.40206  0.99352  1.0000
  C   C11       1.0  0.87516  0.9159799999999998  0.08161  1.0000
  C   C12       1.0  0.8238299999999996  0.9902199999999999  0.08454  1.0000
  C   C13       1.0  0.8347099999999997  0.03861  0.01917  1.0000
  C   C14       1.0  0.9018299999999997  0.00853000000000001  0.95345  1.0000
  C   C15       1.0  0.94987  0.9335999999999999  0.9547700000000001  1.0000
  C   C16       1.0  0.77745  0.11871  0.01968  1.0000
  C   C17       1.0  0.39262  0.87897  0.7556  1.0000
  C   C18       1.0  0.14659000000000005  0.7744  0.34823  1.0000
  C   C19       1.0  0.0907999999999999  0.76888  0.15459  1.0000
  C   C20       1.0  0.34605000000000014  0.7581499999999998  0.63107  1.0000
  C   C21       1.0  0.15405000000000002  0.8913099999999999  0.56194  1.0000
  C   C22       1.0  0.11048000000000008  0.9657199999999996  0.5675800000000002  1.0000
  C   C23       1.0  0.12218  0.015889999999999998  0.50366  1.0000
  C   C24       1.0  0.17898000000000006  0.9871999999999999  0.4359400000000001  1.0000
  C   C25       1.0  0.22013999999999986  0.9119999999999999  0.43451  1.0000
  C   C26       1.0  0.07782999999999998  0.09641000000000001  0.50811  1.0000
  C   C27       1.0  0.37302  0.58358  0.41882  1.0000
  C   C28       1.0  0.39818999999999977  0.50937  0.41585000000000005  1.0000
  C   C29       1.0  0.39199999999999985  0.46103999999999995  0.4813  1.0000
  C   C30       1.0  0.3642799999999998  0.49112  0.54718  1.0000
  C   C31       1.0  0.33927000000000007  0.5660499999999999  0.54591  1.0000
  C   C32       1.0  0.41440000000000005  0.3810799999999998  0.4805800000000001  1.0000
  C   C33       1.0  0.8924400000000002  0.7535399999999997  0.8780200000000002  1.0000
  C   C34       1.0  0.6505599999999997  0.34101  0.77289  1.0000
  C   C35       1.0  0.59132  0.15206999999999998  0.76294  1.0000
  C   C36       1.0  0.83795  0.62994  0.7599600000000002  1.0000
  C   C37       1.0  0.6477299999999998  0.55715  0.8933300000000001  1.0000
  C   C38       1.0  0.6044999999999999  0.5645499999999999  0.9684200000000001  1.0000
  C   C39       1.0  0.6142500000000001  0.5025099999999999  0.02061  1.0000
  C   C40       1.0  0.6671100000000001  0.43474  0.99317  1.0000
  C   C41       1.0  0.7082000000000002  0.43148  0.91711  1.0000
  C   C42       1.0  0.5720099999999998  0.50937  0.10186000000000002  1.0000
  C   C43       1.0  0.87185  0.41756000000000004  0.58161  1.0000
  C   C44       1.0  0.8981199999999997  0.41556999999999994  0.50599  1.0000
  C   C45       1.0  0.89343  0.48048999999999986  0.45767  1.0000
  C   C46       1.0  0.8664499999999999  0.54472  0.48915  1.0000
  C   C47       1.0  0.8403299999999999  0.54252  0.56541  1.0000
  C   C48       1.0  0.9162699999999999  0.4810499999999999  0.37617  1.0000
  C   C49       1.0  0.02949999999999992  0.74657  0.62261  1.0000
  C   C50       1.0  0.2626499999999999  0.15737999999999996  0.7264200000000001  1.0000
  C   C51       1.0  0.011300000000000053  0.3471599999999999  0.73225  1.0000
  C   C52       1.0  0.7336400000000001  0.87599  0.72877  1.0000
  C   C53       1.0  0.57952  0.9401399999999999  0.59531  1.0000
  C   C54       1.0  0.6260499999999999  0.9316899999999998  0.52112  1.0000
  C   C55       1.0  0.63229  0.9943799999999999  0.46711  1.0000
  C   C56       1.0  0.5837399999999998  0.06363  0.4960300000000001  1.0000
  C   C57       1.0  0.5379699999999998  0.06669999999999998  0.57129  1.0000
  C   C58       1.0  0.67695  0.9880699999999999  0.39226  1.0000
  C   C59       1.0  0.37529  0.08302  0.91161  1.0000
  C   C60       1.0  0.3256499999999998  0.08558999999999999  0.9871800000000001  1.0000
  C   C61       1.0  0.33766000000000007  0.020949999999999996  0.0359  1.0000
  C   C62       1.0  0.40315  0.9562999999999998  0.00467  1.0000
  C   C63       1.0  0.44899  0.9579599999999999  0.9284200000000001  1.0000
  C   C64       1.0  0.2835  0.02122  0.11764000000000001  1.0000
  C   C65       1.0  0.10812999999999998  0.24597  0.12390000000000001  1.0000
  C   C66       1.0  0.34759999999999996  0.6615299999999997  0.22791  1.0000
  C   C67       1.0  0.40575  0.85155  0.23583000000000004  1.0000
  C   C68       1.0  0.1611700000000001  0.37179999999999985  0.24036  1.0000
  C   C69       1.0  0.3548499999999998  0.44343  0.10557  1.0000
  C   C70       1.0  0.39335999999999993  0.43629999999999997  0.0304  1.0000
  C   C71       1.0  0.37988000000000016  0.49839999999999995  0.97849  1.0000
  C   C72       1.0  0.3293899999999998  0.56603  0.006340000000000002  1.0000
  C   C73       1.0  0.29347000000000006  0.56904  0.08246  1.0000
  C   C74       1.0  0.4180699999999999  0.49179  0.89719  1.0000
  C   C75       1.0  0.13362000000000004  0.58257  0.41717  1.0000
  C   C76       1.0  0.10367  0.58546  0.49286  1.0000
  C   C77       1.0  0.10522999999999995  0.52106  0.54175  1.0000
  C   C78       1.0  0.13487  0.45628  0.51058  1.0000
  C   C79       1.0  0.1645099999999999  0.45762  0.4341800000000001  1.0000
  C   C80       1.0  0.07871000000000002  0.52154  0.6234300000000002  1.0000
  C   C81       1.0  0.9746199999999997  0.25335  0.37673  1.0000
  C   C82       1.0  0.73887  0.8397299999999999  0.27411  1.0000
  C   C83       1.0  0.9878999999999999  0.64857  0.26991  1.0000
  C   C84       1.0  0.27067  0.12382999999999998  0.27094  1.0000
  C   C85       1.0  0.4228499999999999  0.05916999999999999  0.40489  1.0000
  C   C86       1.0  0.37553  0.06760999999999999  0.47901000000000005  1.0000
  C   C87       1.0  0.3685899999999999  0.004929999999999992  0.5330200000000002  1.0000
  C   C88       1.0  0.41750999999999994  0.93566  0.50404  1.0000
  C   C89       1.0  0.4644499999999999  0.9325599999999997  0.42891  1.0000
  C   C90       1.0  0.32301999999999986  0.011219999999999997  0.60776  1.0000
  C   C91       1.0  0.62871  0.91702  0.08911000000000002  1.0000
  C   C92       1.0  0.67548  0.9139299999999999  0.013390000000000004  1.0000
  C   C93       1.0  0.6616799999999999  0.97821  0.9643400000000001  1.0000
  C   C94       1.0  0.59889  0.04333999999999999  0.9954700000000001  1.0000
  C   C95       1.0  0.55589  0.04218  0.07186  1.0000
  C   C96       1.0  0.7129599999999998  0.9775699999999998  0.88239  1.0000
  C   C97       1.0  0.47530999999999995  0.37895  0.25307  1.0000
  C   C98       1.0  0.23349999999999999  0.27285  0.84265  1.0000
  C   C99       1.0  0.48297999999999963  0.27136  0.64859  1.0000
  C   C100      1.0  0.7677599999999998  0.26027  0.12982  1.0000
  C   C101      1.0  0.9035799999999998  0.39416999999999996  0.05894  1.0000
  C   C102      1.0  0.8622299999999998  0.46860999999999997  0.06448  1.0000
  C   C103      1.0  0.8606799999999999  0.5185599999999998  0.00047  1.0000
  C   C104      1.0  0.9049899999999995  0.48951999999999996  0.9326600000000002  1.0000
  C   C105      1.0  0.9456299999999999  0.41424999999999995  0.93131  1.0000
  C   C106      1.0  0.8132699999999998  0.59897  0.00526  1.0000
  C   C107      1.0  0.12851999999999994  0.08541000000000001  0.91828  1.0000
  C   C108      1.0  0.17699000000000004  0.011059999999999997  0.91458  1.0000
  C   C109      1.0  0.1643200000000001  0.9621399999999999  0.9794900000000001  1.0000
  C   C110      1.0  0.09986000000000014  0.9919799999999999  0.04574  1.0000
  C   C111      1.0  0.054509999999999996  0.06711  0.04517  1.0000
  C   C112      1.0  0.21913000000000016  0.88188  0.97799  1.0000
  C   C113      1.0  0.6093699999999997  0.12082999999999997  0.24625000000000002  1.0000
  C   C114      1.0  0.8514399999999995  0.22552  0.6553700000000002  1.0000
  C   C115      1.0  0.9057299999999999  0.2293099999999999  0.8501300000000003  1.0000
  C   C116      1.0  0.6551199999999999  0.24218999999999996  0.3706300000000001  1.0000
  C   C117      1.0  0.8477299999999998  0.10720999999999994  0.4385400000000001  1.0000
  C   C118      1.0  0.8860199999999998  0.032749999999999994  0.43309  1.0000
  C   C119      1.0  0.87159  0.9828799999999999  0.49717  1.0000
  C   C120      1.0  0.81796  0.012049999999999972  0.5647700000000001  1.0000
  C   C121      1.0  0.78198  0.08734999999999998  0.566  1.0000
  C   C122      1.0  0.9121899999999996  0.9022999999999999  0.49273  1.0000
  C   C123      1.0  0.6326300000000001  0.41495999999999994  0.58142  1.0000
  C   C124      1.0  0.6036299999999998  0.4893199999999999  0.5852  1.0000
  C   C125      1.0  0.6067699999999999  0.53819  0.5202500000000002  1.0000
  C   C126      1.0  0.63722  0.5083599999999999  0.45384  1.0000
  C   C127      1.0  0.6659699999999997  0.4332599999999999  0.45432  1.0000
  C   C128      1.0  0.58091  0.61838  0.52174  1.0000
  N   N1        1.0  0.6089299999999999  0.57612  0.7211600000000002  1.0000
  N   N2        1.0  0.8392799999999999  0.7370399999999998  0.10191  1.0000
  N   N3        1.0  0.43856  0.74221  0.39745  1.0000
  N   N4        1.0  0.1510799999999999  0.7680499999999999  0.90971  1.0000
  N   N5        1.0  0.05975000000000006  0.6341299999999999  0.005780000000000002  1.0000
  N   N6        1.0  0.9361000000000002  0.8874199999999999  0.01769  1.0000
  N   N7        1.0  0.40803000000000006  0.9204199999999999  0.78283  1.0000
  N   N8        1.0  0.1766699999999998  0.76472  0.40039  1.0000
  N   N9        1.0  0.07719999999999999  0.75554  0.10311  1.0000
  N   N10       1.0  0.3348700000000001  0.7266699999999998  0.59095  1.0000
  N   N11       1.0  0.20821000000000003  0.8643  0.49650000000000005  1.0000
  N   N12       1.0  0.34207000000000004  0.6121499999999999  0.48289  1.0000
  N   N13       1.0  0.91016  0.78112  0.91835  1.0000
  N   N14       1.0  0.6791599999999998  0.39284999999999987  0.76412  1.0000
  N   N15       1.0  0.57489  0.10342999999999998  0.74756  1.0000
  N   N16       1.0  0.82572  0.5882199999999999  0.73121  1.0000
  N   N17       1.0  0.69938  0.49177  0.86752  1.0000
  N   N18       1.0  0.8413599999999998  0.48012  0.61152  1.0000
  N   N19       1.0  0.11428999999999997  0.71783  0.58355  1.0000
  N   N20       1.0  0.33384  0.10569  0.73577  1.0000
  N   N21       1.0  0.9337699999999999  0.39743  0.74619  1.0000
  N   N22       1.0  0.6509100000000001  0.9198  0.75136  1.0000
  N   N23       1.0  0.5329899999999997  0.006349999999999994  0.62118  1.0000
  N   N24       1.0  0.43494999999999995  0.020219999999999988  0.88198  1.0000
  N   N25       1.0  0.09139  0.21814999999999998  0.08326  1.0000
  N   N26       1.0  0.32138999999999973  0.60867  0.23671  1.0000
  N   N27       1.0  0.42489999999999994  0.8991  0.25103000000000003  1.0000
  N   N28       1.0  0.17458000000000004  0.41335  0.26863  1.0000
  N   N29       1.0  0.30482999999999993  0.50869  0.13179  1.0000
  N   N30       1.0  0.16496999999999998  0.51965  0.38771  1.0000
  N   N31       1.0  0.8896999999999999  0.2818799999999999  0.4158300000000001  1.0000
  N   N32       1.0  0.6690299999999998  0.89233  0.26456  1.0000
  N   N33       1.0  0.06688999999999995  0.59935  0.2557400000000001  1.0000
  N   N34       1.0  0.35353999999999985  0.08047  0.24753000000000003  1.0000
  N   N35       1.0  0.4701899999999998  0.9929199999999998  0.3790400000000001  1.0000
  N   N36       1.0  0.5704099999999998  0.9800799999999998  0.1185  1.0000
  N   N37       1.0  0.39302999999999993  0.42115  0.28006  1.0000
  N   N38       1.0  0.16426999999999986  0.26267  0.89608  1.0000
  N   N39       1.0  0.56283  0.25877999999999995  0.5990800000000001  1.0000
  N   N40       1.0  0.8512799999999999  0.23184999999999997  0.08932000000000001  1.0000
  N   N41       1.0  0.9441599999999999  0.36678  0.9934400000000001  1.0000
  N   N42       1.0  0.06884999999999997  0.11361999999999996  0.98258  1.0000
  N   N43       1.0  0.59546  0.07943  0.21806  1.0000
  N   N44       1.0  0.8241399999999999  0.23548000000000002  0.60196  1.0000
  N   N45       1.0  0.9220899999999997  0.24312  0.9002400000000002  1.0000
  N   N46       1.0  0.66775  0.27403999999999995  0.40974  1.0000
  N   N47       1.0  0.7960499999999996  0.1347  0.50396  1.0000
  N   N48       1.0  0.66465  0.3868  0.51702  1.0000
