data_image0
_chemical_formula_structural       Zn16H56C136O52
_chemical_formula_sum              "Zn16 H56 C136 O52"
_cell_length_a       11.17518
_cell_length_b       22.00284
_cell_length_c       29.1304
_cell_angle_alpha    90.0
_cell_angle_beta     90.0
_cell_angle_gamma    90.00227

_symmetry_space_group_name_H-M    'P 1'
_symmetry_Int_Tables_number       1

loop_
  _symmetry_equiv_pos_as_xyz
  'x,y,z'

loop_
  _atom_site_type_symbol
  _atom_site_label
  _atom_site_symmetry_multiplicity
  _atom_site_fract_x
  _atom_site_fract_y
  _atom_site_fract_z
  _atom_site_occupancy
  Zn  Zn1       1.0  0.62101  0.84033  0.6795199999999999  1.0000
  Zn  Zn2       1.0  0.76678  0.9018900000000002  0.7632699999999998  1.0000
  Zn  Zn3       1.0  0.48815999999999987  0.88335  0.76239  1.0000
  Zn  Zn4       1.0  0.68316  0.97769  0.6881199999999997  1.0000
  Zn  Zn5       1.0  0.37898999999999994  0.15967  0.17952  1.0000
  Zn  Zn6       1.0  0.23321999999999998  0.09810000000000002  0.26327  1.0000
  Zn  Zn7       1.0  0.51185  0.11665  0.26238999999999996  1.0000
  Zn  Zn8       1.0  0.31684  0.022310000000000003  0.18812  1.0000
  Zn  Zn9       1.0  0.88139  0.33988000000000007  0.67944  1.0000
  Zn  Zn10      1.0  0.736  0.40233  0.7631399999999998  1.0000
  Zn  Zn11      1.0  0.01402  0.38333  0.76239  1.0000
  Zn  Zn12      1.0  0.8153699999999998  0.47758000000000006  0.6883899999999997  1.0000
  Zn  Zn13      1.0  0.11861  0.66012  0.17944  1.0000
  Zn  Zn14      1.0  0.264  0.59767  0.26314  1.0000
  Zn  Zn15      1.0  0.9859799999999999  0.61667  0.26238999999999996  1.0000
  Zn  Zn16      1.0  0.18463999999999997  0.5224100000000002  0.18838999999999995  1.0000
  H   H1        1.0  0.87213  0.99823  0.56092  1.0000
  H   H2        1.0  0.9796199999999999  0.97871  0.4873499999999999  1.0000
  H   H3        1.0  0.8055699999999998  0.80428  0.4768499999999999  1.0000
  H   H4        1.0  0.69624  0.82539  0.55005  1.0000
  H   H5        1.0  0.10586999999999999  0.9578900000000001  0.3460099999999999  1.0000
  H   H6        1.0  0.17090999999999998  0.8484800000000001  0.22594  1.0000
  H   H7        1.0  0.98822  0.7708000000000002  0.34187  1.0000
  H   H8        1.0  0.30657  0.68293  0.38632  1.0000
  H   H9        1.0  0.30279  0.7342900000000002  0.4627499999999999  1.0000
  H   H10       1.0  0.92618  0.69478  0.4744199999999999  1.0000
  H   H11       1.0  0.93189  0.64233  0.3981799999999999  1.0000
  H   H12       1.0  0.31516  0.80584  0.60298  1.0000
  H   H13       1.0  0.12256999999999998  0.87094  0.72103  1.0000
  H   H14       1.0  0.9286699999999998  0.7955700000000001  0.6068499999999998  1.0000
  H   H15       1.0  0.12788  0.0017700000000000003  0.06092  1.0000
  H   H16       1.0  0.020389999999999995  0.02129  0.98735  1.0000
  H   H17       1.0  0.19444  0.19572000000000006  0.9768499999999998  1.0000
  H   H18       1.0  0.3037599999999999  0.17461000000000002  0.05005  1.0000
  H   H19       1.0  0.8941399999999999  0.0421  0.84601  1.0000
  H   H20       1.0  0.8290999999999998  0.15152  0.7259399999999998  1.0000
  H   H21       1.0  0.01179  0.22920000000000001  0.8418699999999998  1.0000
  H   H22       1.0  0.69344  0.31707  0.8863199999999998  1.0000
  H   H23       1.0  0.6972199999999998  0.2657  0.9627499999999999  1.0000
  H   H24       1.0  0.07383  0.30521  0.9744199999999998  1.0000
  H   H25       1.0  0.06810999999999999  0.35766000000000003  0.8981799999999998  1.0000
  H   H26       1.0  0.68485  0.19416  0.10297999999999997  1.0000
  H   H27       1.0  0.8774399999999999  0.12906  0.22102999999999995  1.0000
  H   H28       1.0  0.07134  0.20443000000000003  0.10684999999999997  1.0000
  H   H29       1.0  0.62694  0.49750000000000005  0.5612899999999997  1.0000
  H   H30       1.0  0.52109  0.47850000000000004  0.4872099999999999  1.0000
  H   H31       1.0  0.6955  0.30418  0.47644  1.0000
  H   H32       1.0  0.80325  0.32479  0.55012  1.0000
  H   H33       1.0  0.3926  0.4574  0.34611999999999987  1.0000
  H   H34       1.0  0.32698999999999995  0.34746  0.22631999999999994  1.0000
  H   H35       1.0  0.51317  0.27077  0.34176999999999996  1.0000
  H   H36       1.0  0.1922  0.18339  0.38669  1.0000
  H   H37       1.0  0.19724  0.23468  0.4631999999999999  1.0000
  H   H38       1.0  0.57386  0.19476  0.4740999999999999  1.0000
  H   H39       1.0  0.56688  0.14241000000000004  0.39784999999999987  1.0000
  H   H40       1.0  0.18685  0.30572  0.6031499999999997  1.0000
  H   H41       1.0  0.37977  0.37078  0.7211499999999997  1.0000
  H   H42       1.0  0.57324  0.29541000000000006  0.6068899999999999  1.0000
  H   H43       1.0  0.37306999999999996  0.50249  0.06128999999999998  1.0000
  H   H44       1.0  0.47892  0.5215  0.9872099999999998  1.0000
  H   H45       1.0  0.3045  0.69582  0.9764399999999998  1.0000
  H   H46       1.0  0.19675  0.67521  0.050119999999999984  1.0000
  H   H47       1.0  0.6074  0.54259  0.8461199999999998  1.0000
  H   H48       1.0  0.67302  0.65253  0.7263199999999997  1.0000
  H   H49       1.0  0.4868299999999999  0.72923  0.84177  1.0000
  H   H50       1.0  0.80781  0.8166  0.8866899999999998  1.0000
  H   H51       1.0  0.80277  0.7653200000000001  0.9631999999999998  1.0000
  H   H52       1.0  0.4261399999999999  0.80523  0.9740999999999999  1.0000
  H   H53       1.0  0.43313  0.85758  0.8978499999999998  1.0000
  H   H54       1.0  0.81316  0.69428  0.10314999999999998  1.0000
  H   H55       1.0  0.62023  0.6292200000000001  0.22115  1.0000
  H   H56       1.0  0.42677  0.70459  0.10688999999999997  1.0000
  C   C1        1.0  0.7100499999999998  0.9240100000000002  0.6032199999999998  1.0000
  C   C2        1.0  0.7760699999999999  0.9133  0.5596199999999998  1.0000
  C   C3        1.0  0.8574599999999999  0.9561900000000001  0.5420899999999997  1.0000
  C   C4        1.0  0.91765  0.9451800000000001  0.5010999999999999  1.0000
  C   C5        1.0  0.89859  0.8904100000000001  0.4766399999999999  1.0000
  C   C6        1.0  0.81917  0.84674  0.4951999999999999  1.0000
  C   C7        1.0  0.75846  0.85838  0.53585  1.0000
  C   C8        1.0  0.95406  0.88006  0.4336099999999999  1.0000
  C   C9        1.0  0.9961599999999998  0.8715900000000001  0.3954  1.0000
  C   C10       1.0  0.04313  0.86477  0.35041  1.0000
  C   C11       1.0  0.09857999999999997  0.91444  0.32851999999999987  1.0000
  C   C12       1.0  0.14394  0.90862  0.2839399999999999  1.0000
  C   C13       1.0  0.1351  0.85319  0.26045  1.0000
  C   C14       1.0  0.0777  0.8039300000000001  0.28144  1.0000
  C   C15       1.0  0.03215  0.8095900000000001  0.3260599999999999  1.0000
  C   C16       1.0  0.19767  0.9630100000000003  0.26146  1.0000
  C   C17       1.0  0.06387  0.7445800000000001  0.25651  1.0000
  C   C18       1.0  0.12575  0.63028  0.3419  1.0000
  C   C19       1.0  0.11997  0.6589900000000001  0.3879499999999999  1.0000
  C   C20       1.0  0.22432  0.68549  0.40614  1.0000
  C   C21       1.0  0.22204  0.71426  0.4484499999999999  1.0000
  C   C22       1.0  0.11414999999999999  0.71798  0.4736999999999999  1.0000
  C   C23       1.0  0.00913  0.69188  0.45503  1.0000
  C   C24       1.0  0.012279999999999998  0.66256  0.4127099999999999  1.0000
  C   C25       1.0  0.11394999999999998  0.74668  0.5171099999999998  1.0000
  C   C26       1.0  0.11949  0.77085  0.5547999999999998  1.0000
  C   C27       1.0  0.12161  0.79768  0.5989699999999998  1.0000
  C   C28       1.0  0.23036  0.8137600000000001  0.6202499999999997  1.0000
  C   C29       1.0  0.23079999999999998  0.8397500000000001  0.66413  1.0000
  C   C30       1.0  0.12255999999999999  0.85043  0.68708  1.0000
  C   C31       1.0  0.014029999999999997  0.8340000000000001  0.6662699999999998  1.0000
  C   C32       1.0  0.01346  0.80784  0.6225799999999999  1.0000
  C   C33       1.0  0.34852  0.85385  0.6864599999999997  1.0000
  C   C34       1.0  0.89714  0.8450900000000001  0.6898599999999998  1.0000
  C   C35       1.0  0.28996  0.07599000000000002  0.10322  1.0000
  C   C36       1.0  0.22393999999999997  0.0867  0.059619999999999986  1.0000
  C   C37       1.0  0.14254  0.0438  0.04208999999999999  1.0000
  C   C38       1.0  0.08235  0.05482  0.0011  1.0000
  C   C39       1.0  0.10141  0.10959  0.9766399999999998  1.0000
  C   C40       1.0  0.18082999999999996  0.15325  0.9951999999999998  1.0000
  C   C41       1.0  0.24154999999999996  0.14161  0.035849999999999986  1.0000
  C   C42       1.0  0.04595  0.11994  0.9336099999999998  1.0000
  C   C43       1.0  0.00384  0.1284  0.8954  1.0000
  C   C44       1.0  0.95687  0.13522  0.8504099999999999  1.0000
  C   C45       1.0  0.9014199999999999  0.08555  0.82852  1.0000
  C   C46       1.0  0.8560699999999999  0.09138  0.7839399999999997  1.0000
  C   C47       1.0  0.8649099999999997  0.14681000000000002  0.76045  1.0000
  C   C48       1.0  0.9223  0.19607  0.7814399999999998  1.0000
  C   C49       1.0  0.96786  0.19040000000000004  0.8260599999999998  1.0000
  C   C50       1.0  0.80234  0.03699  0.7614599999999998  1.0000
  C   C51       1.0  0.9361299999999998  0.25542  0.7565099999999998  1.0000
  C   C52       1.0  0.87425  0.36972  0.8419  1.0000
  C   C53       1.0  0.88004  0.34101  0.8879499999999998  1.0000
  C   C54       1.0  0.77569  0.31451  0.9061399999999997  1.0000
  C   C55       1.0  0.77797  0.28574  0.94845  1.0000
  C   C56       1.0  0.8858499999999999  0.28201  0.9736999999999998  1.0000
  C   C57       1.0  0.9908699999999999  0.30812000000000006  0.9550299999999998  1.0000
  C   C58       1.0  0.9877299999999999  0.33744  0.9127099999999998  1.0000
  C   C59       1.0  0.88606  0.25332  0.01711  1.0000
  C   C60       1.0  0.88051  0.22915  0.05479999999999999  1.0000
  C   C61       1.0  0.8784  0.20232  0.09896999999999997  1.0000
  C   C62       1.0  0.76965  0.18624  0.12024999999999997  1.0000
  C   C63       1.0  0.7691999999999999  0.16025000000000003  0.16412999999999994  1.0000
  C   C64       1.0  0.87745  0.14957  0.18707999999999994  1.0000
  C   C65       1.0  0.9859799999999999  0.16599  0.16626999999999995  1.0000
  C   C66       1.0  0.9865499999999999  0.19216  0.12257999999999997  1.0000
  C   C67       1.0  0.65148  0.14615000000000003  0.18645999999999993  1.0000
  C   C68       1.0  0.10287  0.15491  0.18985999999999995  1.0000
  C   C69       1.0  0.78801  0.42238000000000003  0.60358  1.0000
  C   C70       1.0  0.72274  0.41243  0.55982  1.0000
  C   C71       1.0  0.64187  0.45558000000000004  0.54231  1.0000
  C   C72       1.0  0.58267  0.44486  0.50106  1.0000
  C   C73       1.0  0.60218  0.3902300000000001  0.47646  1.0000
  C   C74       1.0  0.68137  0.34644  0.4949899999999999  1.0000
  C   C75       1.0  0.7411099999999999  0.3577600000000001  0.53586  1.0000
  C   C76       1.0  0.54679  0.38006  0.4333999999999999  1.0000
  C   C77       1.0  0.5043599999999999  0.37152000000000013  0.39526  1.0000
  C   C78       1.0  0.45687  0.36455  0.3503699999999999  1.0000
  C   C79       1.0  0.4002099999999999  0.41399  0.32859  1.0000
  C   C80       1.0  0.35412  0.408  0.2840999999999999  1.0000
  C   C81       1.0  0.36328  0.3525  0.26073  1.0000
  C   C82       1.0  0.4216999999999999  0.3035  0.28163  1.0000
  C   C83       1.0  0.46819  0.30935  0.3260899999999999  1.0000
  C   C84       1.0  0.29973  0.46228  0.26159  1.0000
  C   C85       1.0  0.43547  0.24425  0.25663  1.0000
  C   C86       1.0  0.37269  0.13054  0.3419  1.0000
  C   C87       1.0  0.37883  0.15936  0.38791  1.0000
  C   C88       1.0  0.27474  0.18586000000000003  0.40635  1.0000
  C   C89       1.0  0.27765  0.21449  0.44873  1.0000
  C   C90       1.0  0.38592  0.21806000000000006  0.47376  1.0000
  C   C91       1.0  0.4906  0.19188  0.4548899999999999  1.0000
  C   C92       1.0  0.48676999999999987  0.16270000000000004  0.4125299999999999  1.0000
  C   C93       1.0  0.38697  0.24674  0.5171599999999998  1.0000
  C   C94       1.0  0.38221  0.27085  0.55488  1.0000
  C   C95       1.0  0.38031  0.29761  0.59905  1.0000
  C   C96       1.0  0.27166  0.31365  0.6203899999999998  1.0000
  C   C97       1.0  0.27143  0.33972  0.66423  1.0000
  C   C98       1.0  0.3796399999999999  0.35035000000000005  0.68718  1.0000
  C   C99       1.0  0.4879399999999999  0.33378  0.6663399999999999  1.0000
  C   C100      1.0  0.48845999999999995  0.30773000000000006  0.62262  1.0000
  C   C101      1.0  0.15394  0.35385000000000005  0.6865599999999998  1.0000
  C   C102      1.0  0.60501  0.34424  0.6898999999999997  1.0000
  C   C103      1.0  0.21198999999999998  0.57762  0.10357999999999998  1.0000
  C   C104      1.0  0.27726  0.58756  0.059819999999999984  1.0000
  C   C105      1.0  0.35813999999999996  0.54442  0.04231  1.0000
  C   C106      1.0  0.41734  0.55514  0.0010599999999999997  1.0000
  C   C107      1.0  0.39782  0.60977  0.9764599999999998  1.0000
  C   C108      1.0  0.31862999999999997  0.6535600000000001  0.9949899999999998  1.0000
  C   C109      1.0  0.2589  0.64224  0.03585999999999999  1.0000
  C   C110      1.0  0.45322  0.6199400000000002  0.9334  1.0000
  C   C111      1.0  0.49564999999999987  0.62848  0.8952599999999998  1.0000
  C   C112      1.0  0.54314  0.6354400000000001  0.8503699999999997  1.0000
  C   C113      1.0  0.59979  0.58601  0.82859  1.0000
  C   C114      1.0  0.64588  0.5919900000000001  0.7840999999999998  1.0000
  C   C115      1.0  0.63673  0.6474900000000001  0.7607299999999998  1.0000
  C   C116      1.0  0.5783099999999999  0.6965  0.7816299999999998  1.0000
  C   C117      1.0  0.53181  0.69065  0.8260899999999998  1.0000
  C   C118      1.0  0.70027  0.5377200000000001  0.7615899999999998  1.0000
  C   C119      1.0  0.56454  0.7557500000000003  0.75663  1.0000
  C   C120      1.0  0.62732  0.86945  0.8419  1.0000
  C   C121      1.0  0.6211799999999998  0.84064  0.8879099999999998  1.0000
  C   C122      1.0  0.72526  0.81414  0.9063499999999998  1.0000
  C   C123      1.0  0.7223499999999999  0.78551  0.9487299999999999  1.0000
  C   C124      1.0  0.61409  0.7819300000000001  0.9737599999999997  1.0000
  C   C125      1.0  0.50941  0.80812  0.9548899999999998  1.0000
  C   C126      1.0  0.51323  0.8372900000000002  0.91253  1.0000
  C   C127      1.0  0.61304  0.75325  0.017159999999999998  1.0000
  C   C128      1.0  0.6178  0.7291400000000001  0.054879999999999984  1.0000
  C   C129      1.0  0.6197  0.7023800000000001  0.09904999999999997  1.0000
  C   C130      1.0  0.7283499999999998  0.68634  0.12038999999999997  1.0000
  C   C131      1.0  0.72858  0.6602800000000001  0.16423  1.0000
  C   C132      1.0  0.62037  0.64965  0.18718  1.0000
  C   C133      1.0  0.5120699999999999  0.66621  0.16633999999999993  1.0000
  C   C134      1.0  0.51154  0.69227  0.12261999999999998  1.0000
  C   C135      1.0  0.84606  0.6461400000000002  0.18656  1.0000
  C   C136      1.0  0.39498999999999995  0.65575  0.18989999999999996  1.0000
  O   O1        1.0  0.62371  0.91216  0.7235599999999998  1.0000
  O   O2        1.0  0.63041  0.88689  0.6159799999999997  1.0000
  O   O3        1.0  0.73937  0.97281  0.62622  1.0000
  O   O4        1.0  0.18776999999999996  0.01349  0.28231  1.0000
  O   O5        1.0  0.24857  0.9547  0.22213  1.0000
  O   O6        1.0  0.12201999999999999  0.73686  0.21936999999999995  1.0000
  O   O7        1.0  0.9940899999999999  0.70601  0.27543  1.0000
  O   O8        1.0  0.22368999999999997  0.63906  0.31972999999999996  1.0000
  O   O9        1.0  0.03565  0.60006  0.32673  1.0000
  O   O10       1.0  0.44155  0.8333000000000003  0.66686  1.0000
  O   O11       1.0  0.34495  0.88515  0.72397  1.0000
  O   O12       1.0  0.8024999999999999  0.83014  0.6687099999999998  1.0000
  O   O13       1.0  0.9033299999999997  0.8700900000000001  0.7297299999999998  1.0000
  O   O14       1.0  0.37629  0.08784  0.22356  1.0000
  O   O15       1.0  0.3695899999999999  0.11311  0.11598  1.0000
  O   O16       1.0  0.26063  0.02719  0.12622  1.0000
  O   O17       1.0  0.81224  0.9865  0.7823099999999998  1.0000
  O   O18       1.0  0.75143  0.0453  0.72213  1.0000
  O   O19       1.0  0.87799  0.26314  0.71937  1.0000
  O   O20       1.0  0.00592  0.29399  0.7754299999999998  1.0000
  O   O21       1.0  0.77631  0.36094  0.8197299999999997  1.0000
  O   O22       1.0  0.96436  0.3999400000000001  0.8267299999999997  1.0000
  O   O23       1.0  0.5584499999999999  0.16670000000000001  0.16686  1.0000
  O   O24       1.0  0.65506  0.11485000000000002  0.22397  1.0000
  O   O25       1.0  0.19751  0.16985  0.16871  1.0000
  O   O26       1.0  0.09667  0.12991  0.22972999999999993  1.0000
  O   O27       1.0  0.87881  0.41206  0.72284  1.0000
  O   O28       1.0  0.86716  0.38478  0.61594  1.0000
  O   O29       1.0  0.75812  0.4707300000000001  0.62696  1.0000
  O   O30       1.0  0.30926  0.5128  0.28237  1.0000
  O   O31       1.0  0.24871999999999994  0.45411000000000007  0.22223999999999997  1.0000
  O   O32       1.0  0.37562  0.23639  0.21984999999999993  1.0000
  O   O33       1.0  0.5068  0.20604000000000006  0.2751299999999999  1.0000
  O   O34       1.0  0.27465  0.13933000000000004  0.31978  1.0000
  O   O35       1.0  0.46272  0.10023  0.3267699999999999  1.0000
  O   O36       1.0  0.06094  0.33352000000000004  0.6668499999999998  1.0000
  O   O37       1.0  0.15769  0.38494000000000006  0.72419  1.0000
  O   O38       1.0  0.6987299999999999  0.32746  0.6690599999999998  1.0000
  O   O39       1.0  0.5996899999999998  0.37048  0.72939  1.0000
  O   O40       1.0  0.1212  0.58794  0.22283999999999995  1.0000
  O   O41       1.0  0.13285  0.61521  0.11594  1.0000
  O   O42       1.0  0.24188999999999994  0.52927  0.12696  1.0000
  O   O43       1.0  0.69075  0.48719000000000007  0.7823699999999998  1.0000
  O   O44       1.0  0.7512899999999999  0.54589  0.7222399999999998  1.0000
  O   O45       1.0  0.62438  0.7636100000000001  0.71985  1.0000
  O   O46       1.0  0.4932099999999999  0.79396  0.7751299999999998  1.0000
  O   O47       1.0  0.7253599999999999  0.8606700000000002  0.81978  1.0000
  O   O48       1.0  0.5372899999999999  0.8997700000000001  0.8267699999999998  1.0000
  O   O49       1.0  0.9390599999999998  0.66648  0.16684999999999997  1.0000
  O   O50       1.0  0.8423099999999999  0.61506  0.22418999999999994  1.0000
  O   O51       1.0  0.30128  0.67254  0.16905999999999996  1.0000
  O   O52       1.0  0.40031  0.62952  0.22938999999999996  1.0000
