data_image0
_chemical_formula_structural       Cu4Si4H124C208N16
_chemical_formula_sum              "Cu4 Si4 H124 C208 N16"
_cell_length_a       22.16123
_cell_length_b       22.16318
_cell_length_c       32.07131
_cell_angle_alpha    91.7826
_cell_angle_beta     91.76913000000002
_cell_angle_gamma    94.42405

_space_group_name_H-M_alt    "P 1"
_space_group_IT_number       1

loop_
  _space_group_symop_operation_xyz
  'x, y, z'

loop_
  _atom_site_type_symbol
  _atom_site_label
  _atom_site_symmetry_multiplicity
  _atom_site_fract_x
  _atom_site_fract_y
  _atom_site_fract_z
  _atom_site_occupancy
  Cu  Cu1       1.0  0.61678  0.09322999999999998  0.16638999999999995  1.0000
  Cu  Cu2       1.0  0.09320000000000002  0.61685  0.66633  1.0000
  Cu  Cu3       1.0  0.90679  0.3831399999999999  0.33367999999999987  1.0000
  Cu  Cu4       1.0  0.38321  0.90677  0.83361  1.0000
  Si  Si1       1.0  0.10378  0.10618999999999999  0.4250799999999999  1.0000
  Si  Si2       1.0  0.10628  0.10384  0.92504  1.0000
  Si  Si3       1.0  0.89371  0.8961499999999999  0.07496  1.0000
  Si  Si4       1.0  0.89622  0.8938099999999995  0.5749199999999998  1.0000
  H   H1        1.0  0.20232  0.19564  0.46107  1.0000
  H   H2        1.0  0.20086000000000004  0.28815  0.50648  1.0000
  H   H3        1.0  0.0042800000000000026  0.26833  0.50124  1.0000
  H   H4        1.0  0.006420000000000002  0.17642  0.4591  1.0000
  H   H5        1.0  0.022850000000000002  0.49389  0.66371  1.0000
  H   H6        1.0  0.022640000000000004  0.40018  0.61881  1.0000
  H   H7        1.0  0.17651000000000003  0.48426  0.55705  1.0000
  H   H8        1.0  0.16653000000000007  0.57691  0.60152  1.0000
  H   H9        1.0  0.02085  0.00446  0.38978  1.0000
  H   H10       1.0  0.93042  0.99775  0.3420299999999999  1.0000
  H   H11       1.0  0.9436600000000003  0.19233  0.33517  1.0000
  H   H12       1.0  0.03459000000000001  0.19894  0.38198  1.0000
  H   H13       1.0  0.65528  0.16774  0.23938  1.0000
  H   H14       1.0  0.75164  0.17683999999999997  0.2826799999999999  1.0000
  H   H15       1.0  0.7795200000000001  0.99335  0.24208  1.0000
  H   H16       1.0  0.6850900000000002  0.99344  0.19839  1.0000
  H   H17       1.0  0.22463  0.052529999999999986  0.4333599999999999  1.0000
  H   H18       1.0  0.31554  0.05604  0.39003  1.0000
  H   H19       1.0  0.22781000000000004  0.16753  0.30267  1.0000
  H   H20       1.0  0.13611000000000006  0.16224  0.34516  1.0000
  H   H21       1.0  0.49322  0.20195  0.19522999999999993  1.0000
  H   H22       1.0  0.39524000000000004  0.18961  0.23165  1.0000
  H   H23       1.0  0.47595  0.05935  0.3092  1.0000
  H   H24       1.0  0.5707400000000001  0.07789  0.26963  1.0000
  H   H25       1.0  0.07644  0.08613  0.51451  1.0000
  H   H26       1.0  0.07820000000000002  0.9967399999999997  0.55928  1.0000
  H   H27       1.0  0.12604  0.88747  0.45389  1.0000
  H   H28       1.0  0.12688  0.9768099999999998  0.4094399999999999  1.0000
  H   H29       1.0  0.17951000000000003  0.72814  0.66314  1.0000
  H   H30       1.0  0.18892000000000006  0.82013  0.61973  1.0000
  H   H31       1.0  0.048080000000000005  0.64315  0.58228  1.0000
  H   H32       1.0  0.19576  0.20234  0.96104  1.0000
  H   H33       1.0  0.28817  0.20083  0.00652  1.0000
  H   H34       1.0  0.26828  0.00427  0.00129  1.0000
  H   H35       1.0  0.17645  0.006450000000000002  0.95908  1.0000
  H   H36       1.0  0.49382  0.02299  0.16380999999999996  1.0000
  H   H37       1.0  0.40009  0.022809999999999997  0.11894999999999997  1.0000
  H   H38       1.0  0.4842  0.17663  0.05715999999999999  1.0000
  H   H39       1.0  0.5769  0.16658999999999996  0.10157  1.0000
  H   H40       1.0  0.0045099999999999975  0.020989999999999995  0.8897  1.0000
  H   H41       1.0  0.9978200000000003  0.93041  0.8420799999999998  1.0000
  H   H42       1.0  0.19241  0.94354  0.8352799999999998  1.0000
  H   H43       1.0  0.19902  0.03462  0.88196  1.0000
  H   H44       1.0  0.16765  0.65511  0.73935  1.0000
  H   H45       1.0  0.17691000000000004  0.75145  0.7826699999999998  1.0000
  H   H46       1.0  0.9934099999999999  0.7795499999999997  0.74217  1.0000
  H   H47       1.0  0.9934100000000001  0.68516  0.69841  1.0000
  H   H48       1.0  0.05263  0.22471  0.9332999999999998  1.0000
  H   H49       1.0  0.05614  0.31555999999999995  0.8899199999999998  1.0000
  H   H50       1.0  0.16772  0.22779999999999995  0.8026199999999998  1.0000
  H   H51       1.0  0.16242999999999996  0.13613  0.8451499999999997  1.0000
  H   H52       1.0  0.20190000000000005  0.49325  0.69515  1.0000
  H   H53       1.0  0.18953000000000012  0.39525999999999994  0.73151  1.0000
  H   H54       1.0  0.05923000000000001  0.47582  0.80909  1.0000
  H   H55       1.0  0.07776  0.57067  0.7696  1.0000
  H   H56       1.0  0.08614  0.07644  0.01445  1.0000
  H   H57       1.0  0.99677  0.07818  0.05921  1.0000
  H   H58       1.0  0.88754  0.12614  0.9538699999999998  1.0000
  H   H59       1.0  0.9768800000000002  0.12698  0.90943  1.0000
  H   H60       1.0  0.72802  0.17960999999999996  0.16304999999999994  1.0000
  H   H61       1.0  0.82006  0.18888999999999997  0.11968  1.0000
  H   H62       1.0  0.6430100000000001  0.04814  0.08223  1.0000
  H   H63       1.0  0.8042400000000001  0.79766  0.03896  1.0000
  H   H64       1.0  0.7118200000000001  0.7991699999999999  0.99348  1.0000
  H   H65       1.0  0.7317100000000001  0.9957199999999998  0.9987099999999998  1.0000
  H   H66       1.0  0.82354  0.99355  0.04093  1.0000
  H   H67       1.0  0.50618  0.9769999999999999  0.83619  1.0000
  H   H68       1.0  0.5999100000000002  0.9771899999999999  0.8810499999999998  1.0000
  H   H69       1.0  0.51579  0.8233599999999999  0.94285  1.0000
  H   H70       1.0  0.4231  0.8333999999999999  0.89843  1.0000
  H   H71       1.0  0.9954900000000002  0.97901  0.1103  1.0000
  H   H72       1.0  0.00218  0.06958  0.15792  1.0000
  H   H73       1.0  0.8075900000000003  0.05644999999999999  0.16472  1.0000
  H   H74       1.0  0.8009800000000001  0.9653699999999997  0.11805  1.0000
  H   H75       1.0  0.83234  0.34488  0.26065  1.0000
  H   H76       1.0  0.8230900000000001  0.24854  0.21733  1.0000
  H   H77       1.0  0.0065899999999999926  0.22043999999999997  0.2578299999999999  1.0000
  H   H78       1.0  0.006589999999999987  0.31482999999999994  0.3016  1.0000
  H   H79       1.0  0.94737  0.7752799999999999  0.0667  1.0000
  H   H80       1.0  0.9438500000000002  0.68443  0.11008  1.0000
  H   H81       1.0  0.83227  0.7721999999999999  0.19738  1.0000
  H   H82       1.0  0.83757  0.86387  0.15485  1.0000
  H   H83       1.0  0.7981  0.50674  0.30486  1.0000
  H   H84       1.0  0.81046  0.6047399999999999  0.26849  1.0000
  H   H85       1.0  0.9407600000000006  0.52417  0.19091  1.0000
  H   H86       1.0  0.92223  0.42932999999999993  0.23039999999999994  1.0000
  H   H87       1.0  0.9138500000000002  0.92356  0.98555  1.0000
  H   H88       1.0  0.0032299999999999994  0.92181  0.9407899999999998  1.0000
  H   H89       1.0  0.11246000000000002  0.87386  0.046129999999999984  1.0000
  H   H90       1.0  0.023110000000000006  0.87301  0.09057  1.0000
  H   H91       1.0  0.27198  0.82038  0.83696  1.0000
  H   H92       1.0  0.17994  0.8111099999999998  0.8803199999999998  1.0000
  H   H93       1.0  0.3569899999999999  0.95186  0.91778  1.0000
  H   H94       1.0  0.79767  0.80435  0.53893  1.0000
  H   H95       1.0  0.79914  0.7118399999999999  0.4935199999999999  1.0000
  H   H96       1.0  0.99571  0.73167  0.49876  1.0000
  H   H97       1.0  0.99357  0.82358  0.5409  1.0000
  H   H98       1.0  0.9771500000000002  0.5061  0.33629  1.0000
  H   H99       1.0  0.97735  0.59982  0.38118999999999986  1.0000
  H   H100      1.0  0.8234799999999999  0.5157399999999999  0.44295  1.0000
  H   H101      1.0  0.83347  0.42308  0.3984799999999999  1.0000
  H   H102      1.0  0.9791400000000002  0.99554  0.61022  1.0000
  H   H103      1.0  0.06958  0.00223999999999999  0.6579699999999998  1.0000
  H   H104      1.0  0.05634  0.80767  0.66483  1.0000
  H   H105      1.0  0.9654000000000003  0.80106  0.6180299999999997  1.0000
  H   H106      1.0  0.34471000000000007  0.83225  0.7606199999999997  1.0000
  H   H107      1.0  0.24835  0.8231499999999999  0.71733  1.0000
  H   H108      1.0  0.22048000000000006  0.0066500000000000005  0.75792  1.0000
  H   H109      1.0  0.3149100000000001  0.006549999999999991  0.8016199999999998  1.0000
  H   H110      1.0  0.77536  0.94747  0.5666399999999998  1.0000
  H   H111      1.0  0.68446  0.94395  0.60997  1.0000
  H   H112      1.0  0.77219  0.83246  0.69733  1.0000
  H   H113      1.0  0.86389  0.8377599999999997  0.65484  1.0000
  H   H114      1.0  0.50677  0.7980499999999998  0.8047699999999998  1.0000
  H   H115      1.0  0.60475  0.81039  0.7683499999999998  1.0000
  H   H116      1.0  0.52405  0.9406399999999999  0.6908  1.0000
  H   H117      1.0  0.42926  0.92211  0.73037  1.0000
  H   H118      1.0  0.92356  0.9138699999999998  0.48549  1.0000
  H   H119      1.0  0.92179  0.0032599999999999925  0.4407299999999999  1.0000
  H   H120      1.0  0.8739600000000001  0.11253  0.54611  1.0000
  H   H121      1.0  0.87311  0.02317999999999999  0.5905599999999998  1.0000
  H   H122      1.0  0.82049  0.27185  0.3368699999999999  1.0000
  H   H123      1.0  0.8110800000000001  0.17985999999999996  0.38027  1.0000
  H   H124      1.0  0.95191  0.35683999999999994  0.41773  1.0000
  C   C1        1.0  0.10466  0.17769  0.4576599999999999  1.0000
  C   C2        1.0  0.15924  0.21086999999999995  0.4708999999999999  1.0000
  C   C3        1.0  0.15877  0.26287  0.49619  1.0000
  C   C4        1.0  0.10302  0.2837  0.50887  1.0000
  C   C5        1.0  0.04818  0.25174  0.49484  1.0000
  C   C6        1.0  0.04963  0.19947  0.46973  1.0000
  C   C7        1.0  0.10231000000000001  0.33612  0.53506  1.0000
  C   C8        1.0  0.05523000000000001  0.49049  0.6391  1.0000
  C   C9        1.0  0.05574  0.4380899999999999  0.61445  1.0000
  C   C10       1.0  0.09987  0.4336899999999999  0.58374  1.0000
  C   C11       1.0  0.14153  0.48482  0.58005  1.0000
  C   C12       1.0  0.1366  0.53619  0.6050199999999998  1.0000
  C   C13       1.0  0.10159000000000003  0.38142  0.5578699999999998  1.0000
  C   C14       1.0  0.03543  0.10191999999999998  0.38879  1.0000
  C   C15       1.0  0.004910000000000001  0.04558  0.37707  1.0000
  C   C16       1.0  0.9539  0.0415  0.3504899999999999  1.0000
  C   C17       1.0  0.93103  0.09463  0.3351299999999999  1.0000
  C   C18       1.0  0.96166  0.15132999999999996  0.34636  1.0000
  C   C19       1.0  0.01303  0.15453  0.3726299999999999  1.0000
  C   C20       1.0  0.87721  0.09143999999999998  0.31013  1.0000
  C   C21       1.0  0.6853000000000001  0.13113  0.24012  1.0000
  C   C22       1.0  0.73837  0.13556  0.26432  1.0000
  C   C23       1.0  0.7751100000000001  0.08605  0.2656999999999999  1.0000
  C   C24       1.0  0.7538500000000002  0.03328  0.24184999999999995  1.0000
  C   C25       1.0  0.70102  0.03298  0.21775999999999995  1.0000
  C   C26       1.0  0.8296800000000002  0.08892  0.28945  1.0000
  C   C27       1.0  0.17352000000000004  0.10737  0.3927199999999999  1.0000
  C   C28       1.0  0.22502  0.07783999999999999  0.40479  1.0000
  C   C29       1.0  0.27627  0.07955  0.38061  1.0000
  C   C30       1.0  0.27777  0.11196999999999997  0.3434  1.0000
  C   C31       1.0  0.22660000000000013  0.14234  0.33123  1.0000
  C   C32       1.0  0.17553  0.13951  0.35547  1.0000
  C   C33       1.0  0.32965  0.11452  0.3186799999999999  1.0000
  C   C34       1.0  0.4880500000000001  0.171  0.22086  1.0000
  C   C35       1.0  0.4332000000000001  0.16404  0.2409  1.0000
  C   C36       1.0  0.42768  0.12398999999999999  0.2742  1.0000
  C   C37       1.0  0.4782700000000001  0.09148999999999997  0.28421  1.0000
  C   C38       1.0  0.53096  0.10204  0.2621599999999999  1.0000
  C   C39       1.0  0.3744500000000001  0.11785  0.29732  1.0000
  C   C40       1.0  0.10211000000000003  0.0386  0.45869  1.0000
  C   C41       1.0  0.08787000000000003  0.04287  0.50112  1.0000
  C   C42       1.0  0.08866999999999998  0.9929199999999999  0.52644  1.0000
  C   C43       1.0  0.10344000000000002  0.9364399999999999  0.50981  1.0000
  C   C44       1.0  0.11569000000000002  0.93124  0.4669099999999999  1.0000
  C   C45       1.0  0.11556000000000001  0.9816499999999999  0.44214  1.0000
  C   C46       1.0  0.10722  0.8853799999999997  0.53499  1.0000
  C   C47       1.0  0.15173000000000003  0.7310499999999999  0.63473  1.0000
  C   C48       1.0  0.15617000000000003  0.78229  0.6109  1.0000
  C   C49       1.0  0.11479  0.7848499999999999  0.5765799999999998  1.0000
  C   C50       1.0  0.07396  0.73488  0.56411  1.0000
  C   C51       1.0  0.0764  0.68517  0.58926  1.0000
  C   C52       1.0  0.11234000000000002  0.83956  0.55463  1.0000
  C   C53       1.0  0.17777  0.10467  0.95763  1.0000
  C   C54       1.0  0.21095  0.15925000000000003  0.97088  1.0000
  C   C55       1.0  0.26289000000000007  0.15875  0.99622  1.0000
  C   C56       1.0  0.28367  0.10301999999999999  0.00893  1.0000
  C   C57       1.0  0.25174  0.04817999999999999  0.9948799999999998  1.0000
  C   C58       1.0  0.19951000000000005  0.04963999999999999  0.9697199999999998  1.0000
  C   C59       1.0  0.33604000000000006  0.10237999999999997  0.03519  1.0000
  C   C60       1.0  0.49041000000000007  0.05535  0.13919  1.0000
  C   C61       1.0  0.438  0.0559  0.11456  1.0000
  C   C62       1.0  0.4336  0.10003  0.08387  1.0000
  C   C63       1.0  0.48476  0.14165  0.08015  1.0000
  C   C64       1.0  0.53615  0.1367  0.10508  1.0000
  C   C65       1.0  0.38129  0.10176  0.05803  1.0000
  C   C66       1.0  0.10199  0.03547  0.88877  1.0000
  C   C67       1.0  0.04564000000000001  0.004979999999999997  0.87705  1.0000
  C   C68       1.0  0.04157000000000002  0.95391  0.85052  1.0000
  C   C69       1.0  0.09470000000000002  0.93097  0.83519  1.0000
  C   C70       1.0  0.1514  0.9616  0.84642  1.0000
  C   C71       1.0  0.15461000000000003  0.013019999999999999  0.87264  1.0000
  C   C72       1.0  0.09150000000000001  0.87712  0.81024  1.0000
  C   C73       1.0  0.13109  0.68519  0.74011  1.0000
  C   C74       1.0  0.13557999999999998  0.7382499999999999  0.76434  1.0000
  C   C75       1.0  0.08611  0.77503  0.7657599999999998  1.0000
  C   C76       1.0  0.03332  0.75385  0.74192  1.0000
  C   C77       1.0  0.032959999999999996  0.70103  0.71779  1.0000
  C   C78       1.0  0.089  0.8295599999999999  0.78956  1.0000
  C   C79       1.0  0.1075  0.17357  0.89267  1.0000
  C   C80       1.0  0.07793999999999998  0.22506999999999996  0.9047299999999998  1.0000
  C   C81       1.0  0.07964  0.27629  0.88052  1.0000
  C   C82       1.0  0.11203999999999997  0.2777499999999999  0.8432899999999998  1.0000
  C   C83       1.0  0.14247  0.22659999999999988  0.8311699999999997  1.0000
  C   C84       1.0  0.13966  0.17555  0.8554299999999998  1.0000
  C   C85       1.0  0.11453  0.32958  0.81855  1.0000
  C   C86       1.0  0.17094999999999996  0.48805  0.7207899999999998  1.0000
  C   C87       1.0  0.16398  0.43318999999999996  0.74079  1.0000
  C   C88       1.0  0.12391  0.42761  0.77409  1.0000
  C   C89       1.0  0.09140000000000001  0.47817999999999994  0.7841199999999998  1.0000
  C   C90       1.0  0.10195000000000003  0.5309  0.76213  1.0000
  C   C91       1.0  0.11779  0.37437  0.79718  1.0000
  C   C92       1.0  0.03867  0.10221  0.95865  1.0000
  C   C93       1.0  0.042899999999999994  0.08793  0.00108  1.0000
  C   C94       1.0  0.99294  0.08870999999999998  0.026399999999999993  1.0000
  C   C95       1.0  0.9364500000000002  0.10349  0.009789999999999997  1.0000
  C   C96       1.0  0.93129  0.11578  0.9669  1.0000
  C   C97       1.0  0.98172  0.11567999999999999  0.94213  1.0000
  C   C98       1.0  0.8853500000000001  0.10717  0.03496  1.0000
  C   C99       1.0  0.73097  0.15172  0.13469  1.0000
  C   C100      1.0  0.7822200000000001  0.15613  0.11087  1.0000
  C   C101      1.0  0.78477  0.11476  0.07654  1.0000
  C   C102      1.0  0.7347300000000002  0.07402  0.06404  1.0000
  C   C103      1.0  0.68505  0.07642  0.08922  1.0000
  C   C104      1.0  0.8395000000000002  0.11225999999999998  0.0546  1.0000
  C   C105      1.0  0.82223  0.89533  0.042369999999999984  1.0000
  C   C106      1.0  0.78905  0.8407499999999998  0.02912  1.0000
  C   C107      1.0  0.7371000000000001  0.84124  0.003789999999999999  1.0000
  C   C108      1.0  0.71632  0.89698  0.99107  1.0000
  C   C109      1.0  0.74826  0.9518199999999999  0.00512  1.0000
  C   C110      1.0  0.8004800000000001  0.9503499999999999  0.030279999999999994  1.0000
  C   C111      1.0  0.6639500000000002  0.8976099999999999  0.96481  1.0000
  C   C112      1.0  0.50958  0.9446399999999998  0.86081  1.0000
  C   C113      1.0  0.56199  0.94409  0.88544  1.0000
  C   C114      1.0  0.56639  0.89997  0.91614  1.0000
  C   C115      1.0  0.51524  0.85834  0.91985  1.0000
  C   C116      1.0  0.4638400000000001  0.8633  0.8949199999999998  1.0000
  C   C117      1.0  0.6187000000000001  0.89824  0.94198  1.0000
  C   C118      1.0  0.898  0.96452  0.11123  1.0000
  C   C119      1.0  0.9543500000000003  0.99502  0.12294999999999998  1.0000
  C   C120      1.0  0.95843  0.04608999999999999  0.14948  1.0000
  C   C121      1.0  0.90529  0.06902999999999998  0.16480999999999996  1.0000
  C   C122      1.0  0.84859  0.0384  0.15358  1.0000
  C   C123      1.0  0.84538  0.98697  0.12736999999999996  1.0000
  C   C124      1.0  0.90849  0.12288  0.18977  1.0000
  C   C125      1.0  0.8689000000000001  0.3148  0.25989  1.0000
  C   C126      1.0  0.86441  0.2617499999999999  0.23566  1.0000
  C   C127      1.0  0.91388  0.22496  0.23423999999999995  1.0000
  C   C128      1.0  0.96668  0.24614999999999995  0.25808  1.0000
  C   C129      1.0  0.96704  0.29895999999999995  0.28221  1.0000
  C   C130      1.0  0.9109900000000001  0.17043  0.21044  1.0000
  C   C131      1.0  0.8925  0.8264199999999998  0.10732999999999997  1.0000
  C   C132      1.0  0.92206  0.7749299999999999  0.09527999999999998  1.0000
  C   C133      1.0  0.92036  0.72371  0.11949  1.0000
  C   C134      1.0  0.8879600000000001  0.72225  0.15671  1.0000
  C   C135      1.0  0.8575200000000001  0.7733999999999999  0.16883999999999993  1.0000
  C   C136      1.0  0.86033  0.8244399999999997  0.14458  1.0000
  C   C137      1.0  0.88547  0.67041  0.18145  1.0000
  C   C138      1.0  0.82904  0.51195  0.2792099999999999  1.0000
  C   C139      1.0  0.8360199999999999  0.5668099999999999  0.2592099999999999  1.0000
  C   C140      1.0  0.87609  0.5723799999999999  0.22592  1.0000
  C   C141      1.0  0.9086  0.52181  0.21588  1.0000
  C   C142      1.0  0.89805  0.4690899999999999  0.23787  1.0000
  C   C143      1.0  0.8822100000000002  0.62562  0.20282999999999995  1.0000
  C   C144      1.0  0.96132  0.89779  0.04135  1.0000
  C   C145      1.0  0.9570900000000001  0.9120699999999998  0.99892  1.0000
  C   C146      1.0  0.007049999999999995  0.9112799999999998  0.97361  1.0000
  C   C147      1.0  0.06355  0.89651  0.99021  1.0000
  C   C148      1.0  0.06871000000000001  0.8842099999999999  0.033099999999999984  1.0000
  C   C149      1.0  0.01827  0.88431  0.057869999999999984  1.0000
  C   C150      1.0  0.11463999999999999  0.8928199999999998  0.96504  1.0000
  C   C151      1.0  0.26903000000000005  0.8482699999999999  0.8653099999999998  1.0000
  C   C152      1.0  0.21777000000000002  0.8438699999999999  0.88914  1.0000
  C   C153      1.0  0.21523000000000003  0.88524  0.92346  1.0000
  C   C154      1.0  0.26526000000000005  0.92597  0.9359599999999998  1.0000
  C   C155      1.0  0.31495  0.92358  0.91078  1.0000
  C   C156      1.0  0.16049  0.88773  0.9454  1.0000
  C   C157      1.0  0.8953400000000001  0.82231  0.5423399999999998  1.0000
  C   C158      1.0  0.8407600000000001  0.7891199999999999  0.5291  1.0000
  C   C159      1.0  0.8412300000000003  0.73713  0.50381  1.0000
  C   C160      1.0  0.8969700000000003  0.71629  0.49113  1.0000
  C   C161      1.0  0.95181  0.74825  0.50516  1.0000
  C   C162      1.0  0.9503600000000002  0.8005299999999997  0.53027  1.0000
  C   C163      1.0  0.8976900000000001  0.66388  0.46494  1.0000
  C   C164      1.0  0.94477  0.50951  0.3609  1.0000
  C   C165      1.0  0.94425  0.5618999999999998  0.38556  1.0000
  C   C166      1.0  0.9001200000000001  0.5663  0.4162599999999999  1.0000
  C   C167      1.0  0.8584700000000002  0.51517  0.4199499999999999  1.0000
  C   C168      1.0  0.86339  0.4637999999999999  0.3949799999999999  1.0000
  C   C169      1.0  0.89841  0.61858  0.4421299999999999  1.0000
  C   C170      1.0  0.96457  0.8980799999999999  0.61121  1.0000
  C   C171      1.0  0.9950800000000001  0.9544199999999999  0.6229299999999998  1.0000
  C   C172      1.0  0.046099999999999974  0.9584999999999998  0.6495099999999998  1.0000
  C   C173      1.0  0.06897  0.90536  0.6648699999999997  1.0000
  C   C174      1.0  0.03833000000000001  0.8486599999999999  0.65364  1.0000
  C   C175      1.0  0.9869700000000002  0.8454599999999999  0.62737  1.0000
  C   C176      1.0  0.12278  0.90856  0.68987  1.0000
  C   C177      1.0  0.3146900000000001  0.8688599999999997  0.75988  1.0000
  C   C178      1.0  0.26162  0.8644299999999999  0.73568  1.0000
  C   C179      1.0  0.22489  0.91395  0.7343  1.0000
  C   C180      1.0  0.24614000000000003  0.96671  0.75815  1.0000
  C   C181      1.0  0.29898  0.9670099999999999  0.78224  1.0000
  C   C182      1.0  0.17031  0.9110699999999998  0.71055  1.0000
  C   C183      1.0  0.8264800000000001  0.8926199999999999  0.60728  1.0000
  C   C184      1.0  0.77498  0.92215  0.59521  1.0000
  C   C185      1.0  0.72372  0.9204399999999999  0.61939  1.0000
  C   C186      1.0  0.7222300000000001  0.8880299999999999  0.65661  1.0000
  C   C187      1.0  0.77339  0.8576599999999999  0.6687699999999998  1.0000
  C   C188      1.0  0.8244700000000001  0.86049  0.64453  1.0000
  C   C189      1.0  0.6703500000000001  0.8854799999999999  0.68132  1.0000
  C   C190      1.0  0.51195  0.829  0.77914  1.0000
  C   C191      1.0  0.5668000000000001  0.8359499999999999  0.7590999999999998  1.0000
  C   C192      1.0  0.57231  0.876  0.7258  1.0000
  C   C193      1.0  0.5217200000000001  0.9085  0.71579  1.0000
  C   C194      1.0  0.46903  0.8979599999999998  0.7378399999999998  1.0000
  C   C195      1.0  0.62555  0.88215  0.70268  1.0000
  C   C196      1.0  0.89788  0.96139  0.54132  1.0000
  C   C197      1.0  0.9121200000000002  0.95713  0.49888  1.0000
  C   C198      1.0  0.9113200000000002  0.007069999999999995  0.47356  1.0000
  C   C199      1.0  0.8965500000000002  0.06354999999999998  0.4901899999999999  1.0000
  C   C200      1.0  0.8843000000000001  0.06875999999999999  0.5330899999999997  1.0000
  C   C201      1.0  0.88443  0.01834  0.55786  1.0000
  C   C202      1.0  0.89277  0.11461  0.46500999999999987  1.0000
  C   C203      1.0  0.84826  0.26894  0.36527  1.0000
  C   C204      1.0  0.84383  0.2177  0.3891  1.0000
  C   C205      1.0  0.8851999999999998  0.21515  0.4234199999999999  1.0000
  C   C206      1.0  0.9260400000000001  0.26512  0.43589  1.0000
  C   C207      1.0  0.9236000000000001  0.31483  0.41074  1.0000
  C   C208      1.0  0.88766  0.16044  0.4453699999999999  1.0000
  N   N1        1.0  0.09437  0.5399899999999999  0.6346699999999997  1.0000
  N   N2        1.0  0.66611  0.08104  0.21593999999999994  1.0000
  N   N3        1.0  0.53713  0.14156  0.23114  1.0000
  N   N4        1.0  0.11207  0.6827599999999999  0.6248699999999998  1.0000
  N   N5        1.0  0.53993  0.09446999999999998  0.13472999999999993  1.0000
  N   N6        1.0  0.08099  0.66609  0.71594  1.0000
  N   N7        1.0  0.1415  0.5371  0.73112  1.0000
  N   N8        1.0  0.68268  0.11203  0.12487  1.0000
  N   N9        1.0  0.4600600000000001  0.90553  0.8652699999999998  1.0000
  N   N10       1.0  0.919  0.33391  0.28405999999999987  1.0000
  N   N11       1.0  0.8584900000000001  0.46288999999999997  0.26888  1.0000
  N   N12       1.0  0.31731000000000004  0.88797  0.87513  1.0000
  N   N13       1.0  0.90563  0.46001  0.3653299999999999  1.0000
  N   N14       1.0  0.33388  0.91895  0.7840599999999998  1.0000
  N   N15       1.0  0.46286  0.85843  0.76886  1.0000
  N   N16       1.0  0.8879300000000002  0.31722999999999996  0.3751299999999999  1.0000
