data_image0
_chemical_formula_structural       Eu8H64C128N8O56
_chemical_formula_sum              "Eu8 H64 C128 N8 O56"
_cell_length_a       14.48061
_cell_length_b       23.581
_cell_length_c       26.51889
_cell_angle_alpha    85.11845999999998
_cell_angle_beta     74.17544
_cell_angle_gamma    71.98614

_symmetry_space_group_name_H-M    'P 1'
_symmetry_Int_Tables_number       1

loop_
  _symmetry_equiv_pos_as_xyz
  'x,y,z'

loop_
  _atom_site_type_symbol
  _atom_site_label
  _atom_site_symmetry_multiplicity
  _atom_site_fract_x
  _atom_site_fract_y
  _atom_site_fract_z
  _atom_site_occupancy
  Eu  Eu1       1.0  0.08416000000000003  0.25029  0.83178  1.0000
  Eu  Eu2       1.0  0.6663400000000004  0.24976999999999996  0.6683800000000001  1.0000
  Eu  Eu3       1.0  0.91589  0.74951  0.16832  1.0000
  Eu  Eu4       1.0  0.33389000000000013  0.74975  0.33186  1.0000
  Eu  Eu5       1.0  0.8332999999999999  0.33185  0.74943  1.0000
  Eu  Eu6       1.0  0.41511000000000015  0.16824  0.7501900000000001  1.0000
  Eu  Eu7       1.0  0.16667  0.66799  0.25059  1.0000
  Eu  Eu8       1.0  0.5851500000000003  0.8314999999999998  0.24976  1.0000
  H   H1        1.0  0.7729199999999999  0.2117  0.77754  1.0000
  H   H2        1.0  0.6230199999999999  0.0908  0.8695400000000001  1.0000
  H   H3        1.0  0.8650200000000001  0.12899999999999998  0.91345  1.0000
  H   H4        1.0  0.5317800000000003  0.007249999999999999  0.03837  1.0000
  H   H5        1.0  0.55742  0.9402299999999998  0.11422000000000002  1.0000
  H   H6        1.0  0.87768  0.89755  0.05215000000000001  1.0000
  H   H7        1.0  0.8536399999999998  0.9669299999999998  0.97728  1.0000
  H   H8        1.0  0.7906100000000006  0.06105999999999999  0.95962  1.0000
  H   H9        1.0  0.45023  0.28686  0.77914  1.0000
  H   H10       1.0  0.50723  0.40869  0.87042  1.0000
  H   H11       1.0  0.22079  0.37124999999999997  0.9137400000000001  1.0000
  H   H12       1.0  0.42980000000000007  0.4931999999999999  0.03775  1.0000
  H   H13       1.0  0.33007999999999993  0.56012  0.11378000000000002  1.0000
  H   H14       1.0  0.07001999999999999  0.60338  0.05313  1.0000
  H   H15       1.0  0.16745999999999994  0.53418  0.97799  1.0000
  H   H16       1.0  0.24831999999999999  0.43966  0.95953  1.0000
  H   H17       1.0  0.015490000000000047  0.21275  0.72058  1.0000
  H   H18       1.0  0.28657  0.09087  0.62936  1.0000
  H   H19       1.0  0.006059999999999981  0.12831  0.58586  1.0000
  H   H20       1.0  0.4607300000000001  0.00606  0.46171  1.0000
  H   H21       1.0  0.5031500000000002  0.9391999999999999  0.38574  1.0000
  H   H22       1.0  0.22551000000000002  0.89686  0.44691  1.0000
  H   H23       1.0  0.17893000000000003  0.9660699999999999  0.52182  1.0000
  H   H24       1.0  0.14765000000000006  0.05991  0.54039  1.0000
  H   H25       1.0  0.26173  0.28831  0.72285  1.0000
  H   H26       1.0  0.08316  0.40890999999999994  0.6302200000000001  1.0000
  H   H27       1.0  0.40736  0.3708099999999999  0.5871  1.0000
  H   H28       1.0  0.07725000000000003  0.4935099999999999  0.46186  1.0000
  H   H29       1.0  0.11322000000000006  0.55966  0.38558  1.0000
  H   H30       1.0  0.32887999999999995  0.60144  0.44798  1.0000
  H   H31       1.0  0.2981000000000001  0.5327499999999998  0.52319  1.0000
  H   H32       1.0  0.31153999999999976  0.43831  0.54041  1.0000
  H   H33       1.0  0.2271099999999999  0.78784  0.22237  1.0000
  H   H34       1.0  0.37696  0.90887  0.13063  1.0000
  H   H35       1.0  0.13466000000000003  0.87106  0.08672  1.0000
  H   H36       1.0  0.46841999999999995  0.9924799999999999  0.96198  1.0000
  H   H37       1.0  0.44349999999999995  0.058989999999999994  0.88586  1.0000
  H   H38       1.0  0.12305000000000002  0.10205999999999998  0.94766  1.0000
  H   H39       1.0  0.14653000000000005  0.03313  0.02278  1.0000
  H   H40       1.0  0.20900999999999997  0.93901  0.04066000000000001  1.0000
  H   H41       1.0  0.54973  0.71302  0.22084000000000004  1.0000
  H   H42       1.0  0.49284000000000006  0.5912  0.1296  1.0000
  H   H43       1.0  0.7792700000000001  0.62861  0.08622999999999999  1.0000
  H   H44       1.0  0.5698900000000002  0.5066199999999998  0.96238  1.0000
  H   H45       1.0  0.6699299999999999  0.43996999999999997  0.8862800000000001  1.0000
  H   H46       1.0  0.9298900000000002  0.39689  0.94686  1.0000
  H   H47       1.0  0.83253  0.46581999999999996  0.02203  1.0000
  H   H48       1.0  0.7515  0.56057  0.04016  1.0000
  H   H49       1.0  0.98465  0.78722  0.27939  1.0000
  H   H50       1.0  0.7135500000000001  0.9092099999999997  0.37054  1.0000
  H   H51       1.0  0.9940900000000001  0.8716399999999999  0.41409  1.0000
  H   H52       1.0  0.5395699999999999  0.99371  0.53825  1.0000
  H   H53       1.0  0.49701  0.06066  0.61429  1.0000
  H   H54       1.0  0.7747500000000003  0.10304  0.55305  1.0000
  H   H55       1.0  0.8213100000000001  0.03373999999999999  0.47812  1.0000
  H   H56       1.0  0.85247  0.94008  0.45952  1.0000
  H   H57       1.0  0.7383299999999997  0.71135  0.27717  1.0000
  H   H58       1.0  0.9169800000000001  0.59097  0.36989  1.0000
  H   H59       1.0  0.5928299999999995  0.62897  0.41302000000000005  1.0000
  H   H60       1.0  0.9226000000000002  0.50617  0.53828  1.0000
  H   H61       1.0  0.8865600000000002  0.4399899999999999  0.6145  1.0000
  H   H62       1.0  0.6710399999999999  0.3982399999999999  0.5519  1.0000
  H   H63       1.0  0.70178  0.46703999999999996  0.4768  1.0000
  H   H64       1.0  0.6883799999999999  0.56162  0.4597  1.0000
  C   C1        1.0  0.9011399999999999  0.20786  0.8380100000000001  1.0000
  C   C2        1.0  0.8244100000000001  0.17513  0.84601  1.0000
  C   C3        1.0  0.7634000000000003  0.18298999999999999  0.81159  1.0000
  C   C4        1.0  0.6912900000000001  0.15248  0.82034  1.0000
  C   C5        1.0  0.6797800000000003  0.11362999999999998  0.86275  1.0000
  C   C6        1.0  0.7434699999999999  0.10421  0.89637  1.0000
  C   C7        1.0  0.8153  0.13528  0.8878  1.0000
  C   C8        1.0  0.62785  0.16097  0.78248  1.0000
  C   C9        1.0  0.67078  0.03286  0.95866  1.0000
  C   C10       1.0  0.6906400000000004  0.99323  0.00386  1.0000
  C   C11       1.0  0.60738  0.9847  0.04213  1.0000
  C   C12       1.0  0.6216800000000003  0.9468199999999999  0.08439  1.0000
  C   C13       1.0  0.7193000000000002  0.9156299999999999  0.08806  1.0000
  C   C14       1.0  0.8026700000000001  0.9232199999999999  0.04927  1.0000
  C   C15       1.0  0.78853  0.96238  0.007760000000000001  1.0000
  C   C16       1.0  0.7360400000000001  0.87262  0.13208  1.0000
  C   C17       1.0  0.2599  0.29197  0.83927  1.0000
  C   C18       1.0  0.32943  0.32438  0.8469400000000001  1.0000
  C   C19       1.0  0.42534000000000005  0.31594  0.81292  1.0000
  C   C20       1.0  0.48888000000000004  0.3463  0.82168  1.0000
  C   C21       1.0  0.45729000000000003  0.38584  0.8636500000000001  1.0000
  C   C22       1.0  0.35959  0.39575  0.89694  1.0000
  C   C23       1.0  0.2965  0.3646  0.88844  1.0000
  C   C24       1.0  0.5911400000000001  0.3369  0.78449  1.0000
  C   C25       1.0  0.36921  0.46745999999999993  0.959  1.0000
  C   C26       1.0  0.30444000000000004  0.50724  0.00409  1.0000
  C   C27       1.0  0.35035  0.51569  0.04198  1.0000
  C   C28       1.0  0.29490000000000005  0.55356  0.08427  1.0000
  C   C29       1.0  0.19359  0.5848  0.08831  1.0000
  C   C30       1.0  0.14792000000000002  0.57745  0.04991000000000001  1.0000
  C   C31       1.0  0.20262000000000005  0.53832  0.00835  1.0000
  C   C32       1.0  0.13394000000000006  0.6277599999999999  0.13228  1.0000
  C   C33       1.0  0.8908000000000001  0.20777999999999996  0.66051  1.0000
  C   C34       1.0  0.0004500000000000174  0.17525999999999997  0.65275  1.0000
  C   C35       1.0  0.053729999999999965  0.18362  0.6868500000000001  1.0000
  C   C36       1.0  0.15655000000000005  0.15317  0.67819  1.0000
  C   C37       1.0  0.20682000000000006  0.1137  0.6362  1.0000
  C   C38       1.0  0.15238000000000007  0.10383999999999999  0.60287  1.0000
  C   C39       1.0  0.04949  0.13504  0.61129  1.0000
  C   C40       1.0  0.21151000000000003  0.16289999999999996  0.7155800000000001  1.0000
  C   C41       1.0  0.2962200000000001  0.03216  0.54077  1.0000
  C   C42       1.0  0.31589  0.99226  0.49583  1.0000
  C   C43       1.0  0.40791  0.98362  0.4577  1.0000
  C   C44       1.0  0.4320299999999999  0.94589  0.41538  1.0000
  C   C45       1.0  0.3657600000000001  0.9149199999999997  0.41145  1.0000
  C   C46       1.0  0.2745  0.92255  0.45004000000000005  1.0000
  C   C47       1.0  0.24895999999999993  0.96158  0.49162  1.0000
  C   C48       1.0  0.3926500000000003  0.8719299999999999  0.3675  1.0000
  C   C49       1.0  0.44688  0.2926  0.66281  1.0000
  C   C50       1.0  0.34525  0.32492  0.65458  1.0000
  C   C51       1.0  0.25761999999999996  0.31692999999999993  0.6887200000000001  1.0000
  C   C52       1.0  0.1637800000000002  0.3471699999999999  0.67957  1.0000
  C   C53       1.0  0.15598000000000004  0.38614  0.63719  1.0000
  C   C54       1.0  0.24393  0.39563999999999994  0.60382  1.0000
  C   C55       1.0  0.33821  0.36459  0.61263  1.0000
  C   C56       1.0  0.0707099999999999  0.3383  0.7168200000000001  1.0000
  C   C57       1.0  0.1620399999999999  0.46749  0.54187  1.0000
  C   C58       1.0  0.18758000000000002  0.50701  0.49660000000000004  1.0000
  C   C59       1.0  0.13441999999999998  0.5156399999999999  0.4581200000000001  1.0000
  C   C60       1.0  0.15392  0.55304  0.41561  1.0000
  C   C61       1.0  0.22447000000000006  0.58373  0.41191  1.0000
  C   C62       1.0  0.27635000000000004  0.5760899999999999  0.45089  1.0000
  C   C63       1.0  0.25908  0.53735  0.49261  1.0000
  C   C64       1.0  0.24262999999999996  0.6266  0.3679  1.0000
  C   C65       1.0  0.09869999999999998  0.79202  0.16206  1.0000
  C   C66       1.0  0.17546999999999993  0.82468  0.15405  1.0000
  C   C67       1.0  0.23661999999999997  0.81665  0.1884  1.0000
  C   C68       1.0  0.30879  0.84709  0.17974  1.0000
  C   C69       1.0  0.32021  0.88604  0.13739  1.0000
  C   C70       1.0  0.2564  0.89559  0.1038  1.0000
  C   C71       1.0  0.18448000000000003  0.86462  0.11233  1.0000
  C   C72       1.0  0.372  0.83843  0.21776  1.0000
  C   C73       1.0  0.32943000000000006  0.96671  0.041550000000000004  1.0000
  C   C74       1.0  0.30965999999999994  0.006529999999999999  0.99637  1.0000
  C   C75       1.0  0.39292999999999995  0.014949999999999996  0.9580300000000002  1.0000
  C   C76       1.0  0.37888  0.0527  0.9156100000000001  1.0000
  C   C77       1.0  0.28128000000000003  0.08400999999999999  0.91188  1.0000
  C   C78       1.0  0.19795999999999997  0.07637999999999999  0.95066  1.0000
  C   C79       1.0  0.21186000000000005  0.03738  0.9923  1.0000
  C   C80       1.0  0.26387999999999995  0.12731  0.86809  1.0000
  C   C81       1.0  0.74019  0.70791  0.16070000000000004  1.0000
  C   C82       1.0  0.67063  0.67557  0.15303  1.0000
  C   C83       1.0  0.5747299999999999  0.68397  0.18704  1.0000
  C   C84       1.0  0.5112300000000002  0.65356  0.17832  1.0000
  C   C85       1.0  0.5427900000000001  0.61403  0.13637  1.0000
  C   C86       1.0  0.6405099999999999  0.60418  0.10309  1.0000
  C   C87       1.0  0.7035800000000001  0.63533  0.11156  1.0000
  C   C88       1.0  0.4089900000000001  0.6629499999999999  0.21552  1.0000
  C   C89       1.0  0.6307300000000001  0.53208  0.04168  1.0000
  C   C90       1.0  0.6950900000000003  0.4925299999999999  0.9963  1.0000
  C   C91       1.0  0.6493000000000003  0.48416  0.95831  1.0000
  C   C92       1.0  0.70498  0.4465  0.91587  1.0000
  C   C93       1.0  0.80637  0.41533  0.9117  1.0000
  C   C94       1.0  0.8519300000000001  0.4227  0.95013  1.0000
  C   C95       1.0  0.7970800000000005  0.46162  0.99181  1.0000
  C   C96       1.0  0.8660899999999999  0.37232  0.86772  1.0000
  C   C97       1.0  0.10944999999999992  0.79213  0.33942  1.0000
  C   C98       1.0  0.9998100000000001  0.8247399999999999  0.34715  1.0000
  C   C99       1.0  0.94643  0.8163699999999999  0.31311  1.0000
  C   C100      1.0  0.8436000000000001  0.8467799999999999  0.32178  1.0000
  C   C101      1.0  0.79331  0.88635  0.36371000000000003  1.0000
  C   C102      1.0  0.8478000000000001  0.89613  0.39704  1.0000
  C   C103      1.0  0.9507000000000001  0.86492  0.38864  1.0000
  C   C104      1.0  0.7886  0.83703  0.28444  1.0000
  C   C105      1.0  0.7039400000000001  0.96776  0.45918  1.0000
  C   C106      1.0  0.68435  0.00759  0.50418  1.0000
  C   C107      1.0  0.59232  0.01618  0.54231  1.0000
  C   C108      1.0  0.5681599999999999  0.05393  0.58463  1.0000
  C   C109      1.0  0.63446  0.08492  0.58851  1.0000
  C   C110      1.0  0.72578  0.07732  0.54994  1.0000
  C   C111      1.0  0.7513199999999999  0.03826  0.50837  1.0000
  C   C112      1.0  0.6074000000000002  0.12795  0.63243  1.0000
  C   C113      1.0  0.5531999999999999  0.70709  0.33726  1.0000
  C   C114      1.0  0.6548500000000006  0.67483  0.34549  1.0000
  C   C115      1.0  0.7424799999999999  0.68279  0.31132  1.0000
  C   C116      1.0  0.8363199999999998  0.65265  0.32054  1.0000
  C   C117      1.0  0.84413  0.61373  0.36295  1.0000
  C   C118      1.0  0.75619  0.6041899999999999  0.39630000000000004  1.0000
  C   C119      1.0  0.6619199999999998  0.63524  0.38748  1.0000
  C   C120      1.0  0.92942  0.66139  0.28322  1.0000
  C   C121      1.0  0.83789  0.53234  0.45828  1.0000
  C   C122      1.0  0.81229  0.49273999999999996  0.50349  1.0000
  C   C123      1.0  0.8654  0.48405  0.542  1.0000
  C   C124      1.0  0.84591  0.44656999999999997  0.58446  1.0000
  C   C125      1.0  0.7754699999999999  0.41578999999999994  0.58805  1.0000
  C   C126      1.0  0.7235599999999999  0.4235799999999999  0.54907  1.0000
  C   C127      1.0  0.7407600000000001  0.46242999999999995  0.50741  1.0000
  C   C128      1.0  0.7575299999999999  0.37279  0.63201  1.0000
  N   N1        1.0  0.73961  0.06457  0.93881  1.0000
  N   N2        1.0  0.3203199999999999  0.43594999999999995  0.939  1.0000
  N   N3        1.0  0.19552999999999998  0.06356999999999999  0.5609  1.0000
  N   N4        1.0  0.24308000000000007  0.4353099999999999  0.5614  1.0000
  N   N5        1.0  0.26003000000000004  0.93541  0.06148000000000001  1.0000
  N   N6        1.0  0.6798100000000001  0.564  0.06106  1.0000
  N   N7        1.0  0.8046300000000001  0.9363899999999998  0.43901000000000007  1.0000
  N   N8        1.0  0.7569000000000001  0.56455  0.43872  1.0000
  O   O1        1.0  0.96239  0.19392  0.86651  1.0000
  O   O2        1.0  0.90336  0.24819999999999998  0.80229  1.0000
  O   O3        1.0  0.66224  0.18032  0.7372  1.0000
  O   O4        1.0  0.5451299999999999  0.1485  0.7967900000000001  1.0000
  O   O5        1.0  0.59871  0.03719  0.94076  1.0000
  O   O6        1.0  0.6662400000000003  0.8800099999999997  0.17479  1.0000
  O   O7        1.0  0.8190700000000001  0.8313  0.12389  1.0000
  O   O8        1.0  0.17091000000000006  0.30572  0.86864  1.0000
  O   O9        1.0  0.29143000000000013  0.2521999999999999  0.80311  1.0000
  O   O10       1.0  0.6053999999999999  0.3143099999999999  0.7400500000000001  1.0000
  O   O11       1.0  0.6578799999999999  0.35167  0.7984  1.0000
  O   O12       1.0  0.45933  0.46279  0.94137  1.0000
  O   O13       1.0  0.16165  0.62024  0.17479  1.0000
  O   O14       1.0  0.05928000000000002  0.66914  0.1239  1.0000
  O   O15       1.0  0.8445600000000003  0.19427  0.63124  1.0000
  O   O16       1.0  0.8467800000000004  0.24742  0.69682  1.0000
  O   O17       1.0  0.15758  0.1854  0.75991  1.0000
  O   O18       1.0  0.30701  0.14868  0.7018600000000002  1.0000
  O   O19       1.0  0.36426000000000003  0.03711  0.55811  1.0000
  O   O20       1.0  0.45462  0.87954  0.32471  1.0000
  O   O21       1.0  0.3516400000000002  0.8304299999999998  0.37606  1.0000
  O   O22       1.0  0.5225800000000002  0.3059  0.63356  1.0000
  O   O23       1.0  0.45410999999999996  0.25336999999999993  0.6994500000000001  1.0000
  O   O24       1.0  0.07848  0.31812  0.7620600000000001  1.0000
  O   O25       1.0  0.99025  0.35118999999999995  0.70194  1.0000
  O   O26       1.0  0.07638999999999996  0.46335  0.56022  1.0000
  O   O27       1.0  0.22212  0.61988  0.32525000000000004  1.0000
  O   O28       1.0  0.27723000000000003  0.66729  0.37608  1.0000
  O   O29       1.0  0.03742999999999999  0.80603  0.13356  1.0000
  O   O30       1.0  0.09639000000000013  0.7517199999999999  0.19781  1.0000
  O   O31       1.0  0.3379499999999999  0.81819  0.26269  1.0000
  O   O32       1.0  0.45425999999999994  0.85143  0.20398  1.0000
  O   O33       1.0  0.40181  0.9616999999999999  0.05941  1.0000
  O   O34       1.0  0.33368999999999993  0.12032999999999999  0.8254000000000001  1.0000
  O   O35       1.0  0.18046  0.16830999999999996  0.87633  1.0000
  O   O36       1.0  0.8291399999999999  0.69425  0.13132  1.0000
  O   O37       1.0  0.7085399999999998  0.74758  0.19697000000000003  1.0000
  O   O38       1.0  0.39490000000000003  0.6853899999999999  0.25999  1.0000
  O   O39       1.0  0.3420799999999999  0.64837  0.2016  1.0000
  O   O40       1.0  0.5409300000000002  0.5363899999999999  0.06026  1.0000
  O   O41       1.0  0.83834  0.37978999999999996  0.82521  1.0000
  O   O42       1.0  0.9407400000000001  0.3309  0.87604  1.0000
  O   O43       1.0  0.15573000000000006  0.80564  0.36866  1.0000
  O   O44       1.0  0.15328000000000003  0.7523399999999999  0.30322  1.0000
  O   O45       1.0  0.8424400000000002  0.8145299999999998  0.24007  1.0000
  O   O46       1.0  0.6931200000000001  0.8512599999999999  0.29817  1.0000
  O   O47       1.0  0.63586  0.96287  0.44185  1.0000
  O   O48       1.0  0.5452499999999999  0.12036  0.67514  1.0000
  O   O49       1.0  0.64839  0.16945  0.62392  1.0000
  O   O50       1.0  0.4774700000000003  0.6939899999999999  0.36672000000000005  1.0000
  O   O51       1.0  0.54592  0.7460999999999999  0.30045  1.0000
  O   O52       1.0  0.9217700000000001  0.68102  0.23783  1.0000
  O   O53       1.0  0.009790000000000087  0.6487799999999999  0.29815  1.0000
  O   O54       1.0  0.9234999999999999  0.53655  0.43999  1.0000
  O   O55       1.0  0.7778499999999998  0.37981  0.67465  1.0000
  O   O56       1.0  0.7232899999999999  0.33192  0.62383  1.0000
