data_image0
_chemical_formula_structural       Ni4H168C122N24O24
_chemical_formula_sum              "Ni4 H168 C122 N24 O24"
_cell_length_a       8.93518
_cell_length_b       19.21844
_cell_length_c       23.932089999999995
_cell_angle_alpha    85.04198
_cell_angle_beta     79.24449
_cell_angle_gamma    76.61823999999999

_symmetry_space_group_name_H-M    'P 1'
_symmetry_Int_Tables_number       1

loop_
  _symmetry_equiv_pos_as_xyz
  'x,y,z'

loop_
  _atom_site_type_symbol
  _atom_site_label
  _atom_site_symmetry_multiplicity
  _atom_site_fract_x
  _atom_site_fract_y
  _atom_site_fract_z
  _atom_site_occupancy
  Ni  Ni1       1.0  0.49894000000000005  0.50023  0.50031  1.0000
  Ni  Ni2       1.0  0.50216  0.0006100000000000049  0.99986  1.0000
  Ni  Ni3       1.0  0.99746  0.0009200000000000026  0.50077  1.0000
  Ni  Ni4       1.0  0.50322  0.4985  0.99899  1.0000
  H   H1        1.0  0.04323999999999997  0.11643999999999999  0.45117000000000007  1.0000
  H   H2        1.0  0.34477  0.59376  0.56884  1.0000
  H   H3        1.0  0.6048599999999998  0.36377  0.7275100000000001  1.0000
  H   H4        1.0  0.7225200000000002  0.32784  0.78061  1.0000
  H   H5        1.0  0.45770000000000033  0.29062  0.69072  1.0000
  H   H6        1.0  0.64269  0.23857  0.65893  1.0000
  H   H7        1.0  0.07335000000000004  0.2679099999999999  0.62826  1.0000
  H   H8        1.0  0.24489000000000005  0.35063  0.58403  1.0000
  H   H9        1.0  0.9667500000000002  0.51716  0.6904499999999999  1.0000
  H   H10       1.0  0.7875500000000001  0.43657999999999997  0.73358  1.0000
  H   H11       1.0  0.47339999999999993  0.24709  0.60029  1.0000
  H   H12       1.0  0.3158000000000001  0.21908  0.53273  1.0000
  H   H13       1.0  0.16913  0.05745999999999999  0.6506  1.0000
  H   H14       1.0  0.31342000000000003  0.08923  0.72147  1.0000
  H   H15       1.0  0.5415800000000003  0.62784  0.60997  1.0000
  H   H16       1.0  0.6797400000000001  0.5955999999999999  0.54916  1.0000
  H   H17       1.0  0.51326  0.49562  0.36905  1.0000
  H   H18       1.0  0.3178  0.49286  0.36474  1.0000
  H   H19       1.0  0.14779999999999993  0.50406  0.47502  1.0000
  H   H20       1.0  0.11933999999999997  0.5677  0.4174  1.0000
  H   H21       1.0  0.9795200000000001  0.62683  0.50174  1.0000
  H   H22       1.0  0.13446  0.59533  0.54006  1.0000
  H   H23       1.0  0.51104  0.60415  0.40067  1.0000
  H   H24       1.0  0.32201  0.6356599999999999  0.38055999999999995  1.0000
  H   H25       1.0  0.39295000000000013  0.70971  0.52685  1.0000
  H   H26       1.0  0.55689  0.66077  0.48097  1.0000
  H   H27       1.0  0.11554000000000002  0.70909  0.44203  1.0000
  H   H28       1.0  0.13785  0.7205  0.51188  1.0000
  H   H29       1.0  0.8909400000000002  0.08077999999999998  0.60641  1.0000
  H   H30       1.0  0.68429  0.09136  0.63015  1.0000
  H   H31       1.0  0.5780000000000001  0.9893100000000002  0.66438  1.0000
  H   H32       1.0  0.6981000000000002  0.90238  0.65554  1.0000
  H   H33       1.0  0.51332  0.94541  0.58175  1.0000
  H   H34       1.0  0.7113800000000002  0.9135599999999999  0.55242  1.0000
  H   H35       1.0  0.62079  0.02364  0.4999  1.0000
  H   H36       1.0  0.52568  0.06858999999999998  0.56315  1.0000
  H   H37       1.0  0.8331200000000001  0.15690999999999997  0.53145  1.0000
  H   H38       1.0  0.6372800000000003  0.16061  0.524  1.0000
  H   H39       1.0  0.7434300000000003  0.09011000000000001  0.43392  1.0000
  H   H40       1.0  0.79215  0.17529  0.42951  1.0000
  H   H41       1.0  0.9461600000000001  0.03329000000000001  0.37024999999999997  1.0000
  H   H42       1.0  0.03444000000000001  0.10818  0.34999  1.0000
  H   H43       1.0  0.61139  0.3831399999999999  0.04874  1.0000
  H   H44       1.0  0.50653  0.90693  0.93165  1.0000
  H   H45       1.0  0.6945500000000001  0.13607  0.77184  1.0000
  H   H46       1.0  0.8309  0.17201999999999998  0.7193899999999999  1.0000
  H   H47       1.0  0.43996  0.20919999999999997  0.80911  1.0000
  H   H48       1.0  0.54085  0.26156  0.8408  1.0000
  H   H49       1.0  0.9675  0.23221999999999998  0.87185  1.0000
  H   H50       1.0  0.17740000000000009  0.14993999999999996  0.91606  1.0000
  H   H51       1.0  0.17373000000000005  0.9832099999999999  0.8094599999999998  1.0000
  H   H52       1.0  0.9567299999999997  0.06347  0.76639  1.0000
  H   H53       1.0  0.32136999999999993  0.2523599999999999  0.89957  1.0000
  H   H54       1.0  0.06854999999999999  0.2797599999999999  0.96717  1.0000
  H   H55       1.0  0.8775100000000001  0.4415899999999999  0.84957  1.0000
  H   H56       1.0  0.12430999999999993  0.41020000000000006  0.77859  1.0000
  H   H57       1.0  0.77799  0.8721799999999998  0.8902399999999999  1.0000
  H   H58       1.0  0.8244600000000001  0.9044699999999999  0.95084  1.0000
  H   H59       1.0  0.3784699999999999  0.00448  0.13094  1.0000
  H   H60       1.0  0.17605  0.00708  0.13493  1.0000
  H   H61       1.0  0.12809000000000012  0.9960399999999999  0.024699999999999996  1.0000
  H   H62       1.0  0.10565000000000005  0.9324399999999999  0.08241  1.0000
  H   H63       1.0  0.10838000000000013  0.87338  0.99806  1.0000
  H   H64       1.0  0.2704200000000001  0.90469  0.95972  1.0000
  H   H65       1.0  0.51627  0.8959  0.09926  1.0000
  H   H66       1.0  0.33802000000000004  0.8647699999999999  0.11937  1.0000
  H   H67       1.0  0.6291900000000004  0.7909  0.973  1.0000
  H   H68       1.0  0.69815  0.8396799999999999  0.0192  1.0000
  H   H69       1.0  0.2662  0.791  0.05773999999999999  1.0000
  H   H70       1.0  0.37018000000000006  0.77961  0.98799  1.0000
  H   H71       1.0  0.57751  0.4186599999999999  0.8931  1.0000
  H   H72       1.0  0.4036300000000002  0.40884000000000004  0.8700299999999999  1.0000
  H   H73       1.0  0.23097000000000012  0.5109799999999999  0.83591  1.0000
  H   H74       1.0  0.25657  0.59779  0.84471  1.0000
  H   H75       1.0  0.041099999999999914  0.5547700000000001  0.91881  1.0000
  H   H76       1.0  0.17858000000000018  0.5867799999999999  0.94774  1.0000
  H   H77       1.0  0.14587999999999998  0.47684  0.0006  1.0000
  H   H78       1.0  0.15735999999999994  0.43172  0.9375000000000001  1.0000
  H   H79       1.0  0.52057  0.34282  0.96847  1.0000
  H   H80       1.0  0.32046000000000013  0.33989  0.97614  1.0000
  H   H81       1.0  0.26802000000000004  0.41065  0.0659  1.0000
  H   H82       1.0  0.39530000000000015  0.32508  0.07062  1.0000
  H   H83       1.0  0.35089000000000004  0.4671699999999999  0.12931  1.0000
  H   H84       1.0  0.49166000000000004  0.392  0.15009  1.0000
  H   H85       1.0  0.9550300000000002  0.88412  0.54912  1.0000
  H   H86       1.0  0.6549900000000003  0.40646999999999994  0.43137  1.0000
  H   H87       1.0  0.39525000000000016  0.63613  0.27243  1.0000
  H   H88       1.0  0.2775500000000001  0.67207  0.21933999999999998  1.0000
  H   H89       1.0  0.5424900000000001  0.70933  0.30925  1.0000
  H   H90       1.0  0.35727000000000014  0.7613199999999999  0.34096000000000004  1.0000
  H   H91       1.0  0.92673  0.73209  0.37173999999999996  1.0000
  H   H92       1.0  0.7551799999999999  0.6494  0.41598  1.0000
  H   H93       1.0  0.03320999999999998  0.48284  0.30958  1.0000
  H   H94       1.0  0.21239999999999998  0.56339  0.26642  1.0000
  H   H95       1.0  0.5267999999999999  0.75288  0.39962999999999993  1.0000
  H   H96       1.0  0.6841100000000002  0.78098  0.46717  1.0000
  H   H97       1.0  0.8305200000000001  0.94268  0.34924  1.0000
  H   H98       1.0  0.6866799999999998  0.91056  0.27832  1.0000
  H   H99       1.0  0.4586  0.37215  0.39011  1.0000
  H   H100      1.0  0.32023  0.40434999999999993  0.45087  1.0000
  H   H101      1.0  0.48680000000000007  0.50435  0.63107  1.0000
  H   H102      1.0  0.6822899999999998  0.50711  0.63533  1.0000
  H   H103      1.0  0.85205  0.49595  0.52498  1.0000
  H   H104      1.0  0.8806400000000003  0.43232  0.5826  1.0000
  H   H105      1.0  0.020420000000000018  0.3731999999999999  0.49827  1.0000
  H   H106      1.0  0.8654500000000003  0.40467000000000003  0.45996  1.0000
  H   H107      1.0  0.489  0.39576999999999996  0.59942  1.0000
  H   H108      1.0  0.67808  0.36429  0.61949  1.0000
  H   H109      1.0  0.6071600000000001  0.29034  0.47315  1.0000
  H   H110      1.0  0.44314999999999993  0.33912  0.51908  1.0000
  H   H111      1.0  0.8845400000000001  0.29090999999999995  0.55798  1.0000
  H   H112      1.0  0.86218  0.27951  0.48814  1.0000
  H   H113      1.0  0.10721000000000001  0.91972  0.39415000000000006  1.0000
  H   H114      1.0  0.3138500000000001  0.90894  0.37051999999999996  1.0000
  H   H115      1.0  0.42049999999999993  0.010599999999999997  0.3359  1.0000
  H   H116      1.0  0.30113  0.09768999999999999  0.34454  1.0000
  H   H117      1.0  0.48612000000000005  0.0545  0.4183  1.0000
  H   H118      1.0  0.28827  0.08688999999999998  0.44765  1.0000
  H   H119      1.0  0.37810999999999995  0.97674  0.50038  1.0000
  H   H120      1.0  0.47233  0.9315799999999999  0.43717  1.0000
  H   H121      1.0  0.16489000000000012  0.8438399999999997  0.46884999999999993  1.0000
  H   H122      1.0  0.36066  0.8401699999999999  0.47625  1.0000
  H   H123      1.0  0.2546900000000002  0.91067  0.56628  1.0000
  H   H124      1.0  0.20649000000000012  0.82543  0.57078  1.0000
  H   H125      1.0  0.0523600000000001  0.9670399999999999  0.63018  1.0000
  H   H126      1.0  0.9639199999999999  0.8922100000000001  0.65047  1.0000
  H   H127      1.0  0.39006000000000013  0.6150199999999999  0.9511400000000001  1.0000
  H   H128      1.0  0.49398000000000003  0.0941  0.0687  1.0000
  H   H129      1.0  0.3057700000000002  0.8638099999999999  0.22806  1.0000
  H   H130      1.0  0.16957000000000003  0.82786  0.28056  1.0000
  H   H131      1.0  0.5603599999999999  0.79074  0.19081000000000004  1.0000
  H   H132      1.0  0.4597999999999999  0.73827  0.15907  1.0000
  H   H133      1.0  0.032569999999999946  0.76773  0.12818  1.0000
  H   H134      1.0  0.8225900000000004  0.85016  0.08405  1.0000
  H   H135      1.0  0.8266500000000003  0.01672  0.19069  1.0000
  H   H136      1.0  0.04369000000000004  0.9363699999999999  0.23375999999999997  1.0000
  H   H137      1.0  0.67998  0.74736  0.10018  1.0000
  H   H138      1.0  0.9328700000000001  0.71961  0.03267  1.0000
  H   H139      1.0  0.12298000000000009  0.55791  0.15052  1.0000
  H   H140      1.0  0.87622  0.5897  0.22139  1.0000
  H   H141      1.0  0.2218100000000001  0.12798  0.10957  1.0000
  H   H142      1.0  0.1773  0.09541  0.04871999999999999  1.0000
  H   H143      1.0  0.6222500000000001  0.9956299999999999  0.8690299999999999  1.0000
  H   H144      1.0  0.82484  0.99305  0.8648099999999999  1.0000
  H   H145      1.0  0.87322  0.004210000000000006  0.97506  1.0000
  H   H146      1.0  0.8955100000000001  0.06790999999999998  0.9174100000000001  1.0000
  H   H147      1.0  0.89216  0.12686  0.00201  1.0000
  H   H148      1.0  0.7301700000000002  0.0953  0.04009  1.0000
  H   H149      1.0  0.48444000000000037  0.10411  0.9007799999999999  1.0000
  H   H150      1.0  0.6623800000000002  0.13548  0.88043  1.0000
  H   H151      1.0  0.37105  0.20963  0.02669  1.0000
  H   H152      1.0  0.3028300000000001  0.16018  0.9807400000000001  1.0000
  H   H153      1.0  0.73445  0.20928  0.94225  1.0000
  H   H154      1.0  0.63036  0.22044999999999998  0.01202  1.0000
  H   H155      1.0  0.42348000000000013  0.5799699999999999  0.1055  1.0000
  H   H156      1.0  0.596  0.59061  0.12913  1.0000
  H   H157      1.0  0.76893  0.48882999999999993  0.16388  1.0000
  H   H158      1.0  0.74446  0.40177  0.15526  1.0000
  H   H159      1.0  0.96044  0.4447999999999999  0.08156  1.0000
  H   H160      1.0  0.8240300000000002  0.41265  0.0521  1.0000
  H   H161      1.0  0.85798  0.52298  0.99954  1.0000
  H   H162      1.0  0.8433000000000002  0.56789  0.06294  1.0000
  H   H163      1.0  0.4800000000000001  0.6554699999999999  0.03089  1.0000
  H   H164      1.0  0.67934  0.6595  0.02341  1.0000
  H   H165      1.0  0.7334400000000002  0.58928  0.9330399999999999  1.0000
  H   H166      1.0  0.6034800000000001  0.67427  0.92898  1.0000
  H   H167      1.0  0.6501600000000001  0.53268  0.86941  1.0000
  H   H168      1.0  0.5070500000000001  0.60777  0.8497499999999999  1.0000
  C   C1        1.0  0.6888800000000004  0.3167  0.74097  1.0000
  C   C2        1.0  0.5501500000000002  0.24311  0.69674  1.0000
  C   C3        1.0  0.91786  0.34779  0.68178  1.0000
  C   C4        1.0  0.05015000000000003  0.32272999999999996  0.64119  1.0000
  C   C5        1.0  0.14591000000000004  0.36852  0.61728  1.0000
  C   C6        1.0  0.11554999999999994  0.43942999999999993  0.63389  1.0000
  C   C7        1.0  0.9883200000000002  0.4625  0.67702  1.0000
  C   C8        1.0  0.8879300000000001  0.41735999999999995  0.70107  1.0000
  C   C9        1.0  0.40247999999999995  0.16944999999999996  0.66518  1.0000
  C   C10       1.0  0.40429  0.20671000000000003  0.61218  1.0000
  C   C11       1.0  0.31784  0.19056  0.574  1.0000
  C   C12       1.0  0.23306000000000002  0.13679  0.58706  1.0000
  C   C13       1.0  0.14863  0.11806000000000001  0.54359  1.0000
  C   C14       1.0  0.23390999999999998  0.09966999999999998  0.64032  1.0000
  C   C15       1.0  0.31566  0.11625  0.67954  1.0000
  C   C16       1.0  0.2151  0.48895999999999995  0.60291  1.0000
  C   C17       1.0  0.5721200000000001  0.58763  0.57721  1.0000
  C   C18       1.0  0.40173000000000003  0.48774  0.39402999999999994  1.0000
  C   C19       1.0  0.17389999999999997  0.55462  0.45562  1.0000
  C   C20       1.0  0.10768000000000022  0.6141799999999998  0.49782  1.0000
  C   C21       1.0  0.3851300000000001  0.6137899999999998  0.41581  1.0000
  C   C22       1.0  0.4368500000000002  0.66101  0.50231  1.0000
  C   C23       1.0  0.1692599999999999  0.68197  0.4781  1.0000
  C   C24       1.0  0.78985  0.05794  0.60624  1.0000
  C   C25       1.0  0.6750100000000001  0.9567  0.63589  1.0000
  C   C26       1.0  0.6308100000000001  0.9565099999999999  0.57701  1.0000
  C   C27       1.0  0.62858  0.028850000000000008  0.54442  1.0000
  C   C28       1.0  0.75759  0.12861  0.5153  1.0000
  C   C29       1.0  0.8117199999999999  0.12159000000000002  0.45088999999999996  1.0000
  C   C30       1.0  0.03339000000000001  0.06074999999999999  0.37921  1.0000
  C   C31       1.0  0.7456299999999998  0.18308  0.7587900000000001  1.0000
  C   C32       1.0  0.49055  0.25689  0.8030399999999999  1.0000
  C   C33       1.0  0.94604  0.1522  0.8182400000000001  1.0000
  C   C34       1.0  0.012560000000000033  0.17746  0.8588  1.0000
  C   C35       1.0  0.13018999999999992  0.13181000000000004  0.88274  1.0000
  C   C36       1.0  0.18761  0.060899999999999996  0.86618  1.0000
  C   C37       1.0  0.12702  0.03783  0.82289  1.0000
  C   C38       1.0  0.005550000000000047  0.08278000000000002  0.7988299999999999  1.0000
  C   C39       1.0  0.23769000000000004  0.33012  0.83481  1.0000
  C   C40       1.0  0.22373000000000007  0.29274  0.8877999999999999  1.0000
  C   C41       1.0  0.08305000000000004  0.30877  0.92607  1.0000
  C   C42       1.0  0.9577100000000001  0.3626199999999999  0.9130799999999999  1.0000
  C   C43       1.0  0.8107800000000001  0.38165  0.95629  1.0000
  C   C44       1.0  0.9746300000000001  0.39966  0.85978  1.0000
  C   C45       1.0  0.11193999999999998  0.38316  0.82051  1.0000
  C   C46       1.0  0.30517  0.011290000000000001  0.89739  1.0000
  C   C47       1.0  0.7366100000000001  0.91252  0.92291  1.0000
  C   C48       1.0  0.28438000000000013  0.012310000000000001  0.1058  1.0000
  C   C49       1.0  0.18517000000000008  0.9455299999999999  0.04413  1.0000
  C   C50       1.0  0.22013000000000005  0.8859399999999998  0.00198  1.0000
  C   C51       1.0  0.4149400000000003  0.88642  0.08411  1.0000
  C   C52       1.0  0.59981  0.8394  0.99778  1.0000
  C   C53       1.0  0.32922  0.81814  0.02176  1.0000
  C   C54       1.0  0.4534900000000001  0.44195999999999996  0.8936799999999999  1.0000
  C   C55       1.0  0.2677100000000001  0.54346  0.86432  1.0000
  C   C56       1.0  0.16507000000000008  0.54374  0.92333  1.0000
  C   C57       1.0  0.20255000000000006  0.47148000000000007  0.95599  1.0000
  C   C58       1.0  0.40112000000000025  0.37148999999999993  0.9847  1.0000
  C   C59       1.0  0.3841200000000001  0.37864999999999993  0.04905999999999999  1.0000
  C   C60       1.0  0.47413000000000005  0.43924  0.12062  1.0000
  C   C61       1.0  0.31129  0.68321  0.25896  1.0000
  C   C62       1.0  0.44997  0.75678  0.30319  1.0000
  C   C63       1.0  0.08223000000000001  0.65219  0.31822  1.0000
  C   C64       1.0  0.9499600000000001  0.67726  0.35882  1.0000
  C   C65       1.0  0.85417  0.63148  0.38274  1.0000
  C   C66       1.0  0.88444  0.56056  0.36616  1.0000
  C   C67       1.0  0.011669999999999986  0.53749  0.32302  1.0000
  C   C68       1.0  0.11209000000000004  0.5826199999999999  0.29895  1.0000
  C   C69       1.0  0.59753  0.83051  0.33474  1.0000
  C   C70       1.0  0.59579  0.79331  0.38776999999999995  1.0000
  C   C71       1.0  0.68186  0.8096999999999999  0.42598  1.0000
  C   C72       1.0  0.7660800000000001  0.8637199999999999  0.41292  1.0000
  C   C73       1.0  0.8506699999999999  0.88275  0.45622000000000007  1.0000
  C   C74       1.0  0.7654900000000003  0.90057  0.35957  1.0000
  C   C75       1.0  0.68429  0.88369  0.3203  1.0000
  C   C76       1.0  0.7847800000000004  0.51104  0.39716  1.0000
  C   C77       1.0  0.42790999999999996  0.41236  0.42288  1.0000
  C   C78       1.0  0.5982999999999999  0.5122300000000001  0.60606  1.0000
  C   C79       1.0  0.8259799999999999  0.4454  0.5444  1.0000
  C   C80       1.0  0.8922500000000003  0.38583  0.5022  1.0000
  C   C81       1.0  0.61489  0.38617  0.58426  1.0000
  C   C82       1.0  0.5631500000000002  0.33901  0.49773  1.0000
  C   C83       1.0  0.8307499999999999  0.31803  0.52192  1.0000
  C   C84       1.0  0.20827999999999988  0.94255  0.39432000000000006  1.0000
  C   C85       1.0  0.32376000000000005  0.04345999999999999  0.36434  1.0000
  C   C86       1.0  0.36832  0.043730000000000005  0.42316  1.0000
  C   C87       1.0  0.36981000000000014  0.97154  0.45591  1.0000
  C   C88       1.0  0.24031000000000005  0.87217  0.48502  1.0000
  C   C89       1.0  0.18645000000000006  0.87912  0.5494  1.0000
  C   C90       1.0  0.9650300000000003  0.9396199999999999  0.62123  1.0000
  C   C91       1.0  0.25475999999999993  0.81679  0.24113  1.0000
  C   C92       1.0  0.5099499999999998  0.74299  0.19684999999999997  1.0000
  C   C93       1.0  0.0542400000000002  0.8476999999999998  0.18181  1.0000
  C   C94       1.0  0.98763  0.8224699999999999  0.14126  1.0000
  C   C95       1.0  0.8700200000000005  0.8681599999999999  0.11737  1.0000
  C   C96       1.0  0.81292  0.93904  0.13397  1.0000
  C   C97       1.0  0.8734  0.96209  0.17729  1.0000
  C   C98       1.0  0.9948400000000001  0.9170999999999999  0.20130999999999996  1.0000
  C   C99       1.0  0.76307  0.66971  0.1651  1.0000
  C   C100      1.0  0.7773899999999999  0.70692  0.11205  1.0000
  C   C101      1.0  0.9181399999999997  0.69068  0.0738  1.0000
  C   C102      1.0  0.04338000000000003  0.63673  0.08678  1.0000
  C   C103      1.0  0.19019000000000005  0.6173299999999999  0.04337  1.0000
  C   C104      1.0  0.026110000000000005  0.59991  0.14017  1.0000
  C   C105      1.0  0.88876  0.61664  0.17944  1.0000
  C   C106      1.0  0.6964300000000002  0.98885  0.10260000000000001  1.0000
  C   C107      1.0  0.26439000000000007  0.08762  0.07693  1.0000
  C   C108      1.0  0.7166700000000001  0.98783  0.8940100000000001  1.0000
  C   C109      1.0  0.8160800000000001  0.054740000000000004  0.9556599999999998  1.0000
  C   C110      1.0  0.7806399999999999  0.11423000000000003  0.99791  1.0000
  C   C111      1.0  0.5858100000000002  0.11379999999999997  0.91577  1.0000
  C   C112      1.0  0.40093000000000006  0.16091999999999998  0.00214  1.0000
  C   C113      1.0  0.6714900000000004  0.18203  0.97817  1.0000
  C   C114      1.0  0.54743  0.55705  0.10539  1.0000
  C   C115      1.0  0.73307  0.45601  0.13547  1.0000
  C   C116      1.0  0.8367900000000001  0.45571999999999996  0.07665  1.0000
  C   C117      1.0  0.7995900000000004  0.528  0.04397  1.0000
  C   C118      1.0  0.5999200000000001  0.62735  0.01464  1.0000
  C   C119      1.0  0.6168100000000001  0.62051  0.95027  1.0000
  C   C120      1.0  0.5266299999999999  0.5601  0.8786899999999999  1.0000
  C   C121      1.0  0.61759  0.25002  0.74984  1.0000
  C   C122      1.0  0.38276000000000004  0.7498499999999999  0.25005  1.0000
  N   N1        1.0  0.8127099999999999  0.98713  0.63364  1.0000
  N   N2        1.0  0.7701900000000004  0.05699  0.54538  1.0000
  N   N3        1.0  0.9777800000000003  0.08374000000000001  0.43931  1.0000
  N   N4        1.0  0.33983000000000013  0.66636  0.45919  1.0000
  N   N5        1.0  0.44930000000000025  0.5959199999999999  0.54172  1.0000
  N   N6        1.0  0.34635  0.54337  0.43722  1.0000
  N   N7        1.0  0.43354000000000004  0.51279  0.8663  1.0000
  N   N8        1.0  0.3732800000000001  0.44309  0.9546599999999998  1.0000
  N   N9        1.0  0.50174  0.41604  0.06058  1.0000
  N   N10       1.0  0.46518  0.83373  0.04083  1.0000
  N   N11       1.0  0.58661  0.90468  0.95858  1.0000
  N   N12       1.0  0.32809000000000005  0.9568199999999999  0.06254  1.0000
  N   N13       1.0  0.18569000000000008  0.013249999999999996  0.36674  1.0000
  N   N14       1.0  0.22772000000000006  0.9437799999999998  0.45509999999999995  1.0000
  N   N15       1.0  0.020280000000000027  0.9168299999999999  0.56113  1.0000
  N   N16       1.0  0.66019  0.33361  0.54087  1.0000
  N   N17       1.0  0.55046  0.40417  0.45845  1.0000
  N   N18       1.0  0.6535400000000001  0.45662  0.56287  1.0000
  N   N19       1.0  0.56737  0.48641999999999996  0.13306  1.0000
  N   N20       1.0  0.6290499999999999  0.55571  0.04458  1.0000
  N   N21       1.0  0.5000799999999999  0.58254  0.93885  1.0000
  N   N22       1.0  0.5355799999999998  0.16648  0.95905  1.0000
  N   N23       1.0  0.41461  0.0959  0.04158  1.0000
  N   N24       1.0  0.6732100000000001  0.043410000000000004  0.9372599999999999  1.0000
  O   O1        1.0  0.12166999999999999  0.05463  0.55029  1.0000
  O   O2        1.0  0.11383000000000004  0.16380999999999998  0.50416  1.0000
  O   O3        1.0  0.20563000000000012  0.5488899999999999  0.62276  1.0000
  O   O4        1.0  0.30290000000000017  0.4643399999999999  0.55649  1.0000
  O   O5        1.0  0.8246700000000001  0.29951  0.69763  1.0000
  O   O6        1.0  0.48462  0.18045  0.7055  1.0000
  O   O7        1.0  0.7278100000000001  0.44520999999999994  0.94942  1.0000
  O   O8        1.0  0.78088  0.33601999999999993  0.9956099999999999  1.0000
  O   O9        1.0  0.37572  0.95144  0.87742  1.0000
  O   O10       1.0  0.3214000000000001  0.035630000000000016  0.9440299999999999  1.0000
  O   O11       1.0  0.8194700000000001  0.1998999999999999  0.80266  1.0000
  O   O12       1.0  0.37094000000000016  0.3194  0.79442  1.0000
  O   O13       1.0  0.87709  0.9463200000000002  0.44966999999999996  1.0000
  O   O14       1.0  0.8864200000000002  0.8367699999999999  0.49541  1.0000
  O   O15       1.0  0.7943500000000002  0.4511  0.37727999999999995  1.0000
  O   O16       1.0  0.6969300000000002  0.53562  0.44358  1.0000
  O   O17       1.0  0.1755  0.70044  0.30233  1.0000
  O   O18       1.0  0.51532  0.81949  0.29446  1.0000
  O   O19       1.0  0.27298000000000006  0.5537099999999999  0.05007  1.0000
  O   O20       1.0  0.21961  0.66307  0.00393  1.0000
  O   O21       1.0  0.62695  0.048839999999999995  0.12246  1.0000
  O   O22       1.0  0.6805299999999999  0.96463  0.05585  1.0000
  O   O23       1.0  0.18078000000000014  0.7999399999999999  0.19733  1.0000
  O   O24       1.0  0.6296800000000001  0.68053  0.20549  1.0000
