data_image0
_chemical_formula_structural       Ni8H88C96N16O32
_chemical_formula_sum              "Ni8 H88 C96 N16 O32"
_cell_length_a       10.02121
_cell_length_b       10.5573
_cell_length_c       27.93672
_cell_angle_alpha    90.0
_cell_angle_beta     90.0
_cell_angle_gamma    90.0

_space_group_name_H-M_alt    "P 1"
_space_group_IT_number       1

loop_
  _space_group_symop_operation_xyz
  'x, y, z'

loop_
  _atom_site_type_symbol
  _atom_site_label
  _atom_site_symmetry_multiplicity
  _atom_site_fract_x
  _atom_site_fract_y
  _atom_site_fract_z
  _atom_site_occupancy
  Ni  Ni1       1.0  0.15137  0.4790200000000001  0.7218499999999998  1.0000
  Ni  Ni2       1.0  0.16354  0.9909500000000002  0.7843599999999997  1.0000
  Ni  Ni3       1.0  0.8486300000000001  0.4790200000000001  0.27815  1.0000
  Ni  Ni4       1.0  0.8364600000000002  0.9909500000000002  0.21563999999999994  1.0000
  Ni  Ni5       1.0  0.65137  0.52098  0.77815  1.0000
  Ni  Ni6       1.0  0.66354  0.009050000000000002  0.7156399999999998  1.0000
  Ni  Ni7       1.0  0.34863  0.52098  0.22184999999999994  1.0000
  Ni  Ni8       1.0  0.33646  0.009050000000000002  0.28436  1.0000
  H   H1        1.0  0.21452  0.1451  0.7186999999999998  1.0000
  H   H2        1.0  0.29776  0.00888  0.7076499999999998  1.0000
  H   H3        1.0  0.3322  0.51549  0.78002  1.0000
  H   H4        1.0  0.20588  0.60329  0.8005199999999998  1.0000
  H   H5        1.0  0.12712000000000004  0.5565900000000001  0.61925  1.0000
  H   H6        1.0  0.9978800000000001  0.49031000000000013  0.54634  1.0000
  H   H7        1.0  0.83579  0.18373  0.63145  1.0000
  H   H8        1.0  0.9677500000000001  0.26575  0.69967  1.0000
  H   H9        1.0  0.76984  0.47561000000000003  0.5180399999999997  1.0000
  H   H10       1.0  0.63746  0.40255  0.4484199999999999  1.0000
  H   H11       1.0  0.7325  0.016  0.4835699999999999  1.0000
  H   H12       1.0  0.8639  0.08926  0.5533999999999999  1.0000
  H   H13       1.0  0.64259  0.314  0.37182  1.0000
  H   H14       1.0  0.4947200000000001  0.23507  0.30731999999999987  1.0000
  H   H15       1.0  0.37242  0.92727  0.38724  1.0000
  H   H16       1.0  0.51382  0.9933  0.4569499999999999  1.0000
  H   H17       1.0  0.02725  0.84001  0.6488199999999997  1.0000
  H   H18       1.0  0.20253  0.8585700000000002  0.64932  1.0000
  H   H19       1.0  0.0876  0.0645  0.6534  1.0000
  H   H20       1.0  0.26359  0.39655000000000007  0.84908  1.0000
  H   H21       1.0  0.06091  0.51794  0.86762  1.0000
  H   H22       1.0  0.02168000000000001  0.35536  0.8630699999999998  1.0000
  H   H23       1.0  0.7854800000000001  0.1451  0.2813  1.0000
  H   H24       1.0  0.70224  0.00888  0.29234999999999994  1.0000
  H   H25       1.0  0.6678  0.51549  0.21997999999999995  1.0000
  H   H26       1.0  0.79412  0.60329  0.19947999999999994  1.0000
  H   H27       1.0  0.87288  0.5565900000000001  0.38074  1.0000
  H   H28       1.0  0.0021100000000000003  0.49031000000000013  0.4536599999999999  1.0000
  H   H29       1.0  0.16421  0.18373  0.3685499999999999  1.0000
  H   H30       1.0  0.03225  0.26575  0.3003299999999999  1.0000
  H   H31       1.0  0.23016  0.47561000000000003  0.4819599999999999  1.0000
  H   H32       1.0  0.36254  0.40255  0.55158  1.0000
  H   H33       1.0  0.2675  0.016  0.51643  1.0000
  H   H34       1.0  0.1361  0.08926  0.4466  1.0000
  H   H35       1.0  0.35741  0.314  0.62818  1.0000
  H   H36       1.0  0.50528  0.23507  0.6926799999999999  1.0000
  H   H37       1.0  0.6275800000000001  0.92727  0.61276  1.0000
  H   H38       1.0  0.48617  0.9933  0.54305  1.0000
  H   H39       1.0  0.9727500000000001  0.84001  0.35118  1.0000
  H   H40       1.0  0.79747  0.8585700000000002  0.35068  1.0000
  H   H41       1.0  0.9124000000000001  0.0645  0.34659999999999996  1.0000
  H   H42       1.0  0.7364100000000002  0.39655000000000007  0.15091999999999994  1.0000
  H   H43       1.0  0.9390900000000001  0.51794  0.13238  1.0000
  H   H44       1.0  0.9783100000000001  0.35536  0.13691999999999996  1.0000
  H   H45       1.0  0.71452  0.8549  0.7813  1.0000
  H   H46       1.0  0.79776  0.99112  0.79235  1.0000
  H   H47       1.0  0.8322  0.48451000000000005  0.71997  1.0000
  H   H48       1.0  0.70588  0.39670000000000005  0.6994799999999998  1.0000
  H   H49       1.0  0.62712  0.44341  0.8807399999999997  1.0000
  H   H50       1.0  0.49788  0.50969  0.95366  1.0000
  H   H51       1.0  0.33579  0.8162700000000002  0.8685499999999999  1.0000
  H   H52       1.0  0.46775  0.73425  0.8003299999999998  1.0000
  H   H53       1.0  0.26984  0.52439  0.9819599999999999  1.0000
  H   H54       1.0  0.13746  0.59745  0.05158  1.0000
  H   H55       1.0  0.2325  0.9840000000000002  0.01643  1.0000
  H   H56       1.0  0.36390000000000006  0.91074  0.9465999999999998  1.0000
  H   H57       1.0  0.14259  0.6860000000000002  0.12818  1.0000
  H   H58       1.0  0.99472  0.76493  0.19267999999999996  1.0000
  H   H59       1.0  0.8724200000000001  0.07273  0.11275999999999997  1.0000
  H   H60       1.0  0.013820000000000002  0.0067  0.04305  1.0000
  H   H61       1.0  0.5272500000000001  0.15999  0.85118  1.0000
  H   H62       1.0  0.7025300000000001  0.14143  0.8506799999999998  1.0000
  H   H63       1.0  0.5876000000000001  0.9355  0.8465999999999998  1.0000
  H   H64       1.0  0.76359  0.60344  0.6509199999999999  1.0000
  H   H65       1.0  0.56091  0.48206  0.6323699999999998  1.0000
  H   H66       1.0  0.52168  0.64464  0.63692  1.0000
  H   H67       1.0  0.28548000000000007  0.8549  0.21869999999999995  1.0000
  H   H68       1.0  0.20224000000000003  0.99112  0.20764999999999995  1.0000
  H   H69       1.0  0.1678  0.48451000000000005  0.28002  1.0000
  H   H70       1.0  0.29412000000000005  0.39670000000000005  0.30052  1.0000
  H   H71       1.0  0.37288  0.44341  0.11924999999999997  1.0000
  H   H72       1.0  0.50212  0.50969  0.046339999999999985  1.0000
  H   H73       1.0  0.66421  0.8162700000000002  0.13145  1.0000
  H   H74       1.0  0.5322500000000001  0.73425  0.19967  1.0000
  H   H75       1.0  0.73016  0.52439  0.018039999999999997  1.0000
  H   H76       1.0  0.8625400000000001  0.59745  0.9484199999999999  1.0000
  H   H77       1.0  0.7675  0.9840000000000002  0.98357  1.0000
  H   H78       1.0  0.6361000000000001  0.91074  0.05339999999999999  1.0000
  H   H79       1.0  0.8574100000000001  0.6860000000000002  0.8718199999999998  1.0000
  H   H80       1.0  0.00528  0.76493  0.8073099999999998  1.0000
  H   H81       1.0  0.12758  0.07273  0.8872299999999997  1.0000
  H   H82       1.0  0.9861700000000001  0.0067  0.9569499999999997  1.0000
  H   H83       1.0  0.47275  0.15999  0.14882  1.0000
  H   H84       1.0  0.29747000000000007  0.14143  0.14932  1.0000
  H   H85       1.0  0.4124  0.9355  0.1534  1.0000
  H   H86       1.0  0.23641  0.60344  0.34908  1.0000
  H   H87       1.0  0.43909000000000004  0.48206  0.3676199999999999  1.0000
  H   H88       1.0  0.47831000000000007  0.64464  0.36307999999999996  1.0000
  C   C1        1.0  0.060740000000000016  0.47513  0.6195499999999998  1.0000
  C   C2        1.0  0.9874300000000001  0.43817  0.5797099999999997  1.0000
  C   C3        1.0  0.90432  0.3311200000000001  0.5822799999999998  1.0000
  C   C4        1.0  0.89852  0.26668  0.62618  1.0000
  C   C5        1.0  0.97336  0.31067  0.6646599999999998  1.0000
  C   C6        1.0  0.8263  0.28767  0.5406299999999998  1.0000
  C   C7        1.0  0.7629500000000002  0.3749  0.5101099999999998  1.0000
  C   C8        1.0  0.68815  0.33388  0.47108  1.0000
  C   C9        1.0  0.67403  0.20384  0.46134999999999987  1.0000
  C   C10       1.0  0.73895  0.11674000000000001  0.49150999999999995  1.0000
  C   C11       1.0  0.8133400000000001  0.15774  0.53063  1.0000
  C   C12       1.0  0.59086  0.16033  0.42104  1.0000
  C   C13       1.0  0.58362  0.22868  0.37796  1.0000
  C   C14       1.0  0.50145  0.18548  0.34138  1.0000
  C   C15       1.0  0.43327000000000004  0.012640000000000002  0.3862099999999999  1.0000
  C   C16       1.0  0.51383  0.04932  0.42427  1.0000
  C   C17       1.0  0.12449  0.76977  0.71161  1.0000
  C   C18       1.0  0.11188  0.86816  0.6713699999999998  1.0000
  C   C19       1.0  0.09562  0.00693  0.6861199999999997  1.0000
  C   C20       1.0  0.96297  0.021520000000000004  0.71342  1.0000
  C   C21       1.0  0.18794  0.28557  0.7912499999999999  1.0000
  C   C22       1.0  0.19096000000000002  0.41093  0.8200199999999997  1.0000
  C   C23       1.0  0.054070000000000014  0.43837  0.8422899999999998  1.0000
  C   C24       1.0  0.94291  0.46757  0.8062799999999998  1.0000
  C   C25       1.0  0.93925  0.47513  0.38045  1.0000
  C   C26       1.0  0.01257  0.43817  0.4202899999999999  1.0000
  C   C27       1.0  0.09568000000000002  0.3311200000000001  0.41771999999999987  1.0000
  C   C28       1.0  0.10148  0.26668  0.3738199999999999  1.0000
  C   C29       1.0  0.026640000000000004  0.31067  0.33534  1.0000
  C   C30       1.0  0.1737  0.28767  0.45937  1.0000
  C   C31       1.0  0.23705000000000004  0.3749  0.48989  1.0000
  C   C32       1.0  0.31185  0.33388  0.5289199999999998  1.0000
  C   C33       1.0  0.32597  0.20384  0.5386499999999997  1.0000
  C   C34       1.0  0.26105  0.11674000000000001  0.50849  1.0000
  C   C35       1.0  0.18666  0.15774  0.4693699999999999  1.0000
  C   C36       1.0  0.40914  0.16033  0.57896  1.0000
  C   C37       1.0  0.41638000000000003  0.22868  0.62204  1.0000
  C   C38       1.0  0.4985500000000001  0.18548  0.6586199999999998  1.0000
  C   C39       1.0  0.56673  0.012640000000000002  0.61379  1.0000
  C   C40       1.0  0.48617  0.04932  0.5757299999999997  1.0000
  C   C41       1.0  0.8755100000000001  0.76977  0.28839  1.0000
  C   C42       1.0  0.88812  0.86816  0.32863  1.0000
  C   C43       1.0  0.90438  0.00693  0.31388  1.0000
  C   C44       1.0  0.03703  0.021520000000000004  0.2865799999999999  1.0000
  C   C45       1.0  0.8120600000000001  0.28557  0.20874999999999994  1.0000
  C   C46       1.0  0.80904  0.41093  0.17997999999999995  1.0000
  C   C47       1.0  0.94593  0.43837  0.15771  1.0000
  C   C48       1.0  0.05709  0.46757  0.19371999999999995  1.0000
  C   C49       1.0  0.56074  0.52486  0.8804499999999997  1.0000
  C   C50       1.0  0.48743000000000003  0.56183  0.92028  1.0000
  C   C51       1.0  0.40432000000000007  0.66887  0.9177199999999998  1.0000
  C   C52       1.0  0.39852  0.73332  0.8738199999999999  1.0000
  C   C53       1.0  0.47336  0.68932  0.83534  1.0000
  C   C54       1.0  0.3263  0.71233  0.9593699999999998  1.0000
  C   C55       1.0  0.26295  0.6251  0.9898899999999998  1.0000
  C   C56       1.0  0.18815  0.66612  0.028919999999999994  1.0000
  C   C57       1.0  0.17403000000000005  0.79616  0.03864999999999999  1.0000
  C   C58       1.0  0.23895000000000002  0.8832600000000003  0.008489999999999998  1.0000
  C   C59       1.0  0.31334  0.84226  0.96937  1.0000
  C   C60       1.0  0.09086  0.83967  0.07896  1.0000
  C   C61       1.0  0.08362000000000001  0.77132  0.12203999999999997  1.0000
  C   C62       1.0  0.0014500000000000003  0.8145200000000001  0.15862  1.0000
  C   C63       1.0  0.9332600000000002  0.98735  0.11379  1.0000
  C   C64       1.0  0.013830000000000002  0.9506700000000002  0.07572999999999998  1.0000
  C   C65       1.0  0.6244900000000001  0.23023000000000002  0.7883899999999999  1.0000
  C   C66       1.0  0.61187  0.13184  0.8286299999999998  1.0000
  C   C67       1.0  0.59562  0.9930600000000003  0.81388  1.0000
  C   C68       1.0  0.46297000000000005  0.97848  0.7865799999999997  1.0000
  C   C69       1.0  0.68794  0.71443  0.70875  1.0000
  C   C70       1.0  0.69095  0.58907  0.6799799999999998  1.0000
  C   C71       1.0  0.55407  0.56163  0.65771  1.0000
  C   C72       1.0  0.4429100000000001  0.53243  0.69372  1.0000
  C   C73       1.0  0.43925000000000003  0.52486  0.11954999999999998  1.0000
  C   C74       1.0  0.51257  0.56183  0.07970999999999999  1.0000
  C   C75       1.0  0.59568  0.66887  0.08227999999999998  1.0000
  C   C76       1.0  0.60148  0.73332  0.12618  1.0000
  C   C77       1.0  0.52664  0.68932  0.16466  1.0000
  C   C78       1.0  0.6737  0.71233  0.04062999999999999  1.0000
  C   C79       1.0  0.73704  0.6251  0.01011  1.0000
  C   C80       1.0  0.81185  0.66612  0.9710799999999998  1.0000
  C   C81       1.0  0.8259700000000001  0.79616  0.9613499999999998  1.0000
  C   C82       1.0  0.7610500000000001  0.8832600000000003  0.9915099999999998  1.0000
  C   C83       1.0  0.68666  0.84226  0.030629999999999998  1.0000
  C   C84       1.0  0.90914  0.83967  0.9210399999999997  1.0000
  C   C85       1.0  0.9163800000000001  0.77132  0.8779599999999999  1.0000
  C   C86       1.0  0.9985500000000002  0.8145200000000001  0.84138  1.0000
  C   C87       1.0  0.06673  0.98735  0.8862099999999998  1.0000
  C   C88       1.0  0.9861700000000001  0.9506700000000002  0.9242699999999998  1.0000
  C   C89       1.0  0.3755100000000001  0.23023000000000002  0.21160999999999994  1.0000
  C   C90       1.0  0.38812  0.13184  0.17136999999999994  1.0000
  C   C91       1.0  0.4043800000000001  0.9930600000000003  0.18612  1.0000
  C   C92       1.0  0.53703  0.97848  0.21342  1.0000
  C   C93       1.0  0.31206  0.71443  0.29125  1.0000
  C   C94       1.0  0.3090400000000001  0.58907  0.32002  1.0000
  C   C95       1.0  0.44593  0.56163  0.34228999999999987  1.0000
  C   C96       1.0  0.55709  0.53243  0.30628  1.0000
  N   N1        1.0  0.20699  0.04756  0.7163599999999999  1.0000
  N   N2        1.0  0.23172000000000004  0.51533  0.7882499999999998  1.0000
  N   N3        1.0  0.05388  0.41268000000000005  0.6616699999999998  1.0000
  N   N4        1.0  0.4259200000000001  0.07964  0.3451299999999999  1.0000
  N   N5        1.0  0.79301  0.04756  0.28363999999999995  1.0000
  N   N6        1.0  0.76828  0.51533  0.21173999999999998  1.0000
  N   N7        1.0  0.9461200000000001  0.41268000000000005  0.33833  1.0000
  N   N8        1.0  0.57408  0.07964  0.65487  1.0000
  N   N9        1.0  0.7069900000000002  0.9524400000000001  0.78364  1.0000
  N   N10       1.0  0.7317200000000003  0.48467  0.71174  1.0000
  N   N11       1.0  0.55387  0.5873200000000001  0.8383299999999998  1.0000
  N   N12       1.0  0.92592  0.92036  0.15487  1.0000
  N   N13       1.0  0.29301  0.9524400000000001  0.21636  1.0000
  N   N14       1.0  0.26828  0.48467  0.28826  1.0000
  N   N15       1.0  0.44612  0.5873200000000001  0.16167  1.0000
  N   N16       1.0  0.07408  0.92036  0.8451299999999999  1.0000
  O   O1        1.0  0.15992  0.7994900000000003  0.7539399999999998  1.0000
  O   O2        1.0  0.09938  0.65778  0.69735  1.0000
  O   O3        1.0  0.96758  0.025090000000000005  0.7589899999999998  1.0000
  O   O4        1.0  0.85807  0.025490000000000006  0.6879899999999999  1.0000
  O   O5        1.0  0.17334000000000002  0.18428  0.8148  1.0000
  O   O6        1.0  0.20102000000000003  0.29397  0.74573  1.0000
  O   O7        1.0  0.9661700000000001  0.45594000000000007  0.7616499999999998  1.0000
  O   O8        1.0  0.8310200000000002  0.49997  0.82384  1.0000
  O   O9        1.0  0.8400800000000002  0.7994900000000003  0.24605999999999997  1.0000
  O   O10       1.0  0.9006100000000002  0.65778  0.30264  1.0000
  O   O11       1.0  0.032420000000000004  0.025090000000000005  0.241  1.0000
  O   O12       1.0  0.14193  0.025490000000000006  0.3120099999999999  1.0000
  O   O13       1.0  0.82666  0.18428  0.18519999999999995  1.0000
  O   O14       1.0  0.79898  0.29397  0.25427  1.0000
  O   O15       1.0  0.03383  0.45594000000000007  0.23834999999999998  1.0000
  O   O16       1.0  0.16898  0.49997  0.17616  1.0000
  O   O17       1.0  0.65992  0.20051  0.7460599999999997  1.0000
  O   O18       1.0  0.59938  0.34222  0.8026399999999998  1.0000
  O   O19       1.0  0.4675800000000001  0.9749100000000003  0.7409999999999999  1.0000
  O   O20       1.0  0.35807  0.9745100000000001  0.81201  1.0000
  O   O21       1.0  0.6733300000000001  0.81572  0.6851999999999999  1.0000
  O   O22       1.0  0.7010200000000002  0.70603  0.7542699999999999  1.0000
  O   O23       1.0  0.46617000000000003  0.54406  0.7383499999999997  1.0000
  O   O24       1.0  0.33102  0.50003  0.6761599999999998  1.0000
  O   O25       1.0  0.34008  0.20051  0.25394  1.0000
  O   O26       1.0  0.40062000000000003  0.34222  0.19735999999999995  1.0000
  O   O27       1.0  0.53242  0.9749100000000003  0.25899999999999995  1.0000
  O   O28       1.0  0.64192  0.9745100000000001  0.18799  1.0000
  O   O29       1.0  0.32666  0.81572  0.3148  1.0000
  O   O30       1.0  0.29898  0.70603  0.24572999999999995  1.0000
  O   O31       1.0  0.53383  0.54406  0.26165  1.0000
  O   O32       1.0  0.66898  0.50003  0.32384  1.0000
