data_image0
_chemical_formula_structural       Zn12Cr6H72C144N12O86
_chemical_formula_sum              "Zn12 Cr6 H72 C144 N12 O86"
_cell_length_a       19.42956
_cell_length_b       19.42978
_cell_length_c       35.75889
_cell_angle_alpha    90.01001
_cell_angle_beta     90.00403
_cell_angle_gamma    119.95603999999999

_symmetry_space_group_name_H-M    'P 1'
_symmetry_Int_Tables_number       1

loop_
  _symmetry_equiv_pos_as_xyz
  'x,y,z'

loop_
  _atom_site_type_symbol
  _atom_site_label
  _atom_site_symmetry_multiplicity
  _atom_site_fract_x
  _atom_site_fract_y
  _atom_site_fract_z
  _atom_site_occupancy
  Zn  Zn1       1.0  0.48258000000000006  0.96516  0.03512  1.0000
  Zn  Zn2       1.0  0.51744  0.03484  0.53511  1.0000
  Zn  Zn3       1.0  0.48256  0.51741  0.0351  1.0000
  Zn  Zn4       1.0  0.51743  0.48259  0.9648900000000001  1.0000
  Zn  Zn5       1.0  0.03485  0.51743  0.03511  1.0000
  Zn  Zn6       1.0  0.51744  0.48259  0.53513  1.0000
  Zn  Zn7       1.0  0.51742  0.03484  0.9648900000000001  1.0000
  Zn  Zn8       1.0  0.4825800000000002  0.5174200000000002  0.46489  1.0000
  Zn  Zn9       1.0  0.48256  0.96517  0.46489  1.0000
  Zn  Zn10      1.0  0.9651800000000001  0.4826  0.53512  1.0000
  Zn  Zn11      1.0  0.03482000000000008  0.51741  0.46489  1.0000
  Zn  Zn12      1.0  0.96515  0.48257000000000005  0.96488  1.0000
  Cr  Cr1       1.0  0.28054  0.56112  0.25002  1.0000
  Cr  Cr2       1.0  0.56128  0.28063  0.75004  1.0000
  Cr  Cr3       1.0  0.71938  0.28058000000000005  0.75002  1.0000
  Cr  Cr4       1.0  0.71943  0.43891  0.75001  1.0000
  Cr  Cr5       1.0  0.28053000000000006  0.7194  0.25001  1.0000
  Cr  Cr6       1.0  0.43871  0.7193400000000002  0.25001  1.0000
  H   H1        1.0  0.73423  0.6109  0.09072  1.0000
  H   H2        1.0  0.12337  0.38913  0.59072  1.0000
  H   H3        1.0  0.8766500000000002  0.6108300000000002  0.40931  1.0000
  H   H4        1.0  0.26579  0.38907  0.59073  1.0000
  H   H5        1.0  0.45710000000000006  0.14058  0.65519  1.0000
  H   H6        1.0  0.9184599999999999  0.35218  0.59021  1.0000
  H   H7        1.0  0.31659000000000004  0.8592400000000002  0.15524  1.0000
  H   H8        1.0  0.26571  0.87662  0.9092799999999999  1.0000
  H   H9        1.0  0.31982  0.46237  0.15595  1.0000
  H   H10       1.0  0.73439  0.12345000000000002  0.09076  1.0000
  H   H11       1.0  0.5661200000000001  0.6476700000000002  0.09022  1.0000
  H   H12       1.0  0.85919  0.31652  0.65517  1.0000
  H   H13       1.0  0.64678  0.56427  0.9088100000000001  1.0000
  H   H14       1.0  0.9182200000000001  0.56614  0.90979  1.0000
  H   H15       1.0  0.43560000000000004  0.08251  0.9088499999999999  1.0000
  H   H16       1.0  0.38910000000000006  0.2658400000000001  0.09071  1.0000
  H   H17       1.0  0.08265999999999997  0.64695  0.09123  1.0000
  H   H18       1.0  0.8766600000000001  0.61085  0.09071  1.0000
  H   H19       1.0  0.68016  0.5375  0.84412  1.0000
  H   H20       1.0  0.6833400000000001  0.14075000000000001  0.84485  1.0000
  H   H21       1.0  0.68002  0.14225  0.65602  1.0000
  H   H22       1.0  0.68362  0.54281  0.65529  1.0000
  H   H23       1.0  0.8592799999999999  0.5427600000000001  0.84478  1.0000
  H   H24       1.0  0.85751  0.53773  0.65597  1.0000
  H   H25       1.0  0.3530200000000001  0.9174400000000003  0.40879  1.0000
  H   H26       1.0  0.9174300000000001  0.56439  0.59129  1.0000
  H   H27       1.0  0.56426  0.91734  0.09122  1.0000
  H   H28       1.0  0.64801  0.56636  0.5903  1.0000
  H   H29       1.0  0.14261000000000004  0.46241  0.34411  1.0000
  H   H30       1.0  0.2657399999999999  0.8767  0.59075  1.0000
  H   H31       1.0  0.3165100000000001  0.45728000000000013  0.34482  1.0000
  H   H32       1.0  0.5425600000000002  0.6833800000000002  0.15522  1.0000
  H   H33       1.0  0.91732  0.3530200000000001  0.9088000000000002  1.0000
  H   H34       1.0  0.46203000000000005  0.14237000000000002  0.84417  1.0000
  H   H35       1.0  0.14073  0.45723  0.15524  1.0000
  H   H36       1.0  0.2657100000000001  0.3890400000000001  0.9092300000000001  1.0000
  H   H37       1.0  0.12331  0.3891  0.9092499999999999  1.0000
  H   H38       1.0  0.38914  0.12334  0.40928  1.0000
  H   H39       1.0  0.38915  0.12341  0.09072  1.0000
  H   H40       1.0  0.08171999999999996  0.43384  0.0902  1.0000
  H   H41       1.0  0.08252  0.4357  0.40876  1.0000
  H   H42       1.0  0.647  0.08268  0.59122  1.0000
  H   H43       1.0  0.4337700000000001  0.3523100000000001  0.90981  1.0000
  H   H44       1.0  0.61086  0.8767  0.59071  1.0000
  H   H45       1.0  0.43384  0.08166  0.59016  1.0000
  H   H46       1.0  0.12340000000000002  0.73432  0.9092499999999999  1.0000
  H   H47       1.0  0.5427900000000001  0.8593700000000002  0.34482  1.0000
  H   H48       1.0  0.46263  0.32006  0.65599  1.0000
  H   H49       1.0  0.5641700000000002  0.6467900000000002  0.4088  1.0000
  H   H50       1.0  0.38911  0.26578  0.40927  1.0000
  H   H51       1.0  0.61091  0.73428  0.9092600000000001  1.0000
  H   H52       1.0  0.35217  0.43379  0.40981  1.0000
  H   H53       1.0  0.31988  0.85771  0.34404  1.0000
  H   H54       1.0  0.6109000000000001  0.7342600000000002  0.59073  1.0000
  H   H55       1.0  0.35312000000000004  0.43569  0.09121  1.0000
  H   H56       1.0  0.73423  0.6109  0.40928  1.0000
  H   H57       1.0  0.45732000000000006  0.31648  0.84488  1.0000
  H   H58       1.0  0.5661700000000001  0.91843  0.40982  1.0000
  H   H59       1.0  0.08141  0.64785  0.40981  1.0000
  H   H60       1.0  0.14235000000000006  0.6801200000000001  0.15599  1.0000
  H   H61       1.0  0.12344  0.7344  0.59077  1.0000
  H   H62       1.0  0.7343000000000001  0.12337000000000001  0.40925  1.0000
  H   H63       1.0  0.85766  0.3198200000000001  0.84406  1.0000
  H   H64       1.0  0.14075000000000004  0.6835900000000001  0.3449  1.0000
  H   H65       1.0  0.87669  0.26577  0.09073  1.0000
  H   H66       1.0  0.8766  0.26568  0.40927  1.0000
  H   H67       1.0  0.53785  0.85759  0.15595  1.0000
  H   H68       1.0  0.61083  0.87669  0.90932  1.0000
  H   H69       1.0  0.43596000000000007  0.35333  0.59129  1.0000
  H   H70       1.0  0.3521300000000001  0.91835  0.09023  1.0000
  H   H71       1.0  0.64779  0.08154  0.90982  1.0000
  H   H72       1.0  0.53757  0.68005  0.3441  1.0000
  C   C1        1.0  0.0952  0.60862  0.39377  1.0000
  C   C2        1.0  0.40823  0.16766  0.43113  1.0000
  C   C3        1.0  0.48946  0.39339000000000013  0.60681  1.0000
  C   C4        1.0  0.60849  0.09518000000000003  0.89376  1.0000
  C   C5        1.0  0.16295  0.72374  0.9651  1.0000
  C   C6        1.0  0.57514  0.42964000000000013  0.66059  1.0000
  C   C7        1.0  0.49592  0.87113  0.14243  1.0000
  C   C8        1.0  0.37219  0.49986  0.35794  1.0000
  C   C9        1.0  0.50398  0.12882  0.85766  1.0000
  C   C10       1.0  0.9039900000000001  0.5108500000000002  0.60678  1.0000
  C   C11       1.0  0.64534  0.1031  0.47974  1.0000
  C   C12       1.0  0.40821  0.24056  0.43114  1.0000
  C   C13       1.0  0.51072  0.60671  0.39326  1.0000
  C   C14       1.0  0.4577900000000001  0.3546900000000001  0.47976  1.0000
  C   C15       1.0  0.64533  0.1031  0.02028  1.0000
  C   C16       1.0  0.62463  0.12872  0.64244  1.0000
  C   C17       1.0  0.4577800000000001  0.35471000000000014  0.02026  1.0000
  C   C18       1.0  0.8969400000000001  0.54222  0.02026  1.0000
  C   C19       1.0  0.50008  0.87234  0.35793  1.0000
  C   C20       1.0  0.43919000000000014  0.2762700000000001  0.4651199999999999  1.0000
  C   C21       1.0  0.54223  0.89695  0.52025  1.0000
  C   C22       1.0  0.39313000000000003  0.48917  0.10675  1.0000
  C   C23       1.0  0.42511000000000004  0.85451  0.16055  1.0000
  C   C24       1.0  0.89692  0.54222  0.47976  1.0000
  C   C25       1.0  0.54222  0.64531  0.97973  1.0000
  C   C26       1.0  0.87112  0.49588  0.64242  1.0000
  C   C27       1.0  0.10309  0.45779  0.52025  1.0000
  C   C28       1.0  0.75945  0.16765  0.43112  1.0000
  C   C29       1.0  0.5608  0.8371  0.53488  1.0000
  C   C30       1.0  0.48671  0.09526  0.60627  1.0000
  C   C31       1.0  0.62797  0.50023  0.64214  1.0000
  C   C32       1.0  0.4250100000000001  0.5704400000000002  0.33948  1.0000
  C   C33       1.0  0.62472  0.49574000000000007  0.85766  1.0000
  C   C34       1.0  0.48907  0.09592  0.89329  1.0000
  C   C35       1.0  0.10306000000000008  0.45778000000000013  0.97972  1.0000
  C   C36       1.0  0.72374  0.16295  0.03492  1.0000
  C   C37       1.0  0.83233  0.59177  0.06886  1.0000
  C   C38       1.0  0.5607900000000001  0.8370800000000003  0.96514  1.0000
  C   C39       1.0  0.51081  0.90396  0.10678  1.0000
  C   C40       1.0  0.49999  0.62773  0.14207  1.0000
  C   C41       1.0  0.62768  0.12767  0.85799  1.0000
  C   C42       1.0  0.8323699999999999  0.24058000000000002  0.06887  1.0000
  C   C43       1.0  0.5132  0.60848  0.10628  1.0000
  C   C44       1.0  0.59154  0.40455  0.80299  1.0000
  C   C45       1.0  0.9047199999999999  0.51329  0.89369  1.0000
  C   C46       1.0  0.35466999999999993  0.8969  0.52026  1.0000
  C   C47       1.0  0.49981999999999993  0.1276  0.64208  1.0000
  C   C48       1.0  0.83706  0.2762500000000001  0.4651  1.0000
  C   C49       1.0  0.57057  0.4249600000000001  0.83954  1.0000
  C   C50       1.0  0.83231  0.24051  0.43113  1.0000
  C   C51       1.0  0.16294999999999996  0.72375  0.53492  1.0000
  C   C52       1.0  0.8723700000000001  0.50012  0.85788  1.0000
  C   C53       1.0  0.60685  0.096  0.60677  1.0000
  C   C54       1.0  0.48667999999999995  0.39147000000000004  0.89374  1.0000
  C   C55       1.0  0.18682000000000007  0.5915  0.1971  1.0000
  C   C56       1.0  0.40821  0.24060000000000004  0.06886  1.0000
  C   C57       1.0  0.5044000000000001  0.37549  0.64245  1.0000
  C   C58       1.0  0.9047600000000001  0.39145  0.60627  1.0000
  C   C59       1.0  0.5422100000000001  0.64531  0.52025  1.0000
  C   C60       1.0  0.39312999999999987  0.90405  0.39325  1.0000
  C   C61       1.0  0.42943000000000003  0.85453  0.33948  1.0000
  C   C62       1.0  0.16769  0.40823  0.56887  1.0000
  C   C63       1.0  0.81326  0.4085500000000001  0.80289  1.0000
  C   C64       1.0  0.24054000000000011  0.8323200000000002  0.9311400000000001  1.0000
  C   C65       1.0  0.40457  0.59135  0.30293  1.0000
  C   C66       1.0  0.2763100000000001  0.4392000000000001  0.5349  1.0000
  C   C67       1.0  0.75951  0.16772  0.06889  1.0000
  C   C68       1.0  0.59179  0.75946  0.9311300000000001  1.0000
  C   C69       1.0  0.54222  0.89693  0.97976  1.0000
  C   C70       1.0  0.12769000000000003  0.49989000000000006  0.14211  1.0000
  C   C71       1.0  0.16772  0.75953  0.5689  1.0000
  C   C72       1.0  0.12771  0.6279  0.358  1.0000
  C   C73       1.0  0.57044  0.14537000000000003  0.66056  1.0000
  C   C74       1.0  0.59549  0.40869  0.69715  1.0000
  C   C75       1.0  0.85466  0.42951  0.83942  1.0000
  C   C76       1.0  0.14555999999999997  0.57509  0.33953  1.0000
  C   C77       1.0  0.3914099999999999  0.4866500000000001  0.39373  1.0000
  C   C78       1.0  0.40824  0.16771  0.06886  1.0000
  C   C79       1.0  0.56082  0.72374  0.53488  1.0000
  C   C80       1.0  0.87228  0.3722100000000001  0.64205  1.0000
  C   C81       1.0  0.43921  0.16291000000000005  0.46511  1.0000
  C   C82       1.0  0.24058000000000007  0.40821000000000013  0.56887  1.0000
  C   C83       1.0  0.12895000000000006  0.50426  0.35763  1.0000
  C   C84       1.0  0.43921999999999994  0.16294  0.03489  1.0000
  C   C85       1.0  0.2762800000000002  0.8370800000000003  0.53491  1.0000
  C   C86       1.0  0.8969  0.35466  0.47972999999999993  1.0000
  C   C87       1.0  0.49577000000000016  0.6245900000000002  0.35761  1.0000
  C   C88       1.0  0.10311000000000001  0.64535  0.52028  1.0000
  C   C89       1.0  0.09601000000000003  0.60683  0.10678  1.0000
  C   C90       1.0  0.5953900000000001  0.18690000000000007  0.80301  1.0000
  C   C91       1.0  0.37528  0.87123  0.35759  1.0000
  C   C92       1.0  0.3546800000000001  0.89691  0.97973  1.0000
  C   C93       1.0  0.37524  0.50415  0.1424  1.0000
  C   C94       1.0  0.16294000000000008  0.4392200000000001  0.53489  1.0000
  C   C95       1.0  0.60676  0.51078  0.89328  1.0000
  C   C96       1.0  0.5917800000000002  0.8323600000000002  0.56886  1.0000
  C   C97       1.0  0.64529  0.54221  0.47972999999999993  1.0000
  C   C98       1.0  0.59177  0.83235  0.9311600000000001  1.0000
  C   C99       1.0  0.60877  0.51344  0.60635  1.0000
  C   C100      1.0  0.16291000000000003  0.43921  0.96508  1.0000
  C   C101      1.0  0.59139  0.18679  0.6971  1.0000
  C   C102      1.0  0.39142000000000005  0.90472  0.10631  1.0000
  C   C103      1.0  0.72371  0.5608  0.4651199999999999  1.0000
  C   C104      1.0  0.75943  0.59178  0.43115  1.0000
  C   C105      1.0  0.18688000000000005  0.59551  0.30297  1.0000
  C   C106      1.0  0.10312  0.64535  0.97974  1.0000
  C   C107      1.0  0.4045700000000001  0.8131200000000002  0.19709  1.0000
  C   C108      1.0  0.27628  0.83706  0.96511  1.0000
  C   C109      1.0  0.83707  0.2762700000000001  0.03489  1.0000
  C   C110      1.0  0.0953  0.48671  0.1063  1.0000
  C   C111      1.0  0.4084600000000001  0.5954400000000002  0.19705  1.0000
  C   C112      1.0  0.3722400000000002  0.8722900000000002  0.14209  1.0000
  C   C113      1.0  0.24054000000000011  0.4081900000000001  0.9311000000000001  1.0000
  C   C114      1.0  0.83707  0.56079  0.46514  1.0000
  C   C115      1.0  0.87126  0.37531  0.85756  1.0000
  C   C116      1.0  0.5608200000000001  0.7237300000000002  0.9651  1.0000
  C   C117      1.0  0.83708  0.56079  0.03488  1.0000
  C   C118      1.0  0.1454400000000001  0.5705200000000002  0.16056  1.0000
  C   C119      1.0  0.40846  0.81313  0.30294  1.0000
  C   C120      1.0  0.85442  0.4250200000000001  0.66049  1.0000
  C   C121      1.0  0.8968900000000001  0.35466  0.02025  1.0000
  C   C122      1.0  0.7237200000000001  0.56081  0.03487  1.0000
  C   C123      1.0  0.5132600000000002  0.9047800000000003  0.39373  1.0000
  C   C124      1.0  0.09601999999999997  0.48925  0.39325  1.0000
  C   C125      1.0  0.35469  0.45779  0.97973  1.0000
  C   C126      1.0  0.7237300000000001  0.16293000000000005  0.4651  1.0000
  C   C127      1.0  0.5748200000000001  0.14548  0.83955  1.0000
  C   C128      1.0  0.64529  0.54221  0.02025  1.0000
  C   C129      1.0  0.16768  0.75947  0.9311300000000001  1.0000
  C   C130      1.0  0.1288  0.62469  0.14244  1.0000
  C   C131      1.0  0.8323200000000002  0.5917600000000002  0.43116  1.0000
  C   C132      1.0  0.42939  0.57493  0.16052  1.0000
  C   C133      1.0  0.59179  0.75947  0.56886  1.0000
  C   C134      1.0  0.27627  0.43919  0.96508  1.0000
  C   C135      1.0  0.35473  0.4578  0.52028  1.0000
  C   C136      1.0  0.75944  0.59179  0.06886  1.0000
  C   C137      1.0  0.45777  0.10306  0.47974  1.0000
  C   C138      1.0  0.24058  0.83238  0.56889  1.0000
  C   C139      1.0  0.81292  0.40452  0.69699  1.0000
  C   C140      1.0  0.16765000000000008  0.40821000000000013  0.9311000000000001  1.0000
  C   C141      1.0  0.45778  0.10308  0.02025  1.0000
  C   C142      1.0  0.43918000000000007  0.27629  0.03488  1.0000
  C   C143      1.0  0.9040300000000001  0.39317  0.89323  1.0000
  C   C144      1.0  0.49995  0.3721700000000001  0.85798  1.0000
  N   N1        1.0  0.45931  0.92015  0.08904  1.0000
  N   N2        1.0  0.5409  0.46104  0.58907  1.0000
  N   N3        1.0  0.53908  0.45936  0.9109900000000001  1.0000
  N   N4        1.0  0.46079000000000003  0.54061  0.08902  1.0000
  N   N5        1.0  0.92015  0.46084  0.9109799999999999  1.0000
  N   N6        1.0  0.5406  0.07973000000000002  0.9110099999999999  1.0000
  N   N7        1.0  0.07977  0.54072  0.411  1.0000
  N   N8        1.0  0.07986000000000015  0.5391600000000002  0.08903  1.0000
  N   N9        1.0  0.46080000000000004  0.92022  0.411  1.0000
  N   N10       1.0  0.53921  0.07987  0.589  1.0000
  N   N11       1.0  0.92019  0.4593500000000001  0.58902  1.0000
  N   N12       1.0  0.45927  0.53906  0.411  1.0000
  O   O1        1.0  0.11074  0.62863  0.0133  1.0000
  O   O2        1.0  0.62863  0.11074000000000003  0.5133  1.0000
  O   O3        1.0  0.11073000000000012  0.6286400000000002  0.48671999999999993  1.0000
  O   O4        1.0  0.19507  0.65625  0.2845  1.0000
  O   O5        1.0  0.39914000000000005  0.9509600000000001  0.9564  1.0000
  O   O6        1.0  0.8893  0.51787  0.51331  1.0000
  O   O7        1.0  0.21580000000000016  0.6638500000000003  0.20777  1.0000
  O   O8        1.0  0.3437800000000001  0.5388700000000002  0.2845  1.0000
  O   O9        1.0  0.5390400000000002  0.3437800000000001  0.78454  1.0000
  O   O10       1.0  0.66388  0.44793  0.79232  1.0000
  O   O11       1.0  0.48218000000000005  0.3714200000000001  0.51331  1.0000
  O   O12       1.0  0.5423200000000001  0.7711800000000002  0.51359  1.0000
  O   O13       1.0  0.80492  0.46102  0.78442  1.0000
  O   O14       1.0  0.22883000000000003  0.45769  0.98637  1.0000
  O   O15       1.0  0.44795  0.78414  0.20781  1.0000
  O   O16       1.0  0.3713800000000001  0.8892700000000002  0.4867  1.0000
  O   O17       1.0  0.48211  0.11069  0.51329  1.0000
  O   O18       1.0  0.51784  0.62859  0.4867  1.0000
  O   O19       1.0  0.37141  0.48214000000000007  0.48673  1.0000
  O   O20       1.0  0.37138  0.48216000000000003  0.01328  1.0000
  O   O21       1.0  0.7711700000000002  0.54231  0.01358  1.0000
  O   O22       1.0  0.6666900000000001  0.3334100000000001  0.75001  1.0000
  O   O23       1.0  0.78374  0.44782  0.70757  1.0000
  O   O24       1.0  0.54232  0.77116  0.98641  1.0000
  O   O25       1.0  0.48215  0.37141  0.98671  1.0000
  O   O26       1.0  0.65622  0.46124  0.7156  1.0000
  O   O27       1.0  0.5522  0.33636  0.70783  1.0000
  O   O28       1.0  0.88931  0.51789  0.9867  1.0000
  O   O29       1.0  0.95096  0.39913  0.04359  1.0000
  O   O30       1.0  0.39914  0.95098  0.5436  1.0000
  O   O31       1.0  0.6286400000000001  0.11073000000000002  0.98672  1.0000
  O   O32       1.0  0.3361300000000001  0.5521200000000003  0.20774  1.0000
  O   O33       1.0  0.11070000000000002  0.48210000000000003  0.01328  1.0000
  O   O34       1.0  0.33327  0.6666  0.25  1.0000
  O   O35       1.0  0.5518300000000002  0.95103  0.5436  1.0000
  O   O36       1.0  0.51786  0.62861  0.01328  1.0000
  O   O37       1.0  0.66376  0.21582  0.70777  1.0000
  O   O38       1.0  0.88927  0.37138  0.9866899999999998  1.0000
  O   O39       1.0  0.39918  0.44818  0.95639  1.0000
  O   O40       1.0  0.9509500000000001  0.3991200000000001  0.4563999999999999  1.0000
  O   O41       1.0  0.45769  0.22882000000000002  0.48641  1.0000
  O   O42       1.0  0.22886000000000012  0.4577000000000001  0.51361  1.0000
  O   O43       1.0  0.04896999999999995  0.44818  0.95639  1.0000
  O   O44       1.0  0.19516999999999995  0.53901  0.21554  1.0000
  O   O45       1.0  0.04905000000000009  0.6008800000000002  0.9564  1.0000
  O   O46       1.0  0.21593  0.55215  0.2923  1.0000
  O   O47       1.0  0.44819000000000003  0.3991600000000001  0.4564099999999999  1.0000
  O   O48       1.0  0.22884999999999994  0.77115  0.51362  1.0000
  O   O49       1.0  0.51786  0.8893  0.01332  1.0000
  O   O50       1.0  0.7841800000000001  0.33617000000000014  0.79224  1.0000
  O   O51       1.0  0.46091  0.8047  0.28451  1.0000
  O   O52       1.0  0.55182  0.60081  0.95638  1.0000
  O   O53       1.0  0.53893  0.19515  0.71555  1.0000
  O   O54       1.0  0.62859  0.51786  0.51328  1.0000
  O   O55       1.0  0.62858  0.51783  0.9867  1.0000
  O   O56       1.0  0.5178900000000001  0.88932  0.4867  1.0000
  O   O57       1.0  0.4478700000000001  0.6636800000000003  0.29225  1.0000
  O   O58       1.0  0.55203  0.21593000000000007  0.79232  1.0000
  O   O59       1.0  0.55182  0.6008400000000002  0.5436  1.0000
  O   O60       1.0  0.46098  0.65621  0.21549  1.0000
  O   O61       1.0  0.80476  0.3438400000000001  0.71549  1.0000
  O   O62       1.0  0.60082  0.55181  0.0436  1.0000
  O   O63       1.0  0.77115  0.22885000000000005  0.4864  1.0000
  O   O64       1.0  0.04905000000000009  0.6008800000000002  0.54361  1.0000
  O   O65       1.0  0.11071  0.48213  0.4867  1.0000
  O   O66       1.0  0.48213  0.11071  0.9867  1.0000
  O   O67       1.0  0.3436900000000001  0.8047600000000003  0.21549  1.0000
  O   O68       1.0  0.9510100000000001  0.55182  0.0436  1.0000
  O   O69       1.0  0.37139  0.88929  0.01329  1.0000
  O   O70       1.0  0.33612  0.78418  0.29224  1.0000
  O   O71       1.0  0.44819000000000003  0.39921  0.04361  1.0000
  O   O72       1.0  0.7711300000000001  0.22883000000000006  0.01361  1.0000
  O   O73       1.0  0.44818  0.04901  0.04359  1.0000
  O   O74       1.0  0.3992299999999999  0.4482  0.54362  1.0000
  O   O75       1.0  0.04900999999999996  0.44818  0.54359  1.0000
  O   O76       1.0  0.8892800000000001  0.37138  0.51329  1.0000
  O   O77       1.0  0.95098  0.55182  0.45642  1.0000
  O   O78       1.0  0.6562500000000001  0.19525  0.78461  1.0000
  O   O79       1.0  0.22886999999999996  0.77116  0.9864  1.0000
  O   O80       1.0  0.45768  0.22884000000000004  0.01359  1.0000
  O   O81       1.0  0.60087  0.04903000000000001  0.4563999999999999  1.0000
  O   O82       1.0  0.7711500000000002  0.54231  0.48642  1.0000
  O   O83       1.0  0.60086  0.04904  0.04361  1.0000
  O   O84       1.0  0.55182  0.9509900000000001  0.95642  1.0000
  O   O85       1.0  0.44818  0.04898000000000002  0.45639  1.0000
  O   O86       1.0  0.6008  0.5518  0.45639  1.0000
