data_image0
_chemical_formula_structural       Zn8H92C148N28O32
_chemical_formula_sum              "Zn8 H92 C148 N28 O32"
_cell_length_a       7.85841
_cell_length_b       17.77955
_cell_length_c       26.197689999999998
_cell_angle_alpha    95.21401000000002
_cell_angle_beta     90.0
_cell_angle_gamma    90.0

_symmetry_space_group_name_H-M    'P 1'
_symmetry_Int_Tables_number       1

loop_
  _symmetry_equiv_pos_as_xyz
  'x,y,z'

loop_
  _atom_site_type_symbol
  _atom_site_label
  _atom_site_symmetry_multiplicity
  _atom_site_fract_x
  _atom_site_fract_y
  _atom_site_fract_z
  _atom_site_occupancy
  Zn  Zn1       1.0  0.4356800000000001  0.19782  0.02408  1.0000
  Zn  Zn2       1.0  0.98076  0.30209  0.96064  1.0000
  Zn  Zn3       1.0  0.93568  0.80218  0.47592  1.0000
  Zn  Zn4       1.0  0.48076000000000013  0.6979099999999998  0.53936  1.0000
  Zn  Zn5       1.0  0.56432  0.80218  0.97592  1.0000
  Zn  Zn6       1.0  0.01924  0.6979099999999998  0.03935999999999999  1.0000
  Zn  Zn7       1.0  0.06432  0.19782  0.52408  1.0000
  Zn  Zn8       1.0  0.51923  0.30209  0.4606399999999999  1.0000
  H   H1        1.0  0.2932100000000001  0.04481  0.98669  1.0000
  H   H2        1.0  0.65431  0.45143999999999995  0.07248  1.0000
  H   H3        1.0  0.33491  0.77661  0.09374  1.0000
  H   H4        1.0  0.11509000000000003  0.56426  0.11178999999999997  1.0000
  H   H5        1.0  0.42836000000000013  0.57462  0.16371999999999995  1.0000
  H   H6        1.0  0.64366  0.7719699999999998  0.09027  1.0000
  H   H7        1.0  0.9007200000000002  0.83271  0.12906  1.0000
  H   H8        1.0  0.80631  0.72796  0.26844  1.0000
  H   H9        1.0  0.54391  0.6699099999999999  0.23027  1.0000
  H   H10       1.0  0.11348000000000001  0.67685  0.22306  1.0000
  H   H11       1.0  0.24977  0.6177799999999999  0.29519  1.0000
  H   H12       1.0  0.2657  0.83516  0.38296  1.0000
  H   H13       1.0  0.11913  0.8922899999999998  0.3122  1.0000
  H   H14       1.0  0.2772100000000001  0.76926  0.44838999999999996  1.0000
  H   H15       1.0  0.46993  0.59005  0.34606999999999993  1.0000
  H   H16       1.0  0.5791000000000002  0.5727  0.44506  1.0000
  H   H17       1.0  0.83056  0.9458799999999999  0.21988  1.0000
  H   H18       1.0  0.9220200000000002  0.06416  0.1839  1.0000
  H   H19       1.0  0.42341  0.9703399999999999  0.15695  1.0000
  H   H20       1.0  0.331  0.85239  0.19266  1.0000
  H   H21       1.0  0.08095  0.17607  0.19045  1.0000
  H   H22       1.0  0.3862700000000001  0.043389999999999984  0.08345  1.0000
  H   H23       1.0  0.21817000000000006  0.26804  0.11928  1.0000
  H   H24       1.0  0.79321  0.9552  0.51331  1.0000
  H   H25       1.0  0.15431  0.54856  0.42752  1.0000
  H   H26       1.0  0.8349100000000003  0.22338999999999995  0.4062599999999999  1.0000
  H   H27       1.0  0.61509  0.43574  0.38820999999999994  1.0000
  H   H28       1.0  0.92836  0.42538  0.33628  1.0000
  H   H29       1.0  0.14365  0.22804  0.40972999999999987  1.0000
  H   H30       1.0  0.40072  0.1673  0.37094  1.0000
  H   H31       1.0  0.30631000000000014  0.27204999999999985  0.23155999999999996  1.0000
  H   H32       1.0  0.04391  0.3301  0.26973  1.0000
  H   H33       1.0  0.61348  0.32315  0.27694  1.0000
  H   H34       1.0  0.74977  0.3822199999999999  0.20481  1.0000
  H   H35       1.0  0.7657  0.16485  0.11703999999999998  1.0000
  H   H36       1.0  0.61913  0.10771000000000001  0.1878  1.0000
  H   H37       1.0  0.7772200000000002  0.23073999999999997  0.05161  1.0000
  H   H38       1.0  0.96993  0.40995  0.15393  1.0000
  H   H39       1.0  0.07910000000000003  0.42731  0.05494  1.0000
  H   H40       1.0  0.33056  0.05412  0.28012  1.0000
  H   H41       1.0  0.4220200000000001  0.93585  0.31609  1.0000
  H   H42       1.0  0.92341  0.02966  0.34305  1.0000
  H   H43       1.0  0.831  0.14760999999999994  0.30734  1.0000
  H   H44       1.0  0.58095  0.82393  0.30954999999999994  1.0000
  H   H45       1.0  0.8862700000000002  0.95661  0.41655  1.0000
  H   H46       1.0  0.71817  0.7319599999999998  0.3807199999999999  1.0000
  H   H47       1.0  0.70679  0.9552  0.01331  1.0000
  H   H48       1.0  0.34568  0.54856  0.9275199999999998  1.0000
  H   H49       1.0  0.66509  0.22338999999999992  0.9062599999999997  1.0000
  H   H50       1.0  0.88491  0.43573999999999996  0.8882099999999998  1.0000
  H   H51       1.0  0.57164  0.42538  0.8362799999999999  1.0000
  H   H52       1.0  0.35634  0.22803999999999994  0.9097299999999999  1.0000
  H   H53       1.0  0.09928  0.1673  0.87094  1.0000
  H   H54       1.0  0.19369  0.27205  0.73156  1.0000
  H   H55       1.0  0.4560900000000001  0.33009999999999984  0.7697299999999998  1.0000
  H   H56       1.0  0.8865100000000002  0.32315  0.77694  1.0000
  H   H57       1.0  0.7502200000000002  0.3822199999999999  0.7048099999999999  1.0000
  H   H58       1.0  0.7343  0.16485  0.61704  1.0000
  H   H59       1.0  0.88087  0.10770999999999997  0.6877999999999997  1.0000
  H   H60       1.0  0.7227800000000002  0.23073999999999997  0.5516099999999999  1.0000
  H   H61       1.0  0.53007  0.40995  0.65393  1.0000
  H   H62       1.0  0.4209000000000001  0.42731  0.55494  1.0000
  H   H63       1.0  0.16944  0.05412  0.78012  1.0000
  H   H64       1.0  0.07797  0.93585  0.8160899999999999  1.0000
  H   H65       1.0  0.57659  0.02965999999999996  0.8430499999999999  1.0000
  H   H66       1.0  0.669  0.14760999999999994  0.80734  1.0000
  H   H67       1.0  0.91904  0.82393  0.8095499999999998  1.0000
  H   H68       1.0  0.6137200000000003  0.95661  0.91655  1.0000
  H   H69       1.0  0.78182  0.7319599999999998  0.88072  1.0000
  H   H70       1.0  0.20678  0.04481  0.48669  1.0000
  H   H71       1.0  0.84569  0.45145  0.5724799999999999  1.0000
  H   H72       1.0  0.16509  0.77661  0.59374  1.0000
  H   H73       1.0  0.38490000000000013  0.56426  0.61179  1.0000
  H   H74       1.0  0.07164  0.57462  0.66372  1.0000
  H   H75       1.0  0.8563400000000002  0.7719699999999998  0.59027  1.0000
  H   H76       1.0  0.59928  0.83271  0.62906  1.0000
  H   H77       1.0  0.69369  0.7279600000000002  0.76844  1.0000
  H   H78       1.0  0.95609  0.6699099999999999  0.7302699999999998  1.0000
  H   H79       1.0  0.38651  0.67685  0.72306  1.0000
  H   H80       1.0  0.25022  0.6177799999999999  0.7951899999999997  1.0000
  H   H81       1.0  0.2343  0.8351599999999999  0.88296  1.0000
  H   H82       1.0  0.38087  0.8922899999999997  0.8121999999999998  1.0000
  H   H83       1.0  0.22278  0.76926  0.9483899999999997  1.0000
  H   H84       1.0  0.030060000000000007  0.59005  0.84607  1.0000
  H   H85       1.0  0.9209000000000003  0.5727  0.9450599999999998  1.0000
  H   H86       1.0  0.66944  0.9458799999999999  0.71988  1.0000
  H   H87       1.0  0.5779800000000003  0.06415999999999998  0.6839  1.0000
  H   H88       1.0  0.07658  0.9703399999999999  0.65695  1.0000
  H   H89       1.0  0.169  0.8524  0.69266  1.0000
  H   H90       1.0  0.41904  0.17607  0.6904499999999998  1.0000
  H   H91       1.0  0.11372000000000003  0.0434  0.58345  1.0000
  H   H92       1.0  0.28182  0.26804  0.61928  1.0000
  C   C1        1.0  0.028430000000000007  0.07389  0.98748  1.0000
  C   C2        1.0  0.16481  0.024619999999999975  0.9931899999999998  1.0000
  C   C3        1.0  0.8594800000000002  0.04908000000000002  0.99397  1.0000
  C   C4        1.0  0.06797000000000003  0.15217  0.97508  1.0000
  C   C5        1.0  0.6989  0.09403999999999998  0.98731  1.0000
  C   C6        1.0  0.45662  0.34472  0.025989999999999992  1.0000
  C   C7        1.0  0.4743700000000001  0.4242999999999999  0.01119  1.0000
  C   C8        1.0  0.24817  0.4097499999999999  0.94063  1.0000
  C   C9        1.0  0.38716  0.45315  0.9699699999999999  1.0000
  C   C10       1.0  0.58464  0.47219  0.040709999999999996  1.0000
  C   C11       1.0  0.31618  0.72042  0.10559999999999997  1.0000
  C   C12       1.0  0.20922  0.6088699999999999  0.11596999999999999  1.0000
  C   C13       1.0  0.35872  0.6145  0.143  1.0000
  C   C14       1.0  0.57599  0.71843  0.15833  1.0000
  C   C15       1.0  0.6753700000000002  0.76474  0.12992  1.0000
  C   C16       1.0  0.82143  0.79815  0.15159  1.0000
  C   C17       1.0  0.8702300000000002  0.7857  0.20178  1.0000
  C   C18       1.0  0.77028  0.7380099999999998  0.22964  1.0000
  C   C19       1.0  0.62363  0.7047999999999998  0.20804  1.0000
  C   C20       1.0  0.10737000000000002  0.78835  0.26304  1.0000
  C   C21       1.0  0.14712  0.71106  0.25817999999999997  1.0000
  C   C22       1.0  0.22542  0.67824  0.29833  1.0000
  C   C23       1.0  0.26939000000000013  0.72278  0.34323  1.0000
  C   C24       1.0  0.23425  0.8004099999999998  0.3479  1.0000
  C   C25       1.0  0.15236  0.8326199999999999  0.30811  1.0000
  C   C26       1.0  0.3429600000000001  0.71779  0.43457  1.0000
  C   C27       1.0  0.4459300000000001  0.62359  0.38176  1.0000
  C   C28       1.0  0.49751  0.6151  0.43083999999999995  1.0000
  C   C29       1.0  0.07367000000000003  0.89087  0.20733  1.0000
  C   C30       1.0  0.9598900000000002  0.95154  0.206  1.0000
  C   C31       1.0  0.011330000000000003  0.017859999999999997  0.18615  1.0000
  C   C32       1.0  0.17782  0.02438  0.16799  1.0000
  C   C33       1.0  0.29436  0.9654499999999999  0.17118  1.0000
  C   C34       1.0  0.24218  0.89904  0.19093  1.0000
  C   C35       1.0  0.16236  0.16334999999999994  0.15758999999999998  1.0000
  C   C36       1.0  0.32776  0.09343  0.10285999999999997  1.0000
  C   C37       1.0  0.23013000000000006  0.20799999999999993  0.12278  1.0000
  C   C38       1.0  0.5284300000000002  0.92612  0.51252  1.0000
  C   C39       1.0  0.6648100000000002  0.97539  0.50681  1.0000
  C   C40       1.0  0.35948  0.95093  0.50603  1.0000
  C   C41       1.0  0.56798  0.84784  0.52491  1.0000
  C   C42       1.0  0.19890000000000005  0.9059699999999999  0.51269  1.0000
  C   C43       1.0  0.95662  0.65529  0.47401  1.0000
  C   C44       1.0  0.97437  0.5757  0.48880999999999997  1.0000
  C   C45       1.0  0.7481700000000002  0.5902599999999998  0.55937  1.0000
  C   C46       1.0  0.88716  0.5468499999999997  0.53003  1.0000
  C   C47       1.0  0.08464  0.52782  0.45929  1.0000
  C   C48       1.0  0.81618  0.27958  0.3944  1.0000
  C   C49       1.0  0.70922  0.39114  0.38402999999999987  1.0000
  C   C50       1.0  0.85872  0.3855  0.357  1.0000
  C   C51       1.0  0.07599000000000003  0.28157  0.34167  1.0000
  C   C52       1.0  0.17537000000000005  0.23525999999999997  0.37008  1.0000
  C   C53       1.0  0.32142  0.20184999999999997  0.34840999999999994  1.0000
  C   C54       1.0  0.3702300000000001  0.2143  0.29822  1.0000
  C   C55       1.0  0.27028  0.26199  0.27036  1.0000
  C   C56       1.0  0.12363000000000003  0.2952099999999999  0.29195999999999994  1.0000
  C   C57       1.0  0.60737  0.21165  0.23695999999999998  1.0000
  C   C58       1.0  0.6471200000000003  0.28895  0.24181999999999998  1.0000
  C   C59       1.0  0.7254200000000002  0.32175999999999993  0.20167  1.0000
  C   C60       1.0  0.7693900000000002  0.27722  0.15677  1.0000
  C   C61       1.0  0.7342500000000002  0.19959  0.1521  1.0000
  C   C62       1.0  0.65237  0.16738  0.19189  1.0000
  C   C63       1.0  0.84296  0.28221  0.06544  1.0000
  C   C64       1.0  0.94594  0.37641  0.11824  1.0000
  C   C65       1.0  0.9975100000000001  0.3849  0.06916  1.0000
  C   C66       1.0  0.57367  0.10912999999999999  0.29266999999999993  1.0000
  C   C67       1.0  0.45989000000000013  0.04846999999999999  0.29399999999999993  1.0000
  C   C68       1.0  0.51133  0.98214  0.31385  1.0000
  C   C69       1.0  0.6778100000000002  0.97562  0.33201  1.0000
  C   C70       1.0  0.79436  0.03454999999999999  0.32881999999999995  1.0000
  C   C71       1.0  0.7421800000000002  0.10095999999999998  0.30906999999999996  1.0000
  C   C72       1.0  0.6623600000000002  0.83665  0.34241  1.0000
  C   C73       1.0  0.82775  0.90658  0.39713999999999994  1.0000
  C   C74       1.0  0.73013  0.79201  0.37722  1.0000
  C   C75       1.0  0.9715700000000003  0.9261099999999999  0.012519999999999996  1.0000
  C   C76       1.0  0.8351900000000002  0.97539  0.006809999999999999  1.0000
  C   C77       1.0  0.14051000000000005  0.95093  0.00603  1.0000
  C   C78       1.0  0.93202  0.84784  0.024909999999999995  1.0000
  C   C79       1.0  0.3011  0.9059699999999999  0.012689999999999998  1.0000
  C   C80       1.0  0.54338  0.65529  0.9740099999999999  1.0000
  C   C81       1.0  0.52563  0.5757  0.9888099999999997  1.0000
  C   C82       1.0  0.7518300000000002  0.5902599999999998  0.05937  1.0000
  C   C83       1.0  0.61284  0.5468499999999997  0.03003  1.0000
  C   C84       1.0  0.4153600000000001  0.52782  0.9592899999999999  1.0000
  C   C85       1.0  0.68382  0.27959  0.8944  1.0000
  C   C86       1.0  0.79078  0.39113999999999993  0.88403  1.0000
  C   C87       1.0  0.64128  0.38550999999999996  0.8569999999999999  1.0000
  C   C88       1.0  0.4240100000000001  0.28157  0.84167  1.0000
  C   C89       1.0  0.32462  0.23525999999999997  0.87008  1.0000
  C   C90       1.0  0.17857  0.20184999999999992  0.8484099999999998  1.0000
  C   C91       1.0  0.12977000000000005  0.2143  0.79822  1.0000
  C   C92       1.0  0.22972000000000006  0.262  0.77036  1.0000
  C   C93       1.0  0.37636  0.29521  0.79196  1.0000
  C   C94       1.0  0.89263  0.21165  0.7369599999999998  1.0000
  C   C95       1.0  0.8528800000000002  0.28895  0.74182  1.0000
  C   C96       1.0  0.7745800000000003  0.32175999999999993  0.7016699999999999  1.0000
  C   C97       1.0  0.7306100000000002  0.27722  0.65677  1.0000
  C   C98       1.0  0.7657500000000003  0.19959  0.6521  1.0000
  C   C99       1.0  0.84763  0.16738  0.69189  1.0000
  C   C100      1.0  0.65704  0.28222  0.5654299999999999  1.0000
  C   C101      1.0  0.55406  0.37641  0.61824  1.0000
  C   C102      1.0  0.50249  0.38491  0.56916  1.0000
  C   C103      1.0  0.92633  0.10913  0.79267  1.0000
  C   C104      1.0  0.0401  0.04846999999999997  0.7939999999999998  1.0000
  C   C105      1.0  0.9886700000000003  0.98214  0.81385  1.0000
  C   C106      1.0  0.82218  0.97562  0.83201  1.0000
  C   C107      1.0  0.7056400000000003  0.03454999999999996  0.8288199999999998  1.0000
  C   C108      1.0  0.7578200000000003  0.10096999999999996  0.80907  1.0000
  C   C109      1.0  0.8376300000000002  0.83665  0.8424099999999999  1.0000
  C   C110      1.0  0.67224  0.90658  0.8971399999999998  1.0000
  C   C111      1.0  0.76986  0.79201  0.87722  1.0000
  C   C112      1.0  0.4715700000000001  0.07389  0.48748  1.0000
  C   C113      1.0  0.33518  0.024619999999999996  0.49318999999999996  1.0000
  C   C114      1.0  0.64051  0.04907999999999999  0.49396999999999996  1.0000
  C   C115      1.0  0.4320200000000001  0.15217  0.47508  1.0000
  C   C116      1.0  0.8011000000000003  0.09403999999999997  0.48731  1.0000
  C   C117      1.0  0.04338  0.34472  0.52599  1.0000
  C   C118      1.0  0.025630000000000007  0.42431  0.5111899999999999  1.0000
  C   C119      1.0  0.25182  0.40974  0.44063  1.0000
  C   C120      1.0  0.11284000000000002  0.45315  0.46997  1.0000
  C   C121      1.0  0.91536  0.47219  0.54071  1.0000
  C   C122      1.0  0.18382000000000007  0.7204199999999998  0.6056  1.0000
  C   C123      1.0  0.29078  0.6088699999999999  0.61597  1.0000
  C   C124      1.0  0.14128  0.6145  0.643  1.0000
  C   C125      1.0  0.92401  0.71843  0.65833  1.0000
  C   C126      1.0  0.8246300000000002  0.76475  0.62992  1.0000
  C   C127      1.0  0.67857  0.79815  0.6515899999999998  1.0000
  C   C128      1.0  0.6297700000000003  0.7857  0.70178  1.0000
  C   C129      1.0  0.72972  0.7380099999999998  0.72964  1.0000
  C   C130      1.0  0.87636  0.7047999999999998  0.70804  1.0000
  C   C131      1.0  0.3926300000000001  0.78835  0.76304  1.0000
  C   C132      1.0  0.35287000000000013  0.71106  0.75818  1.0000
  C   C133      1.0  0.2745700000000001  0.67824  0.79833  1.0000
  C   C134      1.0  0.2306  0.72279  0.84323  1.0000
  C   C135      1.0  0.26575  0.8004199999999998  0.8478999999999999  1.0000
  C   C136      1.0  0.3476300000000001  0.8326299999999998  0.80811  1.0000
  C   C137      1.0  0.15704000000000004  0.71779  0.93456  1.0000
  C   C138      1.0  0.05406000000000001  0.62359  0.8817599999999999  1.0000
  C   C139      1.0  0.00249  0.6151  0.93084  1.0000
  C   C140      1.0  0.4263300000000001  0.89087  0.7073299999999999  1.0000
  C   C141      1.0  0.5401000000000002  0.95154  0.7059999999999997  1.0000
  C   C142      1.0  0.48867  0.01786  0.68615  1.0000
  C   C143      1.0  0.32218  0.024379999999999995  0.66799  1.0000
  C   C144      1.0  0.20563000000000006  0.9654499999999999  0.6711799999999998  1.0000
  C   C145      1.0  0.25782  0.8990400000000001  0.69093  1.0000
  C   C146      1.0  0.3376300000000001  0.16334999999999994  0.65759  1.0000
  C   C147      1.0  0.17224000000000006  0.09343  0.60286  1.0000
  C   C148      1.0  0.26986  0.20799999999999993  0.62278  1.0000
  N   N1        1.0  0.01746  0.82099  0.22372999999999996  1.0000
  N   N2        1.0  0.18471000000000007  0.6752299999999999  0.09293  1.0000
  N   N3        1.0  0.42473  0.68571  0.1364  1.0000
  N   N4        1.0  0.34817  0.68935  0.38441  1.0000
  N   N5        1.0  0.43125  0.67374  0.46321  1.0000
  N   N6        1.0  0.22502000000000005  0.09082  0.1448  1.0000
  N   N7        1.0  0.33232  0.16377  0.08902999999999997  1.0000
  N   N8        1.0  0.51747  0.17901999999999996  0.27627  1.0000
  N   N9        1.0  0.6847100000000003  0.32478  0.4070699999999999  1.0000
  N   N10       1.0  0.92474  0.31429  0.3636  1.0000
  N   N11       1.0  0.84818  0.31065  0.11558999999999997  1.0000
  N   N12       1.0  0.93125  0.32626  0.03679  1.0000
  N   N13       1.0  0.7250200000000002  0.90918  0.3552  1.0000
  N   N14       1.0  0.83232  0.83623  0.4109699999999999  1.0000
  N   N15       1.0  0.98253  0.17901999999999996  0.7762699999999999  1.0000
  N   N16       1.0  0.8152900000000002  0.32478  0.90707  1.0000
  N   N17       1.0  0.57526  0.31429  0.8635999999999998  1.0000
  N   N18       1.0  0.6518200000000002  0.3106499999999999  0.6155899999999997  1.0000
  N   N19       1.0  0.5687500000000002  0.32627  0.53679  1.0000
  N   N20       1.0  0.7749700000000003  0.90918  0.8551999999999997  1.0000
  N   N21       1.0  0.66768  0.83623  0.91097  1.0000
  N   N22       1.0  0.48253  0.82099  0.72373  1.0000
  N   N23       1.0  0.3152900000000001  0.6752299999999999  0.59293  1.0000
  N   N24       1.0  0.07526  0.68571  0.6363999999999997  1.0000
  N   N25       1.0  0.15182  0.68935  0.8844099999999998  1.0000
  N   N26       1.0  0.06875  0.6737400000000001  0.96321  1.0000
  N   N27       1.0  0.2749800000000001  0.09082999999999997  0.6447999999999999  1.0000
  N   N28       1.0  0.16768  0.16378  0.58903  1.0000
  O   O1        1.0  0.2181  0.17825  0.97953  1.0000
  O   O2        1.0  0.9427  0.19012999999999994  0.9592899999999999  1.0000
  O   O3        1.0  0.6158500000000002  0.0833  0.94676  1.0000
  O   O4        1.0  0.6500700000000003  0.13613  0.02789  1.0000
  O   O5        1.0  0.5045  0.2901  0.9925299999999998  1.0000
  O   O6        1.0  0.40774  0.3334899999999999  0.07027  1.0000
  O   O7        1.0  0.19207000000000005  0.35493  0.96575  1.0000
  O   O8        1.0  0.19293000000000005  0.42836  0.8990599999999997  1.0000
  O   O9        1.0  0.7181  0.82176  0.52047  1.0000
  O   O10       1.0  0.4427  0.8098799999999998  0.54071  1.0000
  O   O11       1.0  0.11584000000000003  0.91671  0.55324  1.0000
  O   O12       1.0  0.15006  0.8638799999999998  0.47210999999999986  1.0000
  O   O13       1.0  0.0045  0.7099  0.50747  1.0000
  O   O14       1.0  0.90775  0.6665099999999999  0.42972999999999995  1.0000
  O   O15       1.0  0.69207  0.64508  0.53425  1.0000
  O   O16       1.0  0.6929500000000002  0.57165  0.60094  1.0000
  O   O17       1.0  0.7819000000000003  0.82175  0.02047  1.0000
  O   O18       1.0  0.0573  0.8098699999999998  0.040709999999999996  1.0000
  O   O19       1.0  0.3841500000000001  0.91671  0.05324  1.0000
  O   O20       1.0  0.34993  0.86388  0.9721099999999999  1.0000
  O   O21       1.0  0.4954900000000001  0.7099  0.00747  1.0000
  O   O22       1.0  0.59225  0.6665099999999999  0.92973  1.0000
  O   O23       1.0  0.80792  0.64508  0.03425  1.0000
  O   O24       1.0  0.8070700000000002  0.57165  0.10093999999999997  1.0000
  O   O25       1.0  0.28189  0.17825  0.47953  1.0000
  O   O26       1.0  0.5573  0.19013  0.45929  1.0000
  O   O27       1.0  0.8841500000000002  0.0833  0.44676  1.0000
  O   O28       1.0  0.8499300000000002  0.13613  0.52789  1.0000
  O   O29       1.0  0.9955  0.2901  0.49253  1.0000
  O   O30       1.0  0.09225  0.3334899999999999  0.57027  1.0000
  O   O31       1.0  0.30792000000000014  0.35493  0.46575  1.0000
  O   O32       1.0  0.30705  0.42836  0.39906  1.0000
