data_image0
_chemical_formula_structural       Cd4H96C144N24Cl8
_chemical_formula_sum              "Cd4 H96 C144 N24 Cl8"
_cell_length_a       12.4007
_cell_length_b       19.2927
_cell_length_c       20.88667
_cell_angle_alpha    104.73698
_cell_angle_beta     89.99463
_cell_angle_gamma    89.98733

_symmetry_space_group_name_H-M    'P 1'
_symmetry_Int_Tables_number       1

loop_
  _symmetry_equiv_pos_as_xyz
  'x,y,z'

loop_
  _atom_site_type_symbol
  _atom_site_label
  _atom_site_symmetry_multiplicity
  _atom_site_fract_x
  _atom_site_fract_y
  _atom_site_fract_z
  _atom_site_occupancy
  Cd  Cd1       1.0  0.50179  0.91909  0.29585  1.0000
  Cd  Cd2       1.0  0.9983699999999999  0.41906  0.29586000000000007  1.0000
  Cd  Cd3       1.0  0.0016199999999999995  0.5809400000000001  0.7041400000000001  1.0000
  Cd  Cd4       1.0  0.4982  0.08090999999999998  0.70415  1.0000
  H   H1        1.0  0.9407799999999998  0.74521  0.66098  1.0000
  H   H2        1.0  0.85019  0.68557  0.55764  1.0000
  H   H3        1.0  0.8950999999999999  0.87538  0.48583000000000004  1.0000
  H   H4        1.0  0.9819799999999997  0.93646  0.59194  1.0000
  H   H5        1.0  0.09533  0.9157200000000001  0.97054  1.0000
  H   H6        1.0  0.13317  0.97613  0.08813  1.0000
  H   H7        1.0  0.23406999999999994  0.16578  0.03165  1.0000
  H   H8        1.0  0.19934  0.10472999999999996  0.91293  1.0000
  H   H9        1.0  0.6838899999999998  0.79798  0.26678  1.0000
  H   H10       1.0  0.8030499999999998  0.7245  0.32008  1.0000
  H   H11       1.0  0.6807799999999999  0.8465100000000001  0.50897  1.0000
  H   H12       1.0  0.55822  0.90942  0.44664  1.0000
  H   H13       1.0  0.77297  0.51348  0.31503000000000003  1.0000
  H   H14       1.0  0.70068  0.6347  0.37137  1.0000
  H   H15       1.0  0.01378  0.68454  0.46245  1.0000
  H   H16       1.0  0.0687  0.55792  0.40700000000000003  1.0000
  H   H17       1.0  0.9546099999999997  0.28704  0.16567  1.0000
  H   H18       1.0  0.02472  0.16547  0.10535  1.0000
  H   H19       1.0  0.29996999999999996  0.20625  0.23654000000000003  1.0000
  H   H20       1.0  0.21585999999999994  0.32452000000000003  0.29195  1.0000
  H   H21       1.0  0.49151  0.9591400000000001  0.15731  1.0000
  H   H22       1.0  0.3847699999999999  0.027510000000000007  0.09065000000000001  1.0000
  H   H23       1.0  0.17374  0.09588000000000002  0.25953000000000004  1.0000
  H   H24       1.0  0.28505  0.0207  0.31671  1.0000
  H   H25       1.0  0.5582299999999999  0.24525000000000005  0.6607700000000001  1.0000
  H   H26       1.0  0.64925  0.18558000000000002  0.5575600000000001  1.0000
  H   H27       1.0  0.6051699999999999  0.37547  0.48575000000000007  1.0000
  H   H28       1.0  0.51783  0.43657  0.5917200000000001  1.0000
  H   H29       1.0  0.40453  0.41539  0.97055  1.0000
  H   H30       1.0  0.3668799999999999  0.47581  0.08815  1.0000
  H   H31       1.0  0.26703  0.6658  0.03184  1.0000
  H   H32       1.0  0.30158999999999997  0.6047300000000001  0.9131100000000002  1.0000
  H   H33       1.0  0.81569  0.29809  0.2666700000000001  1.0000
  H   H34       1.0  0.6964899999999999  0.22473  0.32009  1.0000
  H   H35       1.0  0.8192899999999997  0.34653  0.50887  1.0000
  H   H36       1.0  0.94184  0.40934  0.44642  1.0000
  H   H37       1.0  0.7268399999999999  0.01345000000000002  0.31499000000000005  1.0000
  H   H38       1.0  0.79929  0.13463  0.3713  1.0000
  H   H39       1.0  0.4860699999999999  0.18487  0.46219000000000005  1.0000
  H   H40       1.0  0.43098999999999993  0.058290000000000015  0.4067700000000001  1.0000
  H   H41       1.0  0.5462  0.78664  0.16580000000000003  1.0000
  H   H42       1.0  0.47604  0.66507  0.10558000000000001  1.0000
  H   H43       1.0  0.20073  0.70611  0.23676  1.0000
  H   H44       1.0  0.28493  0.82434  0.29212  1.0000
  H   H45       1.0  0.00916  0.45893  0.15739  1.0000
  H   H46       1.0  0.11581  0.52736  0.09077  1.0000
  H   H47       1.0  0.32673  0.59571  0.25966  1.0000
  H   H48       1.0  0.2154  0.52058  0.31685  1.0000
  H   H49       1.0  0.44175  0.75475  0.33923000000000003  1.0000
  H   H50       1.0  0.35073999999999994  0.81442  0.44244000000000006  1.0000
  H   H51       1.0  0.39482  0.62453  0.51425  1.0000
  H   H52       1.0  0.48215999999999987  0.56343  0.40828  1.0000
  H   H53       1.0  0.59545  0.58461  0.029450000000000007  1.0000
  H   H54       1.0  0.63311  0.52419  0.91185  1.0000
  H   H55       1.0  0.73296  0.33420000000000005  0.9681600000000001  1.0000
  H   H56       1.0  0.6983999999999999  0.39527  0.08689  1.0000
  H   H57       1.0  0.18428999999999998  0.70191  0.73333  1.0000
  H   H58       1.0  0.3035  0.77527  0.67991  1.0000
  H   H59       1.0  0.1807  0.6534600000000002  0.49113000000000007  1.0000
  H   H60       1.0  0.058149999999999986  0.5906600000000001  0.55357  1.0000
  H   H61       1.0  0.27315  0.98655  0.68501  1.0000
  H   H62       1.0  0.2007  0.86537  0.6287  1.0000
  H   H63       1.0  0.51391  0.81513  0.53781  1.0000
  H   H64       1.0  0.569  0.9417  0.59323  1.0000
  H   H65       1.0  0.45379  0.21336000000000002  0.8342000000000002  1.0000
  H   H66       1.0  0.52395  0.33493  0.89442  1.0000
  H   H67       1.0  0.79925  0.29388  0.76324  1.0000
  H   H68       1.0  0.7150599999999999  0.17566  0.70788  1.0000
  H   H69       1.0  0.9908299999999999  0.54107  0.84261  1.0000
  H   H70       1.0  0.8841799999999997  0.47263999999999995  0.9092300000000001  1.0000
  H   H71       1.0  0.67325  0.4042900000000001  0.7403400000000002  1.0000
  H   H72       1.0  0.78459  0.47942  0.6831500000000001  1.0000
  H   H73       1.0  0.05921  0.25479  0.33902  1.0000
  H   H74       1.0  0.1498  0.31442  0.44236  1.0000
  H   H75       1.0  0.10489  0.12462  0.51417  1.0000
  H   H76       1.0  0.018009999999999998  0.06354000000000001  0.4080500000000001  1.0000
  H   H77       1.0  0.90466  0.08428  0.02946  1.0000
  H   H78       1.0  0.8668199999999999  0.02387000000000001  0.9118700000000001  1.0000
  H   H79       1.0  0.7659099999999998  0.8342200000000001  0.96835  1.0000
  H   H80       1.0  0.80065  0.89527  0.08706  1.0000
  H   H81       1.0  0.31609  0.20202  0.73322  1.0000
  H   H82       1.0  0.19693999999999998  0.2755  0.67992  1.0000
  H   H83       1.0  0.31921  0.15349000000000002  0.49102000000000007  1.0000
  H   H84       1.0  0.44177  0.09058  0.55336  1.0000
  H   H85       1.0  0.22701999999999994  0.48652000000000006  0.6849700000000001  1.0000
  H   H86       1.0  0.29929999999999995  0.36530000000000007  0.6286300000000001  1.0000
  H   H87       1.0  0.9862099999999998  0.31546  0.53755  1.0000
  H   H88       1.0  0.9312899999999998  0.44208  0.593  1.0000
  H   H89       1.0  0.04537999999999998  0.7129599999999999  0.83433  1.0000
  H   H90       1.0  0.9752699999999997  0.8345300000000001  0.8946500000000002  1.0000
  H   H91       1.0  0.7000199999999999  0.79375  0.76346  1.0000
  H   H92       1.0  0.7841299999999999  0.67548  0.70805  1.0000
  H   H93       1.0  0.50848  0.04085999999999999  0.8426900000000002  1.0000
  H   H94       1.0  0.61522  0.97248  0.90935  1.0000
  H   H95       1.0  0.82625  0.9041199999999999  0.74047  1.0000
  H   H96       1.0  0.7149399999999999  0.9793  0.68329  1.0000
  C   C1        1.0  0.01636  0.87937  0.69515  1.0000
  C   C2        1.0  0.05391  0.9090899999999998  0.7497700000000002  1.0000
  C   C3        1.0  0.08934999999999998  0.94193  0.81089  1.0000
  C   C4        1.0  0.11775999999999998  0.97226  0.8675  1.0000
  C   C5        1.0  0.9678399999999999  0.8452599999999999  0.63428  1.0000
  C   C6        1.0  0.92998  0.77403  0.6230700000000001  1.0000
  C   C7        1.0  0.87863  0.7404600000000001  0.56436  1.0000
  C   C8        1.0  0.8664599999999998  0.77672  0.51439  1.0000
  C   C9        1.0  0.9041699999999998  0.84743  0.5246300000000002  1.0000
  C   C10       1.0  0.9533099999999998  0.8816599999999999  0.5840200000000001  1.0000
  C   C11       1.0  0.14371  0.006280000000000016  0.9337  1.0000
  C   C12       1.0  0.12710999999999997  0.9700099999999999  0.98384  1.0000
  C   C13       1.0  0.14803  0.0037399999999999994  0.04962  1.0000
  C   C14       1.0  0.18637  0.07451  0.06704  1.0000
  C   C15       1.0  0.20352999999999993  0.11113  0.01776  1.0000
  C   C16       1.0  0.18301  0.07750999999999997  0.95166  1.0000
  C   C17       1.0  0.6829299999999999  0.80465  0.32018  1.0000
  C   C18       1.0  0.7502999999999997  0.76484  0.35016  1.0000
  C   C19       1.0  0.75039  0.77857  0.41955000000000003  1.0000
  C   C20       1.0  0.68169  0.8327400000000001  0.45521000000000006  1.0000
  C   C21       1.0  0.61527  0.86882  0.42091  1.0000
  C   C22       1.0  0.82246  0.55275  0.34945  1.0000
  C   C23       1.0  0.7832399999999998  0.62063  0.38023000000000007  1.0000
  C   C24       1.0  0.8525299999999999  0.67017  0.42145  1.0000
  C   C25       1.0  0.9576499999999998  0.64787  0.43106  1.0000
  C   C26       1.0  0.98867  0.57836  0.39997  1.0000
  C   C27       1.0  0.030879999999999994  0.26624  0.17915  1.0000
  C   C28       1.0  0.07041  0.1995  0.14565000000000003  1.0000
  C   C29       1.0  0.16837  0.17546  0.16616  1.0000
  C   C30       1.0  0.2232  0.22166  0.21918000000000007  1.0000
  C   C31       1.0  0.17750999999999995  0.28746  0.24979000000000004  1.0000
  C   C32       1.0  0.41920999999999997  0.98941  0.17700000000000002  1.0000
  C   C33       1.0  0.36098999999999987  0.028030000000000006  0.14086  1.0000
  C   C34       1.0  0.27169999999999994  0.06831  0.17053  1.0000
  C   C35       1.0  0.24387999999999999  0.0669  0.23533  1.0000
  C   C36       1.0  0.30555999999999994  0.02567000000000001  0.26726  1.0000
  C   C37       1.0  0.4829999999999999  0.37947  0.69491  1.0000
  C   C38       1.0  0.44549  0.40911000000000003  0.7496100000000002  1.0000
  C   C39       1.0  0.41028999999999993  0.44185  0.8108000000000001  1.0000
  C   C40       1.0  0.38222  0.47207  0.86751  1.0000
  C   C41       1.0  0.53158  0.34536  0.63407  1.0000
  C   C42       1.0  0.56932  0.27409  0.62288  1.0000
  C   C43       1.0  0.6208999999999999  0.24049  0.56425  1.0000
  C   C44       1.0  0.6334599999999999  0.27676  0.51432  1.0000
  C   C45       1.0  0.59582  0.34751  0.52451  1.0000
  C   C46       1.0  0.5464199999999999  0.38175  0.58383  1.0000
  C   C47       1.0  0.3565699999999999  0.50609  0.9337700000000002  1.0000
  C   C48       1.0  0.3729799999999999  0.46975  0.9838700000000001  1.0000
  C   C49       1.0  0.35220999999999997  0.50349  0.04967000000000001  1.0000
  C   C50       1.0  0.3142  0.57435  0.06716000000000001  1.0000
  C   C51       1.0  0.29729  0.61107  0.01792  1.0000
  C   C52       1.0  0.3176899999999999  0.57743  0.9518  1.0000
  C   C53       1.0  0.8167499999999999  0.30474000000000007  0.32007  1.0000
  C   C54       1.0  0.7494099999999998  0.26497000000000004  0.35011000000000003  1.0000
  C   C55       1.0  0.7495899999999998  0.27862  0.41949000000000003  1.0000
  C   C56       1.0  0.8183299999999999  0.33275  0.45511000000000007  1.0000
  C   C57       1.0  0.8846699999999997  0.36881  0.42075000000000007  1.0000
  C   C58       1.0  0.6773799999999998  0.05278999999999999  0.34938  1.0000
  C   C59       1.0  0.71669  0.12064000000000002  0.38015000000000004  1.0000
  C   C60       1.0  0.64744  0.17025  0.42136  1.0000
  C   C61       1.0  0.5422  0.14810000000000006  0.4308700000000001  1.0000
  C   C62       1.0  0.51109  0.07862  0.39979  1.0000
  C   C63       1.0  0.46989  0.76591  0.17929  1.0000
  C   C64       1.0  0.43033999999999994  0.69919  0.14584  1.0000
  C   C65       1.0  0.33232  0.67524  0.16633000000000003  1.0000
  C   C66       1.0  0.27751  0.72147  0.21937  1.0000
  C   C67       1.0  0.32322999999999996  0.78725  0.24995000000000003  1.0000
  C   C68       1.0  0.0814  0.48923000000000005  0.17709  1.0000
  C   C69       1.0  0.13959999999999997  0.52787  0.14097  1.0000
  C   C70       1.0  0.22886999999999996  0.56814  0.17065  1.0000
  C   C71       1.0  0.25662  0.56674  0.23545000000000002  1.0000
  C   C72       1.0  0.19492999999999994  0.52551  0.26738000000000006  1.0000
  C   C73       1.0  0.51699  0.62053  0.30509  1.0000
  C   C74       1.0  0.5544999999999999  0.59089  0.25039  1.0000
  C   C75       1.0  0.5897  0.55814  0.1892  1.0000
  C   C76       1.0  0.61777  0.52793  0.13249  1.0000
  C   C77       1.0  0.46841  0.65464  0.36593  1.0000
  C   C78       1.0  0.43066  0.72591  0.3771200000000001  1.0000
  C   C79       1.0  0.37908  0.75951  0.4357500000000001  1.0000
  C   C80       1.0  0.36653  0.72324  0.48568000000000006  1.0000
  C   C81       1.0  0.4041699999999999  0.6524900000000001  0.4754900000000001  1.0000
  C   C82       1.0  0.45357  0.61825  0.41617  1.0000
  C   C83       1.0  0.64342  0.49391000000000007  0.06623  1.0000
  C   C84       1.0  0.62701  0.53025  0.016130000000000002  1.0000
  C   C85       1.0  0.6477799999999998  0.4965100000000001  0.9503300000000001  1.0000
  C   C86       1.0  0.6857899999999999  0.42565  0.93284  1.0000
  C   C87       1.0  0.70269  0.38893  0.98208  1.0000
  C   C88       1.0  0.6822999999999999  0.42257  0.0482  1.0000
  C   C89       1.0  0.18324  0.69526  0.6799300000000001  1.0000
  C   C90       1.0  0.25057999999999997  0.73503  0.64989  1.0000
  C   C91       1.0  0.2504  0.72138  0.58051  1.0000
  C   C92       1.0  0.18165999999999996  0.66725  0.54489  1.0000
  C   C93       1.0  0.11530999999999997  0.63119  0.57925  1.0000
  C   C94       1.0  0.32261  0.9472  0.65062  1.0000
  C   C95       1.0  0.2833  0.87935  0.6198500000000001  1.0000
  C   C96       1.0  0.35255  0.8297499999999999  0.57864  1.0000
  C   C97       1.0  0.4577899999999999  0.8518999999999999  0.56913  1.0000
  C   C98       1.0  0.4888999999999999  0.9213700000000001  0.60021  1.0000
  C   C99       1.0  0.5300999999999999  0.23409  0.8207000000000001  1.0000
  C   C100      1.0  0.56965  0.3008100000000001  0.8541600000000001  1.0000
  C   C101      1.0  0.6676699999999998  0.32476  0.83367  1.0000
  C   C102      1.0  0.7224799999999999  0.27853  0.7806300000000003  1.0000
  C   C103      1.0  0.67676  0.21275  0.75005  1.0000
  C   C104      1.0  0.91859  0.51077  0.8229000000000001  1.0000
  C   C105      1.0  0.86039  0.47213000000000005  0.85903  1.0000
  C   C106      1.0  0.7711199999999998  0.43186  0.82935  1.0000
  C   C107      1.0  0.7433699999999998  0.43326  0.7645500000000001  1.0000
  C   C108      1.0  0.8050599999999998  0.47449  0.73262  1.0000
  C   C109      1.0  0.9836299999999999  0.12063000000000003  0.30485000000000007  1.0000
  C   C110      1.0  0.94608  0.09091  0.25023  1.0000
  C   C111      1.0  0.9106399999999998  0.058059999999999994  0.1891  1.0000
  C   C112      1.0  0.8822299999999998  0.02774  0.1325  1.0000
  C   C113      1.0  0.03214999999999999  0.15474  0.36572  1.0000
  C   C114      1.0  0.07001  0.22596999999999998  0.37693000000000004  1.0000
  C   C115      1.0  0.12136  0.25954000000000005  0.4356400000000001  1.0000
  C   C116      1.0  0.13353  0.22327999999999998  0.48561000000000004  1.0000
  C   C117      1.0  0.09581999999999997  0.15256  0.47537  1.0000
  C   C118      1.0  0.04668  0.11834  0.41598  1.0000
  C   C119      1.0  0.8562799999999999  0.9937200000000002  0.0663  1.0000
  C   C120      1.0  0.8728699999999998  0.02999  0.01616  1.0000
  C   C121      1.0  0.8519599999999999  0.99626  0.95038  1.0000
  C   C122      1.0  0.81362  0.92549  0.93296  1.0000
  C   C123      1.0  0.7964599999999998  0.88887  0.9822400000000002  1.0000
  C   C124      1.0  0.81698  0.9224900000000001  0.04834  1.0000
  C   C125      1.0  0.31705999999999995  0.19535  0.67982  1.0000
  C   C126      1.0  0.24968999999999994  0.23516  0.64983  1.0000
  C   C127      1.0  0.24959999999999993  0.22141999999999998  0.58045  1.0000
  C   C128      1.0  0.31829999999999997  0.16726  0.54479  1.0000
  C   C129      1.0  0.3847199999999999  0.13118  0.57909  1.0000
  C   C130      1.0  0.17752999999999994  0.44725  0.65055  1.0000
  C   C131      1.0  0.21674  0.37937  0.61977  1.0000
  C   C132      1.0  0.14746  0.32983  0.57855  1.0000
  C   C133      1.0  0.04233999999999999  0.35213000000000005  0.5689400000000001  1.0000
  C   C134      1.0  0.01132  0.42163000000000006  0.60003  1.0000
  C   C135      1.0  0.9690999999999999  0.73376  0.8208500000000001  1.0000
  C   C136      1.0  0.92958  0.8005  0.85435  1.0000
  C   C137      1.0  0.83162  0.82453  0.8338400000000002  1.0000
  C   C138      1.0  0.77679  0.77834  0.7808200000000001  1.0000
  C   C139      1.0  0.82248  0.71254  0.7502  1.0000
  C   C140      1.0  0.58078  0.010579999999999984  0.823  1.0000
  C   C141      1.0  0.639  0.9719699999999999  0.85914  1.0000
  C   C142      1.0  0.72829  0.93169  0.8294700000000002  1.0000
  C   C143      1.0  0.7560999999999998  0.9330899999999999  0.76467  1.0000
  C   C144      1.0  0.6944299999999998  0.9743300000000001  0.7327400000000001  1.0000
  N   N1        1.0  0.81887  0.74076  0.4526300000000001  1.0000
  N   N2        1.0  0.6153499999999998  0.85537  0.35438  1.0000
  N   N3        1.0  0.92325  0.53132  0.35916  1.0000
  N   N4        1.0  0.21014  0.10766000000000002  0.13479  1.0000
  N   N5        1.0  0.08231999999999999  0.30978  0.23092000000000001  1.0000
  N   N6        1.0  0.3922699999999999  0.98778  0.23912  1.0000
  N   N7        1.0  0.68128  0.24077000000000007  0.45262000000000013  1.0000
  N   N8        1.0  0.8844599999999999  0.35536  0.35422  1.0000
  N   N9        1.0  0.57654  0.03148  0.35907  1.0000
  N   N10       1.0  0.29053  0.60747  0.13493000000000002  1.0000
  N   N11       1.0  0.41840999999999995  0.80952  0.23103  1.0000
  N   N12       1.0  0.10826999999999999  0.48760999999999993  0.23923000000000003  1.0000
  N   N13       1.0  0.31871  0.75923  0.54738  1.0000
  N   N14       1.0  0.11552999999999997  0.64464  0.64578  1.0000
  N   N15       1.0  0.4234499999999999  0.96852  0.64092  1.0000
  N   N16       1.0  0.70946  0.39253  0.8650600000000002  1.0000
  N   N17       1.0  0.58158  0.19048  0.76897  1.0000
  N   N18       1.0  0.8917199999999998  0.51239  0.76077  1.0000
  N   N19       1.0  0.18112  0.25924  0.54737  1.0000
  N   N20       1.0  0.38463999999999987  0.14463  0.6456200000000001  1.0000
  N   N21       1.0  0.07674  0.46867  0.64084  1.0000
  N   N22       1.0  0.7898499999999998  0.8923300000000001  0.8652100000000001  1.0000
  N   N23       1.0  0.9176699999999998  0.6902199999999998  0.76908  1.0000
  N   N24       1.0  0.60772  0.012219999999999955  0.76088  1.0000
  Cl  Cl1       1.0  0.6532899999999999  0.90408  0.20537000000000002  1.0000
  Cl  Cl2       1.0  0.35313  0.93014  0.3883  1.0000
  Cl  Cl3       1.0  0.84713  0.40421  0.20526000000000005  1.0000
  Cl  Cl4       1.0  0.14681999999999998  0.4300399999999999  0.38843  1.0000
  Cl  Cl5       1.0  0.15286  0.5957900000000002  0.7947400000000001  1.0000
  Cl  Cl6       1.0  0.85317  0.56996  0.61157  1.0000
  Cl  Cl7       1.0  0.3467  0.09592  0.79463  1.0000
  Cl  Cl8       1.0  0.64686  0.06985000000000002  0.6117  1.0000
