data_image0
_chemical_formula_structural       Cu12H120C216O48
_chemical_formula_sum              "Cu12 H120 C216 O48"
_cell_length_a       27.62289
_cell_length_b       27.62289
_cell_length_c       27.62289
_cell_angle_alpha    90.0
_cell_angle_beta     90.0
_cell_angle_gamma    90.0

_symmetry_space_group_name_H-M    'P 1'
_symmetry_Int_Tables_number       1

loop_
  _symmetry_equiv_pos_as_xyz
  'x,y,z'

loop_
  _atom_site_type_symbol
  _atom_site_label
  _atom_site_symmetry_multiplicity
  _atom_site_fract_x
  _atom_site_fract_y
  _atom_site_fract_z
  _atom_site_occupancy
  Cu  Cu1       1.0  0.0  0.7941399999999997  0.5  1.0000
  Cu  Cu2       1.0  0.0  0.20586  0.5  1.0000
  Cu  Cu3       1.0  0.5  0.0  0.7941399999999997  1.0000
  Cu  Cu4       1.0  0.5  0.0  0.20586  1.0000
  Cu  Cu5       1.0  0.7941399999999997  0.5  0.0  1.0000
  Cu  Cu6       1.0  0.20586  0.5  0.0  1.0000
  Cu  Cu7       1.0  0.29414  0.5  0.0  1.0000
  Cu  Cu8       1.0  0.70586  0.5  0.0  1.0000
  Cu  Cu9       1.0  0.5  0.0  0.70586  1.0000
  Cu  Cu10      1.0  0.5  0.0  0.29414  1.0000
  Cu  Cu11      1.0  0.0  0.29414  0.5  1.0000
  Cu  Cu12      1.0  0.0  0.70586  0.5  1.0000
  H   H1        1.0  0.8924499999999997  0.82766  0.60766  1.0000
  H   H2        1.0  0.8294999999999999  0.82793  0.67193  1.0000
  H   H3        1.0  0.10754  0.17234  0.60766  1.0000
  H   H4        1.0  0.17049999999999996  0.17206  0.67193  1.0000
  H   H5        1.0  0.10754  0.82766  0.39233  1.0000
  H   H6        1.0  0.17049999999999996  0.82793  0.3280699999999999  1.0000
  H   H7        1.0  0.8924499999999997  0.17234  0.39233  1.0000
  H   H8        1.0  0.8294999999999999  0.17206  0.3280699999999999  1.0000
  H   H9        1.0  0.60766  0.8924499999999997  0.82766  1.0000
  H   H10       1.0  0.67193  0.8294999999999999  0.82793  1.0000
  H   H11       1.0  0.60766  0.10754  0.17234  1.0000
  H   H12       1.0  0.67193  0.17049999999999996  0.17206  1.0000
  H   H13       1.0  0.39233  0.10754  0.82766  1.0000
  H   H14       1.0  0.3280699999999999  0.17049999999999996  0.82793  1.0000
  H   H15       1.0  0.39233  0.8924499999999997  0.17234  1.0000
  H   H16       1.0  0.3280699999999999  0.8294999999999999  0.17206  1.0000
  H   H17       1.0  0.82766  0.60766  0.8924499999999997  1.0000
  H   H18       1.0  0.82793  0.67193  0.8294999999999999  1.0000
  H   H19       1.0  0.17234  0.60766  0.10754  1.0000
  H   H20       1.0  0.17206  0.67193  0.17049999999999996  1.0000
  H   H21       1.0  0.82766  0.39233  0.10754  1.0000
  H   H22       1.0  0.82793  0.3280699999999999  0.17049999999999996  1.0000
  H   H23       1.0  0.17234  0.39233  0.8924499999999997  1.0000
  H   H24       1.0  0.17206  0.3280699999999999  0.8294999999999999  1.0000
  H   H25       1.0  0.32766  0.39244999999999997  0.8923299999999998  1.0000
  H   H26       1.0  0.32794  0.3295  0.82807  1.0000
  H   H27       1.0  0.67234  0.6075399999999999  0.8923299999999998  1.0000
  H   H28       1.0  0.67206  0.67049  0.82807  1.0000
  H   H29       1.0  0.32766  0.6075399999999999  0.10765999999999998  1.0000
  H   H30       1.0  0.32794  0.67049  0.17193  1.0000
  H   H31       1.0  0.67234  0.39244999999999997  0.10765999999999998  1.0000
  H   H32       1.0  0.67206  0.3295  0.17193  1.0000
  H   H33       1.0  0.39244999999999997  0.10765999999999998  0.67234  1.0000
  H   H34       1.0  0.3295  0.17193  0.67206  1.0000
  H   H35       1.0  0.6075399999999999  0.10765999999999998  0.32766  1.0000
  H   H36       1.0  0.67049  0.17193  0.32794  1.0000
  H   H37       1.0  0.6075399999999999  0.8923299999999998  0.67234  1.0000
  H   H38       1.0  0.67049  0.82807  0.67206  1.0000
  H   H39       1.0  0.39244999999999997  0.8923299999999998  0.32766  1.0000
  H   H40       1.0  0.3295  0.82807  0.32794  1.0000
  H   H41       1.0  0.10765999999999998  0.32766  0.6075399999999999  1.0000
  H   H42       1.0  0.17193  0.32794  0.67049  1.0000
  H   H43       1.0  0.10765999999999998  0.67234  0.39244999999999997  1.0000
  H   H44       1.0  0.17193  0.67206  0.3295  1.0000
  H   H45       1.0  0.8923299999999998  0.32766  0.39244999999999997  1.0000
  H   H46       1.0  0.82807  0.32794  0.3295  1.0000
  H   H47       1.0  0.8923299999999998  0.67234  0.6075399999999999  1.0000
  H   H48       1.0  0.82807  0.67206  0.67049  1.0000
  H   H49       1.0  0.10754  0.17234  0.39233  1.0000
  H   H50       1.0  0.17049999999999996  0.17206  0.3280699999999999  1.0000
  H   H51       1.0  0.8924499999999997  0.82766  0.39233  1.0000
  H   H52       1.0  0.8294999999999999  0.82793  0.3280699999999999  1.0000
  H   H53       1.0  0.8924499999999997  0.17234  0.60766  1.0000
  H   H54       1.0  0.8294999999999999  0.17206  0.67193  1.0000
  H   H55       1.0  0.10754  0.82766  0.60766  1.0000
  H   H56       1.0  0.17049999999999996  0.82793  0.67193  1.0000
  H   H57       1.0  0.39233  0.10754  0.17234  1.0000
  H   H58       1.0  0.3280699999999999  0.17049999999999996  0.17206  1.0000
  H   H59       1.0  0.39233  0.8924499999999997  0.82766  1.0000
  H   H60       1.0  0.3280699999999999  0.8294999999999999  0.82793  1.0000
  H   H61       1.0  0.60766  0.8924499999999997  0.17234  1.0000
  H   H62       1.0  0.67193  0.8294999999999999  0.17206  1.0000
  H   H63       1.0  0.60766  0.10754  0.82766  1.0000
  H   H64       1.0  0.67193  0.17049999999999996  0.82793  1.0000
  H   H65       1.0  0.17234  0.39233  0.10754  1.0000
  H   H66       1.0  0.17206  0.3280699999999999  0.17049999999999996  1.0000
  H   H67       1.0  0.82766  0.39233  0.8924499999999997  1.0000
  H   H68       1.0  0.82793  0.3280699999999999  0.8294999999999999  1.0000
  H   H69       1.0  0.17234  0.60766  0.8924499999999997  1.0000
  H   H70       1.0  0.17206  0.67193  0.8294999999999999  1.0000
  H   H71       1.0  0.82766  0.60766  0.10754  1.0000
  H   H72       1.0  0.82793  0.67193  0.17049999999999996  1.0000
  H   H73       1.0  0.67234  0.6075399999999999  0.10765999999999998  1.0000
  H   H74       1.0  0.67206  0.67049  0.17193  1.0000
  H   H75       1.0  0.32766  0.39244999999999997  0.10765999999999998  1.0000
  H   H76       1.0  0.32794  0.3295  0.17193  1.0000
  H   H77       1.0  0.67234  0.39244999999999997  0.8923299999999998  1.0000
  H   H78       1.0  0.67206  0.3295  0.82807  1.0000
  H   H79       1.0  0.32766  0.6075399999999999  0.8923299999999998  1.0000
  H   H80       1.0  0.32794  0.67049  0.82807  1.0000
  H   H81       1.0  0.6075399999999999  0.8923299999999998  0.32766  1.0000
  H   H82       1.0  0.67049  0.82807  0.32794  1.0000
  H   H83       1.0  0.39244999999999997  0.8923299999999998  0.67234  1.0000
  H   H84       1.0  0.3295  0.82807  0.67206  1.0000
  H   H85       1.0  0.39244999999999997  0.10765999999999998  0.32766  1.0000
  H   H86       1.0  0.3295  0.17193  0.32794  1.0000
  H   H87       1.0  0.6075399999999999  0.10765999999999998  0.67234  1.0000
  H   H88       1.0  0.67049  0.17193  0.67206  1.0000
  H   H89       1.0  0.8923299999999998  0.67234  0.39244999999999997  1.0000
  H   H90       1.0  0.82807  0.67206  0.3295  1.0000
  H   H91       1.0  0.8923299999999998  0.32766  0.6075399999999999  1.0000
  H   H92       1.0  0.82807  0.32794  0.67049  1.0000
  H   H93       1.0  0.10765999999999998  0.67234  0.6075399999999999  1.0000
  H   H94       1.0  0.17193  0.67206  0.67049  1.0000
  H   H95       1.0  0.10765999999999998  0.32766  0.39244999999999997  1.0000
  H   H96       1.0  0.17193  0.32794  0.3295  1.0000
  H   H97       1.0  0.75  0.81354  0.68645  1.0000
  H   H98       1.0  0.25  0.18645  0.68645  1.0000
  H   H99       1.0  0.25  0.81354  0.31353999999999993  1.0000
  H   H100      1.0  0.75  0.18645  0.31353999999999993  1.0000
  H   H101      1.0  0.68645  0.75  0.81354  1.0000
  H   H102      1.0  0.68645  0.25  0.18645  1.0000
  H   H103      1.0  0.31353999999999993  0.25  0.81354  1.0000
  H   H104      1.0  0.31353999999999993  0.75  0.18645  1.0000
  H   H105      1.0  0.81354  0.68645  0.75  1.0000
  H   H106      1.0  0.18645  0.68645  0.25  1.0000
  H   H107      1.0  0.81354  0.31353999999999993  0.25  1.0000
  H   H108      1.0  0.18645  0.31353999999999993  0.75  1.0000
  H   H109      1.0  0.25  0.18645  0.31353999999999993  1.0000
  H   H110      1.0  0.75  0.81354  0.31353999999999993  1.0000
  H   H111      1.0  0.75  0.18645  0.68645  1.0000
  H   H112      1.0  0.25  0.81354  0.68645  1.0000
  H   H113      1.0  0.31353999999999993  0.25  0.18645  1.0000
  H   H114      1.0  0.31353999999999993  0.75  0.81354  1.0000
  H   H115      1.0  0.68645  0.75  0.18645  1.0000
  H   H116      1.0  0.68645  0.25  0.81354  1.0000
  H   H117      1.0  0.18645  0.31353999999999993  0.25  1.0000
  H   H118      1.0  0.81354  0.31353999999999993  0.75  1.0000
  H   H119      1.0  0.18645  0.68645  0.75  1.0000
  H   H120      1.0  0.81354  0.68645  0.25  1.0000
  C   C1        1.0  0.8781199999999998  0.79379  0.6216699999999998  1.0000
  C   C2        1.0  0.8425299999999999  0.7937199999999999  0.65737  1.0000
  C   C3        1.0  0.12188  0.20619999999999994  0.6216699999999998  1.0000
  C   C4        1.0  0.15746999999999997  0.20628  0.65737  1.0000
  C   C5        1.0  0.12188  0.79379  0.3783299999999999  1.0000
  C   C6        1.0  0.15746999999999997  0.7937199999999999  0.34263  1.0000
  C   C7        1.0  0.8781199999999998  0.20619999999999994  0.3783299999999999  1.0000
  C   C8        1.0  0.8425299999999999  0.20628  0.34263  1.0000
  C   C9        1.0  0.6216699999999998  0.8781199999999998  0.79379  1.0000
  C   C10       1.0  0.65737  0.8425299999999999  0.7937199999999999  1.0000
  C   C11       1.0  0.6216699999999998  0.12188  0.20619999999999994  1.0000
  C   C12       1.0  0.65737  0.15746999999999997  0.20628  1.0000
  C   C13       1.0  0.3783299999999999  0.12188  0.79379  1.0000
  C   C14       1.0  0.34263  0.15746999999999997  0.7937199999999999  1.0000
  C   C15       1.0  0.3783299999999999  0.8781199999999998  0.20619999999999994  1.0000
  C   C16       1.0  0.34263  0.8425299999999999  0.20628  1.0000
  C   C17       1.0  0.79379  0.6216699999999998  0.8781199999999998  1.0000
  C   C18       1.0  0.7937199999999999  0.65737  0.8425299999999999  1.0000
  C   C19       1.0  0.20619999999999994  0.6216699999999998  0.12188  1.0000
  C   C20       1.0  0.20628  0.65737  0.15746999999999997  1.0000
  C   C21       1.0  0.79379  0.3783299999999999  0.12188  1.0000
  C   C22       1.0  0.7937199999999999  0.34263  0.15746999999999997  1.0000
  C   C23       1.0  0.20619999999999994  0.3783299999999999  0.8781199999999998  1.0000
  C   C24       1.0  0.20628  0.34263  0.8425299999999999  1.0000
  C   C25       1.0  0.29379  0.37811999999999996  0.87833  1.0000
  C   C26       1.0  0.29372  0.34253  0.8426299999999999  1.0000
  C   C27       1.0  0.7062  0.6218699999999998  0.87833  1.0000
  C   C28       1.0  0.70628  0.65746  0.8426299999999999  1.0000
  C   C29       1.0  0.29379  0.6218699999999998  0.12167  1.0000
  C   C30       1.0  0.29372  0.65746  0.15736999999999998  1.0000
  C   C31       1.0  0.7062  0.37811999999999996  0.12167  1.0000
  C   C32       1.0  0.70628  0.34253  0.15736999999999998  1.0000
  C   C33       1.0  0.37811999999999996  0.12167  0.7062  1.0000
  C   C34       1.0  0.34253  0.15736999999999998  0.70628  1.0000
  C   C35       1.0  0.6218699999999998  0.12167  0.29379  1.0000
  C   C36       1.0  0.65746  0.15736999999999998  0.29372  1.0000
  C   C37       1.0  0.6218699999999998  0.87833  0.7062  1.0000
  C   C38       1.0  0.65746  0.8426299999999999  0.70628  1.0000
  C   C39       1.0  0.37811999999999996  0.87833  0.29379  1.0000
  C   C40       1.0  0.34253  0.8426299999999999  0.29372  1.0000
  C   C41       1.0  0.12167  0.29379  0.6218699999999998  1.0000
  C   C42       1.0  0.15736999999999998  0.29372  0.65746  1.0000
  C   C43       1.0  0.12167  0.7062  0.37811999999999996  1.0000
  C   C44       1.0  0.15736999999999998  0.70628  0.34253  1.0000
  C   C45       1.0  0.87833  0.29379  0.37811999999999996  1.0000
  C   C46       1.0  0.8426299999999999  0.29372  0.34253  1.0000
  C   C47       1.0  0.87833  0.7062  0.6218699999999998  1.0000
  C   C48       1.0  0.8426299999999999  0.70628  0.65746  1.0000
  C   C49       1.0  0.12188  0.20619999999999994  0.3783299999999999  1.0000
  C   C50       1.0  0.15746999999999997  0.20628  0.34263  1.0000
  C   C51       1.0  0.8781199999999998  0.79379  0.3783299999999999  1.0000
  C   C52       1.0  0.8425299999999999  0.7937199999999999  0.34263  1.0000
  C   C53       1.0  0.8781199999999998  0.20619999999999994  0.6216699999999998  1.0000
  C   C54       1.0  0.8425299999999999  0.20628  0.65737  1.0000
  C   C55       1.0  0.12188  0.79379  0.6216699999999998  1.0000
  C   C56       1.0  0.15746999999999997  0.7937199999999999  0.65737  1.0000
  C   C57       1.0  0.3783299999999999  0.12188  0.20619999999999994  1.0000
  C   C58       1.0  0.34263  0.15746999999999997  0.20628  1.0000
  C   C59       1.0  0.3783299999999999  0.8781199999999998  0.79379  1.0000
  C   C60       1.0  0.34263  0.8425299999999999  0.7937199999999999  1.0000
  C   C61       1.0  0.6216699999999998  0.8781199999999998  0.20619999999999994  1.0000
  C   C62       1.0  0.65737  0.8425299999999999  0.20628  1.0000
  C   C63       1.0  0.6216699999999998  0.12188  0.79379  1.0000
  C   C64       1.0  0.65737  0.15746999999999997  0.7937199999999999  1.0000
  C   C65       1.0  0.20619999999999994  0.3783299999999999  0.12188  1.0000
  C   C66       1.0  0.20628  0.34263  0.15746999999999997  1.0000
  C   C67       1.0  0.79379  0.3783299999999999  0.8781199999999998  1.0000
  C   C68       1.0  0.7937199999999999  0.34263  0.8425299999999999  1.0000
  C   C69       1.0  0.20619999999999994  0.6216699999999998  0.8781199999999998  1.0000
  C   C70       1.0  0.20628  0.65737  0.8425299999999999  1.0000
  C   C71       1.0  0.79379  0.6216699999999998  0.12188  1.0000
  C   C72       1.0  0.7937199999999999  0.65737  0.15746999999999997  1.0000
  C   C73       1.0  0.7062  0.6218699999999998  0.12167  1.0000
  C   C74       1.0  0.70628  0.65746  0.15736999999999998  1.0000
  C   C75       1.0  0.29379  0.37811999999999996  0.12167  1.0000
  C   C76       1.0  0.29372  0.34253  0.15736999999999998  1.0000
  C   C77       1.0  0.7062  0.37811999999999996  0.87833  1.0000
  C   C78       1.0  0.70628  0.34253  0.8426299999999999  1.0000
  C   C79       1.0  0.29379  0.6218699999999998  0.87833  1.0000
  C   C80       1.0  0.29372  0.65746  0.8426299999999999  1.0000
  C   C81       1.0  0.6218699999999998  0.87833  0.29379  1.0000
  C   C82       1.0  0.65746  0.8426299999999999  0.29372  1.0000
  C   C83       1.0  0.37811999999999996  0.87833  0.7062  1.0000
  C   C84       1.0  0.34253  0.8426299999999999  0.70628  1.0000
  C   C85       1.0  0.37811999999999996  0.12167  0.29379  1.0000
  C   C86       1.0  0.34253  0.15736999999999998  0.29372  1.0000
  C   C87       1.0  0.6218699999999998  0.12167  0.7062  1.0000
  C   C88       1.0  0.65746  0.15736999999999998  0.70628  1.0000
  C   C89       1.0  0.87833  0.7062  0.37811999999999996  1.0000
  C   C90       1.0  0.8426299999999999  0.70628  0.34253  1.0000
  C   C91       1.0  0.87833  0.29379  0.6218699999999998  1.0000
  C   C92       1.0  0.8426299999999999  0.29372  0.65746  1.0000
  C   C93       1.0  0.12167  0.7062  0.6218699999999998  1.0000
  C   C94       1.0  0.15736999999999998  0.70628  0.65746  1.0000
  C   C95       1.0  0.12167  0.29379  0.37811999999999996  1.0000
  C   C96       1.0  0.15736999999999998  0.29372  0.34253  1.0000
  C   C97       1.0  0.8964499999999999  0.75  0.6035399999999997  1.0000
  C   C98       1.0  0.9346299999999998  0.75  0.56536  1.0000
  C   C99       1.0  0.78617  0.75  0.71382  1.0000
  C   C100      1.0  0.82406  0.75  0.67594  1.0000
  C   C101      1.0  0.10353999999999997  0.25  0.6035399999999997  1.0000
  C   C102      1.0  0.06536  0.25  0.56536  1.0000
  C   C103      1.0  0.21382  0.25  0.71382  1.0000
  C   C104      1.0  0.17594  0.25  0.67594  1.0000
  C   C105      1.0  0.10353999999999997  0.75  0.39645  1.0000
  C   C106      1.0  0.06536  0.75  0.43463999999999997  1.0000
  C   C107      1.0  0.21382  0.75  0.28618  1.0000
  C   C108      1.0  0.17594  0.75  0.32405999999999996  1.0000
  C   C109      1.0  0.8964499999999999  0.25  0.39645  1.0000
  C   C110      1.0  0.9346299999999998  0.25  0.43463999999999997  1.0000
  C   C111      1.0  0.78617  0.25  0.28618  1.0000
  C   C112      1.0  0.82406  0.25  0.32405999999999996  1.0000
  C   C113      1.0  0.6035399999999997  0.8964499999999999  0.75  1.0000
  C   C114      1.0  0.56536  0.9346299999999998  0.75  1.0000
  C   C115      1.0  0.71382  0.78617  0.75  1.0000
  C   C116      1.0  0.67594  0.82406  0.75  1.0000
  C   C117      1.0  0.6035399999999997  0.10353999999999997  0.25  1.0000
  C   C118      1.0  0.56536  0.06536  0.25  1.0000
  C   C119      1.0  0.71382  0.21382  0.25  1.0000
  C   C120      1.0  0.67594  0.17594  0.25  1.0000
  C   C121      1.0  0.39645  0.10353999999999997  0.75  1.0000
  C   C122      1.0  0.43463999999999997  0.06536  0.75  1.0000
  C   C123      1.0  0.28618  0.21382  0.75  1.0000
  C   C124      1.0  0.32405999999999996  0.17594  0.75  1.0000
  C   C125      1.0  0.39645  0.8964499999999999  0.25  1.0000
  C   C126      1.0  0.43463999999999997  0.9346299999999998  0.25  1.0000
  C   C127      1.0  0.28618  0.78617  0.25  1.0000
  C   C128      1.0  0.32405999999999996  0.82406  0.25  1.0000
  C   C129      1.0  0.75  0.6035399999999997  0.8964499999999999  1.0000
  C   C130      1.0  0.75  0.56536  0.9346299999999998  1.0000
  C   C131      1.0  0.75  0.71382  0.78617  1.0000
  C   C132      1.0  0.75  0.67594  0.82406  1.0000
  C   C133      1.0  0.25  0.6035399999999997  0.10353999999999997  1.0000
  C   C134      1.0  0.25  0.56536  0.06536  1.0000
  C   C135      1.0  0.25  0.71382  0.21382  1.0000
  C   C136      1.0  0.25  0.67594  0.17594  1.0000
  C   C137      1.0  0.75  0.39645  0.10353999999999997  1.0000
  C   C138      1.0  0.75  0.43463999999999997  0.06536  1.0000
  C   C139      1.0  0.75  0.28618  0.21382  1.0000
  C   C140      1.0  0.75  0.32405999999999996  0.17594  1.0000
  C   C141      1.0  0.25  0.39645  0.8964499999999999  1.0000
  C   C142      1.0  0.25  0.43463999999999997  0.9346299999999998  1.0000
  C   C143      1.0  0.25  0.28618  0.78617  1.0000
  C   C144      1.0  0.25  0.32405999999999996  0.82406  1.0000
  C   C145      1.0  0.10353999999999997  0.25  0.39645  1.0000
  C   C146      1.0  0.06536  0.25  0.43463999999999997  1.0000
  C   C147      1.0  0.21382  0.25  0.28618  1.0000
  C   C148      1.0  0.17594  0.25  0.32405999999999996  1.0000
  C   C149      1.0  0.8964499999999999  0.75  0.39645  1.0000
  C   C150      1.0  0.9346299999999998  0.75  0.43463999999999997  1.0000
  C   C151      1.0  0.78617  0.75  0.28618  1.0000
  C   C152      1.0  0.82406  0.75  0.32405999999999996  1.0000
  C   C153      1.0  0.8964499999999999  0.25  0.6035399999999997  1.0000
  C   C154      1.0  0.9346299999999998  0.25  0.56536  1.0000
  C   C155      1.0  0.78617  0.25  0.71382  1.0000
  C   C156      1.0  0.82406  0.25  0.67594  1.0000
  C   C157      1.0  0.10353999999999997  0.75  0.6035399999999997  1.0000
  C   C158      1.0  0.06536  0.75  0.56536  1.0000
  C   C159      1.0  0.21382  0.75  0.71382  1.0000
  C   C160      1.0  0.17594  0.75  0.67594  1.0000
  C   C161      1.0  0.39645  0.10353999999999997  0.25  1.0000
  C   C162      1.0  0.43463999999999997  0.06536  0.25  1.0000
  C   C163      1.0  0.28618  0.21382  0.25  1.0000
  C   C164      1.0  0.32405999999999996  0.17594  0.25  1.0000
  C   C165      1.0  0.39645  0.8964499999999999  0.75  1.0000
  C   C166      1.0  0.43463999999999997  0.9346299999999998  0.75  1.0000
  C   C167      1.0  0.28618  0.78617  0.75  1.0000
  C   C168      1.0  0.32405999999999996  0.82406  0.75  1.0000
  C   C169      1.0  0.6035399999999997  0.8964499999999999  0.25  1.0000
  C   C170      1.0  0.56536  0.9346299999999998  0.25  1.0000
  C   C171      1.0  0.71382  0.78617  0.25  1.0000
  C   C172      1.0  0.67594  0.82406  0.25  1.0000
  C   C173      1.0  0.6035399999999997  0.10353999999999997  0.75  1.0000
  C   C174      1.0  0.56536  0.06536  0.75  1.0000
  C   C175      1.0  0.71382  0.21382  0.75  1.0000
  C   C176      1.0  0.67594  0.17594  0.75  1.0000
  C   C177      1.0  0.25  0.39645  0.10353999999999997  1.0000
  C   C178      1.0  0.25  0.43463999999999997  0.06536  1.0000
  C   C179      1.0  0.25  0.28618  0.21382  1.0000
  C   C180      1.0  0.25  0.32405999999999996  0.17594  1.0000
  C   C181      1.0  0.75  0.39645  0.8964499999999999  1.0000
  C   C182      1.0  0.75  0.43463999999999997  0.9346299999999998  1.0000
  C   C183      1.0  0.75  0.28618  0.78617  1.0000
  C   C184      1.0  0.75  0.32405999999999996  0.82406  1.0000
  C   C185      1.0  0.25  0.6035399999999997  0.8964499999999999  1.0000
  C   C186      1.0  0.25  0.56536  0.9346299999999998  1.0000
  C   C187      1.0  0.25  0.71382  0.78617  1.0000
  C   C188      1.0  0.25  0.67594  0.82406  1.0000
  C   C189      1.0  0.75  0.6035399999999997  0.10353999999999997  1.0000
  C   C190      1.0  0.75  0.56536  0.06536  1.0000
  C   C191      1.0  0.75  0.71382  0.21382  1.0000
  C   C192      1.0  0.75  0.67594  0.17594  1.0000
  C   C193      1.0  0.75  0.7857  0.7143  1.0000
  C   C194      1.0  0.25  0.2143  0.7143  1.0000
  C   C195      1.0  0.25  0.7857  0.2857  1.0000
  C   C196      1.0  0.75  0.2143  0.2857  1.0000
  C   C197      1.0  0.7143  0.75  0.78569  1.0000
  C   C198      1.0  0.7143  0.25  0.2143  1.0000
  C   C199      1.0  0.2857  0.25  0.78569  1.0000
  C   C200      1.0  0.2857  0.75  0.2143  1.0000
  C   C201      1.0  0.78569  0.7143  0.75  1.0000
  C   C202      1.0  0.2143  0.7143  0.25  1.0000
  C   C203      1.0  0.78569  0.2857  0.25  1.0000
  C   C204      1.0  0.2143  0.2857  0.75  1.0000
  C   C205      1.0  0.25  0.2143  0.2857  1.0000
  C   C206      1.0  0.75  0.78569  0.2857  1.0000
  C   C207      1.0  0.75  0.2143  0.7143  1.0000
  C   C208      1.0  0.25  0.78569  0.7143  1.0000
  C   C209      1.0  0.2857  0.25  0.2143  1.0000
  C   C210      1.0  0.2857  0.75  0.78569  1.0000
  C   C211      1.0  0.7143  0.75  0.2143  1.0000
  C   C212      1.0  0.7143  0.25  0.7857  1.0000
  C   C213      1.0  0.2143  0.2857  0.25  1.0000
  C   C214      1.0  0.7857  0.2857  0.75  1.0000
  C   C215      1.0  0.2143  0.7143  0.75  1.0000
  C   C216      1.0  0.78569  0.7143  0.25  1.0000
  O   O1        1.0  0.9496399999999999  0.79127  0.55034  1.0000
  O   O2        1.0  0.05035999999999999  0.20872  0.55034  1.0000
  O   O3        1.0  0.05035999999999999  0.79127  0.44966  1.0000
  O   O4        1.0  0.94963  0.20872  0.44966  1.0000
  O   O5        1.0  0.55034  0.9496399999999999  0.79127  1.0000
  O   O6        1.0  0.55034  0.05035999999999999  0.20872  1.0000
  O   O7        1.0  0.44966  0.05035999999999999  0.79127  1.0000
  O   O8        1.0  0.44966  0.9496399999999999  0.20872  1.0000
  O   O9        1.0  0.79127  0.55034  0.94963  1.0000
  O   O10       1.0  0.20872  0.55034  0.05035999999999999  1.0000
  O   O11       1.0  0.79127  0.44966  0.05035999999999999  1.0000
  O   O12       1.0  0.20872  0.44966  0.9496399999999999  1.0000
  O   O13       1.0  0.29128  0.44964  0.9496599999999998  1.0000
  O   O14       1.0  0.70872  0.55036  0.9496599999999998  1.0000
  O   O15       1.0  0.29128  0.55036  0.050339999999999996  1.0000
  O   O16       1.0  0.70872  0.44964  0.050339999999999996  1.0000
  O   O17       1.0  0.44964  0.050339999999999996  0.70872  1.0000
  O   O18       1.0  0.55036  0.050339999999999996  0.29128  1.0000
  O   O19       1.0  0.55036  0.9496599999999998  0.70872  1.0000
  O   O20       1.0  0.44964  0.9496599999999998  0.29128  1.0000
  O   O21       1.0  0.050339999999999996  0.29128  0.55036  1.0000
  O   O22       1.0  0.050339999999999996  0.70872  0.44964  1.0000
  O   O23       1.0  0.9496599999999998  0.29128  0.44964  1.0000
  O   O24       1.0  0.9496599999999998  0.70872  0.55036  1.0000
  O   O25       1.0  0.05035999999999999  0.20872  0.44966  1.0000
  O   O26       1.0  0.9496399999999999  0.79127  0.44966  1.0000
  O   O27       1.0  0.9496399999999999  0.20872  0.55034  1.0000
  O   O28       1.0  0.05035999999999999  0.79127  0.55034  1.0000
  O   O29       1.0  0.44966  0.05035999999999999  0.20872  1.0000
  O   O30       1.0  0.44966  0.94963  0.79127  1.0000
  O   O31       1.0  0.55034  0.9496399999999999  0.20872  1.0000
  O   O32       1.0  0.55034  0.05035999999999999  0.79127  1.0000
  O   O33       1.0  0.20872  0.44966  0.05035999999999999  1.0000
  O   O34       1.0  0.79127  0.44966  0.9496399999999999  1.0000
  O   O35       1.0  0.20872  0.55034  0.9496399999999999  1.0000
  O   O36       1.0  0.79127  0.55034  0.05035999999999999  1.0000
  O   O37       1.0  0.70872  0.55036  0.050339999999999996  1.0000
  O   O38       1.0  0.29128  0.44964  0.050339999999999996  1.0000
  O   O39       1.0  0.70872  0.44964  0.9496599999999998  1.0000
  O   O40       1.0  0.29128  0.55036  0.9496599999999998  1.0000
  O   O41       1.0  0.55036  0.9496599999999998  0.29128  1.0000
  O   O42       1.0  0.44964  0.9496599999999998  0.70872  1.0000
  O   O43       1.0  0.44964  0.050339999999999996  0.29128  1.0000
  O   O44       1.0  0.55036  0.050339999999999996  0.70872  1.0000
  O   O45       1.0  0.9496599999999998  0.70872  0.44964  1.0000
  O   O46       1.0  0.9496599999999998  0.29128  0.55036  1.0000
  O   O47       1.0  0.050339999999999996  0.70872  0.55036  1.0000
  O   O48       1.0  0.050339999999999996  0.29128  0.44964  1.0000
