data_image0
_chemical_formula_structural       Ag12H96C120N48
_chemical_formula_sum              "Ag12 H96 C120 N48"
_cell_length_a       15.22935
_cell_length_b       15.229350000000002
_cell_length_c       15.22935
_cell_angle_alpha    90.0094
_cell_angle_beta     90.00941
_cell_angle_gamma    90.00941

_symmetry_space_group_name_H-M    'P 1'
_symmetry_Int_Tables_number       1

loop_
  _symmetry_equiv_pos_as_xyz
  'x,y,z'

loop_
  _atom_site_type_symbol
  _atom_site_label
  _atom_site_symmetry_multiplicity
  _atom_site_fract_x
  _atom_site_fract_y
  _atom_site_fract_z
  _atom_site_occupancy
  Ag  Ag1       1.0  0.62491  0.6711  0.92104  1.0000
  Ag  Ag2       1.0  0.87492  0.32878  0.42111  1.0000
  Ag  Ag3       1.0  0.37504  0.171  0.57883  1.0000
  Ag  Ag4       1.0  0.12504  0.829  0.079  1.0000
  Ag  Ag5       1.0  0.92104  0.6249  0.6710999999999998  1.0000
  Ag  Ag6       1.0  0.42112  0.87492  0.32878  1.0000
  Ag  Ag7       1.0  0.57883  0.37504  0.171  1.0000
  Ag  Ag8       1.0  0.079  0.12504  0.829  1.0000
  Ag  Ag9       1.0  0.6711  0.92104  0.6249  1.0000
  Ag  Ag10      1.0  0.32878  0.42112  0.8749199999999998  1.0000
  Ag  Ag11      1.0  0.171  0.57883  0.37504  1.0000
  Ag  Ag12      1.0  0.829  0.079  0.12504  1.0000
  H   H1        1.0  0.5199  0.80367  0.7799699999999998  1.0000
  H   H2        1.0  0.3391  0.81532  0.7763  1.0000
  H   H3        1.0  0.28556  0.70785  0.9107399999999998  1.0000
  H   H4        1.0  0.54011  0.69161  0.056199999999999986  1.0000
  H   H5        1.0  0.98012  0.19624  0.2801299999999999  1.0000
  H   H6        1.0  0.16091  0.18488  0.27654  1.0000
  H   H7        1.0  0.21433  0.2924  0.41103  1.0000
  H   H8        1.0  0.95975  0.3084  0.5565  1.0000
  H   H9        1.0  0.48018  0.30323  0.72004  1.0000
  H   H10       1.0  0.66093  0.31526  0.7233699999999997  1.0000
  H   H11       1.0  0.71445  0.20777  0.58888  1.0000
  H   H12       1.0  0.46006  0.19139  0.44361  1.0000
  H   H13       1.0  0.0199  0.69668  0.22008  1.0000
  H   H14       1.0  0.83913  0.68476  0.22344  1.0000
  H   H15       1.0  0.78561  0.7922399999999999  0.08898  1.0000
  H   H16       1.0  0.04014  0.80855  0.94378  1.0000
  H   H17       1.0  0.7799700000000003  0.5199  0.8036699999999999  1.0000
  H   H18       1.0  0.77631  0.3391  0.81532  1.0000
  H   H19       1.0  0.91074  0.28556  0.70785  1.0000
  H   H20       1.0  0.0562  0.54011  0.6916099999999997  1.0000
  H   H21       1.0  0.28013  0.98012  0.19624  1.0000
  H   H22       1.0  0.2765400000000001  0.16091  0.18487  1.0000
  H   H23       1.0  0.41103  0.21433  0.2924  1.0000
  H   H24       1.0  0.5565  0.95975  0.3084  1.0000
  H   H25       1.0  0.72004  0.48018  0.3032299999999999  1.0000
  H   H26       1.0  0.72337  0.66093  0.31526  1.0000
  H   H27       1.0  0.58888  0.71445  0.20776999999999995  1.0000
  H   H28       1.0  0.44361  0.46006  0.19139  1.0000
  H   H29       1.0  0.22008  0.0199  0.69668  1.0000
  H   H30       1.0  0.22344  0.83913  0.68476  1.0000
  H   H31       1.0  0.08898  0.78561  0.79224  1.0000
  H   H32       1.0  0.94378  0.04013  0.80855  1.0000
  H   H33       1.0  0.80367  0.77997  0.51989  1.0000
  H   H34       1.0  0.81532  0.7763  0.3391  1.0000
  H   H35       1.0  0.70785  0.91074  0.28556  1.0000
  H   H36       1.0  0.69161  0.0562  0.54011  1.0000
  H   H37       1.0  0.19624  0.28012999999999993  0.98012  1.0000
  H   H38       1.0  0.18488  0.27654  0.16091  1.0000
  H   H39       1.0  0.2924  0.41103  0.21433  1.0000
  H   H40       1.0  0.30841  0.5565  0.95975  1.0000
  H   H41       1.0  0.30323  0.72004  0.4801799999999999  1.0000
  H   H42       1.0  0.31526  0.72337  0.66093  1.0000
  H   H43       1.0  0.20777  0.58888  0.71445  1.0000
  H   H44       1.0  0.19139  0.44361  0.46006  1.0000
  H   H45       1.0  0.69668  0.22008  0.019889999999999994  1.0000
  H   H46       1.0  0.68476  0.22344  0.83913  1.0000
  H   H47       1.0  0.79224  0.08897999999999998  0.78561  1.0000
  H   H48       1.0  0.80855  0.94378  0.04013  1.0000
  H   H49       1.0  0.55347  0.7699  0.47  1.0000
  H   H50       1.0  0.56525  0.58914  0.4735399999999999  1.0000
  H   H51       1.0  0.45789  0.53553  0.33896  1.0000
  H   H52       1.0  0.44155  0.79015  0.19362999999999997  1.0000
  H   H53       1.0  0.9464100000000002  0.23016  0.96996  1.0000
  H   H54       1.0  0.93472  0.41092  0.97347  1.0000
  H   H55       1.0  0.04236  0.46443  0.8391399999999998  1.0000
  H   H56       1.0  0.05851  0.20988  0.6936799999999999  1.0000
  H   H57       1.0  0.0535  0.73014  0.53007  1.0000
  H   H58       1.0  0.06517  0.91093  0.52659  1.0000
  H   H59       1.0  0.95757  0.96439  0.66096  1.0000
  H   H60       1.0  0.94152  0.70996  0.8062399999999997  1.0000
  H   H61       1.0  0.44664  0.26992  0.02982  1.0000
  H   H62       1.0  0.4347400000000001  0.08914  0.02646  1.0000
  H   H63       1.0  0.5421  0.03571  0.16108  1.0000
  H   H64       1.0  0.55853  0.29011  0.30638  1.0000
  H   H65       1.0  0.26992  0.02982  0.44664  1.0000
  H   H66       1.0  0.08914  0.02646  0.43474  1.0000
  H   H67       1.0  0.03571  0.16108  0.5421  1.0000
  H   H68       1.0  0.29011  0.30638  0.5585199999999998  1.0000
  H   H69       1.0  0.73014  0.53007  0.05348999999999999  1.0000
  H   H70       1.0  0.91093  0.52659  0.06516  1.0000
  H   H71       1.0  0.96439  0.66096  0.95757  1.0000
  H   H72       1.0  0.70996  0.80624  0.94152  1.0000
  H   H73       1.0  0.23016  0.96996  0.94641  1.0000
  H   H74       1.0  0.41092000000000006  0.97347  0.93472  1.0000
  H   H75       1.0  0.46443  0.83914  0.04236  1.0000
  H   H76       1.0  0.20988  0.69368  0.0585  1.0000
  H   H77       1.0  0.7699  0.47  0.55347  1.0000
  H   H78       1.0  0.58914  0.47354  0.56524  1.0000
  H   H79       1.0  0.53553  0.33896  0.45789  1.0000
  H   H80       1.0  0.79016  0.19363  0.44155  1.0000
  H   H81       1.0  0.53007  0.0535  0.73013  1.0000
  H   H82       1.0  0.52659  0.06516  0.91093  1.0000
  H   H83       1.0  0.66096  0.9575699999999999  0.96439  1.0000
  H   H84       1.0  0.80624  0.94152  0.70996  1.0000
  H   H85       1.0  0.02982  0.44664  0.26992  1.0000
  H   H86       1.0  0.02646  0.43474  0.08914  1.0000
  H   H87       1.0  0.16108  0.5421  0.03571  1.0000
  H   H88       1.0  0.30638  0.5585299999999997  0.29011  1.0000
  H   H89       1.0  0.47  0.55347  0.7698999999999999  1.0000
  H   H90       1.0  0.47354  0.56524  0.5891399999999998  1.0000
  H   H91       1.0  0.33896  0.45789  0.53553  1.0000
  H   H92       1.0  0.19363  0.44155  0.79015  1.0000
  H   H93       1.0  0.96996  0.94641  0.23016  1.0000
  H   H94       1.0  0.97347  0.93472  0.4109199999999999  1.0000
  H   H95       1.0  0.83914  0.04236  0.46443  1.0000
  H   H96       1.0  0.69368  0.0585  0.20988  1.0000
  C   C1        1.0  0.4713  0.77033  0.81987  1.0000
  C   C2        1.0  0.37976  0.77386  0.81707  1.0000
  C   C3        1.0  0.35047  0.71917  0.88431  1.0000
  C   C4        1.0  0.4272  0.62662  0.99677  1.0000
  C   C5        1.0  0.49604  0.63546  0.05828  1.0000
  C   C6        1.0  0.02865  0.22964  0.32011  1.0000
  C   C7        1.0  0.12018  0.22625  0.31733  1.0000
  C   C8        1.0  0.14942  0.28094  0.38461  1.0000
  C   C9        1.0  0.07264  0.37332  0.4971  1.0000
  C   C10       1.0  0.00377  0.36458  0.55857  1.0000
  C   C11       1.0  0.52875  0.26998  0.68006  1.0000
  C   C12       1.0  0.62032  0.27373  0.6826399999999998  1.0000
  C   C13       1.0  0.64956  0.21894  0.6153899999999998  1.0000
  C   C14       1.0  0.5728  0.12631  0.50303  1.0000
  C   C15       1.0  0.50407  0.13523  0.44146  1.0000
  C   C16       1.0  0.9713200000000002  0.73  0.18016  1.0000
  C   C17       1.0  0.87977  0.72625  0.18271  1.0000
  C   C18       1.0  0.85051  0.78106  0.11552  1.0000
  C   C19       1.0  0.92726  0.87353  0.00311  1.0000
  C   C20       1.0  0.99613  0.86472  0.94168  1.0000
  C   C21       1.0  0.81987  0.4713  0.77033  1.0000
  C   C22       1.0  0.81708  0.37976  0.7738599999999998  1.0000
  C   C23       1.0  0.88431  0.35047  0.71917  1.0000
  C   C24       1.0  0.99677  0.4272  0.6266199999999997  1.0000
  C   C25       1.0  0.05828  0.49604  0.63546  1.0000
  C   C26       1.0  0.32011  0.02865  0.22964  1.0000
  C   C27       1.0  0.31733  0.12018  0.22624999999999995  1.0000
  C   C28       1.0  0.38461  0.14941999999999997  0.28094  1.0000
  C   C29       1.0  0.4971  0.07264  0.37332  1.0000
  C   C30       1.0  0.55857  0.00377  0.36458  1.0000
  C   C31       1.0  0.68006  0.52875  0.26998  1.0000
  C   C32       1.0  0.68264  0.6203199999999999  0.27373  1.0000
  C   C33       1.0  0.61539  0.6495499999999998  0.21894  1.0000
  C   C34       1.0  0.50303  0.5728  0.12631  1.0000
  C   C35       1.0  0.44146  0.50407  0.13522  1.0000
  C   C36       1.0  0.18016  0.9713199999999999  0.7299999999999998  1.0000
  C   C37       1.0  0.18271  0.87977  0.7262499999999997  1.0000
  C   C38       1.0  0.11553  0.85051  0.78106  1.0000
  C   C39       1.0  0.00311  0.92726  0.87354  1.0000
  C   C40       1.0  0.94168  0.99613  0.86472  1.0000
  C   C41       1.0  0.77033  0.81987  0.47129  1.0000
  C   C42       1.0  0.77386  0.81707  0.37976  1.0000
  C   C43       1.0  0.71917  0.88431  0.35047  1.0000
  C   C44       1.0  0.6266200000000002  0.99677  0.4272  1.0000
  C   C45       1.0  0.63546  0.05828  0.49603999999999987  1.0000
  C   C46       1.0  0.22964  0.32011  0.02865  1.0000
  C   C47       1.0  0.22625  0.31733  0.12018  1.0000
  C   C48       1.0  0.28094  0.38461  0.14942  1.0000
  C   C49       1.0  0.37332  0.4971  0.07264  1.0000
  C   C50       1.0  0.36458  0.55857  0.00377  1.0000
  C   C51       1.0  0.26998  0.68006  0.52875  1.0000
  C   C52       1.0  0.27373  0.68264  0.6203199999999998  1.0000
  C   C53       1.0  0.21894  0.61539  0.64955  1.0000
  C   C54       1.0  0.12632  0.50303  0.5728  1.0000
  C   C55       1.0  0.13523  0.44146  0.50407  1.0000
  C   C56       1.0  0.73  0.18016  0.97131  1.0000
  C   C57       1.0  0.72625  0.18271  0.87977  1.0000
  C   C58       1.0  0.78107  0.11552  0.85051  1.0000
  C   C59       1.0  0.87354  0.00311  0.9272499999999999  1.0000
  C   C60       1.0  0.86472  0.94168  0.99613  1.0000
  C   C61       1.0  0.52015  0.72128  0.4301  1.0000
  C   C62       1.0  0.52377  0.62973  0.43278  1.0000
  C   C63       1.0  0.46917  0.60044  0.36539  1.0000
  C   C64       1.0  0.3766  0.67722  0.25301  1.0000
  C   C65       1.0  0.38542  0.74608  0.19152  1.0000
  C   C66       1.0  0.97983  0.27871  0.93008  1.0000
  C   C67       1.0  0.9762  0.37026  0.9327399999999999  1.0000
  C   C68       1.0  0.03104  0.39952  0.86558  1.0000
  C   C69       1.0  0.12353000000000003  0.32271  0.75315  1.0000
  C   C70       1.0  0.11472  0.25387  0.69166  1.0000
  C   C71       1.0  0.02009  0.77868  0.56998  1.0000
  C   C72       1.0  0.02371  0.87023  0.56732  1.0000
  C   C73       1.0  0.96895  0.89947  0.6345299999999999  1.0000
  C   C74       1.0  0.87645  0.82273  0.74691  1.0000
  C   C75       1.0  0.8853  0.7539  0.80835  1.0000
  C   C76       1.0  0.47986000000000006  0.22136  0.06985  1.0000
  C   C77       1.0  0.47623000000000004  0.12981  0.06718  1.0000
  C   C78       1.0  0.53095  0.10057  0.13447  1.0000
  C   C79       1.0  0.62347  0.17725  0.24694  1.0000
  C   C80       1.0  0.61462  0.24601  0.30851  1.0000
  C   C81       1.0  0.22136000000000006  0.06985  0.47986  1.0000
  C   C82       1.0  0.12981  0.06719  0.47623  1.0000
  C   C83       1.0  0.10057  0.13447  0.53095  1.0000
  C   C84       1.0  0.17725  0.24694  0.6234699999999997  1.0000
  C   C85       1.0  0.24602  0.30851  0.6146199999999999  1.0000
  C   C86       1.0  0.77868  0.5699799999999999  0.02008  1.0000
  C   C87       1.0  0.87023  0.56732  0.02371  1.0000
  C   C88       1.0  0.8994700000000002  0.63453  0.96895  1.0000
  C   C89       1.0  0.82273  0.74691  0.87645  1.0000
  C   C90       1.0  0.7539  0.80835  0.8852999999999998  1.0000
  C   C91       1.0  0.27871  0.93008  0.97983  1.0000
  C   C92       1.0  0.37026  0.93274  0.9762  1.0000
  C   C93       1.0  0.39952  0.86558  0.031039999999999995  1.0000
  C   C94       1.0  0.32271  0.75315  0.12353  1.0000
  C   C95       1.0  0.25387  0.69166  0.11472  1.0000
  C   C96       1.0  0.72129  0.4301  0.52015  1.0000
  C   C97       1.0  0.62973  0.43278  0.52377  1.0000
  C   C98       1.0  0.60044  0.36539  0.46917  1.0000
  C   C99       1.0  0.67722  0.25301  0.3766  1.0000
  C   C100      1.0  0.74608  0.19152  0.38542  1.0000
  C   C101      1.0  0.56999  0.02009  0.77868  1.0000
  C   C102      1.0  0.56732  0.02371  0.87023  1.0000
  C   C103      1.0  0.63454  0.96895  0.8994699999999998  1.0000
  C   C104      1.0  0.74691  0.87645  0.8227299999999999  1.0000
  C   C105      1.0  0.80836  0.8853  0.7539  1.0000
  C   C106      1.0  0.06985  0.47986  0.22136  1.0000
  C   C107      1.0  0.06719  0.47623  0.12981  1.0000
  C   C108      1.0  0.13447  0.53095  0.10056999999999999  1.0000
  C   C109      1.0  0.24694000000000005  0.62347  0.17725  1.0000
  C   C110      1.0  0.30851  0.61462  0.24600999999999995  1.0000
  C   C111      1.0  0.4301  0.52015  0.72128  1.0000
  C   C112      1.0  0.43278  0.52377  0.62973  1.0000
  C   C113      1.0  0.36539  0.46917  0.60044  1.0000
  C   C114      1.0  0.25301  0.3766  0.67722  1.0000
  C   C115      1.0  0.19152  0.38542  0.74608  1.0000
  C   C116      1.0  0.93008  0.97983  0.2787099999999999  1.0000
  C   C117      1.0  0.93274  0.9762  0.37026  1.0000
  C   C118      1.0  0.86558  0.03104  0.39952  1.0000
  C   C119      1.0  0.75315  0.12353  0.32271  1.0000
  C   C120      1.0  0.69166  0.11472  0.25387  1.0000
  N   N1        1.0  0.49812000000000006  0.71567  0.88495  1.0000
  N   N2        1.0  0.4229  0.68468  0.92494  1.0000
  N   N3        1.0  0.00174  0.28428  0.3852299999999999  1.0000
  N   N4        1.0  0.07695  0.31528  0.4253  1.0000
  N   N5        1.0  0.50188  0.21512  0.61511  1.0000
  N   N6        1.0  0.57706  0.18427  0.57495  1.0000
  N   N7        1.0  0.9982  0.78484  0.11523  1.0000
  N   N8        1.0  0.923  0.81572  0.07511  1.0000
  N   N9        1.0  0.88495  0.49812  0.71567  1.0000
  N   N10       1.0  0.92494  0.4229  0.68468  1.0000
  N   N11       1.0  0.38523  0.00174  0.28428  1.0000
  N   N12       1.0  0.4253  0.07695  0.31528  1.0000
  N   N13       1.0  0.61511  0.50188  0.21511999999999995  1.0000
  N   N14       1.0  0.57495  0.57706  0.18427  1.0000
  N   N15       1.0  0.11523  0.9982  0.7848399999999998  1.0000
  N   N16       1.0  0.07512  0.923  0.81572  1.0000
  N   N17       1.0  0.71567  0.88495  0.49811999999999995  1.0000
  N   N18       1.0  0.6846800000000002  0.92494  0.4229  1.0000
  N   N19       1.0  0.28428  0.38523  0.00174  1.0000
  N   N20       1.0  0.31528  0.4253  0.07695  1.0000
  N   N21       1.0  0.21512  0.61511  0.50188  1.0000
  N   N22       1.0  0.18427  0.57495  0.5770599999999999  1.0000
  N   N23       1.0  0.78484  0.11523  0.9982  1.0000
  N   N24       1.0  0.81572  0.07512  0.923  1.0000
  N   N25       1.0  0.46555  0.74812  0.36494  1.0000
  N   N26       1.0  0.4347  0.67291  0.3248  1.0000
  N   N27       1.0  0.03467  0.25184  0.8651599999999998  1.0000
  N   N28       1.0  0.06562  0.32702  0.82507  1.0000
  N   N29       1.0  0.96536  0.75179  0.6350099999999997  1.0000
  N   N30       1.0  0.9344  0.827  0.67506  1.0000
  N   N31       1.0  0.53468  0.24823  0.13483  1.0000
  N   N32       1.0  0.56554  0.17304  0.17496  1.0000
  N   N33       1.0  0.24823  0.13483  0.53468  1.0000
  N   N34       1.0  0.17304  0.17496  0.5655399999999999  1.0000
  N   N35       1.0  0.75179  0.63501  0.96536  1.0000
  N   N36       1.0  0.827  0.67506  0.9343999999999998  1.0000
  N   N37       1.0  0.25184  0.86516  0.03467  1.0000
  N   N38       1.0  0.32702  0.82507  0.06562  1.0000
  N   N39       1.0  0.74812  0.36494  0.46555  1.0000
  N   N40       1.0  0.67291  0.32481  0.4347  1.0000
  N   N41       1.0  0.63501  0.9653599999999999  0.75179  1.0000
  N   N42       1.0  0.67506  0.9343999999999998  0.8269999999999997  1.0000
  N   N43       1.0  0.13483  0.53468  0.24823  1.0000
  N   N44       1.0  0.17497  0.56554  0.17304  1.0000
  N   N45       1.0  0.36495  0.46555  0.74812  1.0000
  N   N46       1.0  0.32481  0.4347  0.67291  1.0000
  N   N47       1.0  0.86516  0.03467  0.25184  1.0000
  N   N48       1.0  0.82507  0.06562  0.32702  1.0000
