data_image0
_chemical_formula_structural       Cu12H72C120N48O48
_chemical_formula_sum              "Cu12 H72 C120 N48 O48"
_cell_length_a       7.89867
_cell_length_b       25.07643
_cell_length_c       25.07668
_cell_angle_alpha    119.05811999999999
_cell_angle_beta     96.01322
_cell_angle_gamma    96.06613

_symmetry_space_group_name_H-M    'P 1'
_symmetry_Int_Tables_number       1

loop_
  _symmetry_equiv_pos_as_xyz
  'x,y,z'

loop_
  _atom_site_type_symbol
  _atom_site_label
  _atom_site_symmetry_multiplicity
  _atom_site_fract_x
  _atom_site_fract_y
  _atom_site_fract_z
  _atom_site_occupancy
  Cu  Cu1       1.0  0.74991  0.75154  0.004989999999999999  1.0000
  Cu  Cu2       1.0  0.50814  0.7569499999999999  0.25681  1.0000
  Cu  Cu3       1.0  0.0007399999999999954  0.25197  0.24663  1.0000
  Cu  Cu4       1.0  0.74863  0.49986  0.24277  1.0000
  Cu  Cu5       1.0  0.74736  0.99442  0.74795  1.0000
  Cu  Cu6       1.0  0.25108  0.74311  0.50022  1.0000
  Cu  Cu7       1.0  0.25011000000000005  0.24846000000000001  0.99501  1.0000
  Cu  Cu8       1.0  0.4918799999999999  0.24304999999999988  0.7431899999999999  1.0000
  Cu  Cu9       1.0  0.99928  0.74803  0.75337  1.0000
  Cu  Cu10      1.0  0.25138999999999995  0.5001399999999999  0.7572299999999998  1.0000
  Cu  Cu11      1.0  0.25266  0.005579999999999973  0.25204999999999994  1.0000
  Cu  Cu12      1.0  0.7489400000000003  0.25688999999999995  0.49977999999999995  1.0000
  H   H1        1.0  0.07097999999999995  0.7606699999999998  0.07844  1.0000
  H   H2        1.0  0.55633  0.71975  0.09049999999999998  1.0000
  H   H3        1.0  0.9344700000000002  0.7037999999999999  0.20731  1.0000
  H   H4        1.0  0.9346000000000002  0.73822  0.42754  1.0000
  H   H5        1.0  0.45222999999999997  0.7843599999999998  0.4218899999999999  1.0000
  H   H6        1.0  0.08081999999999996  0.8116799999999998  0.31217999999999996  1.0000
  H   H7        1.0  0.23053999999999997  0.8036499999999999  0.00053  1.0000
  H   H8        1.0  0.97251  0.92159  0.1341  1.0000
  H   H9        1.0  0.49854000000000004  0.9323  0.1867  1.0000
  H   H10       1.0  0.005150000000000002  0.57163  0.8237  1.0000
  H   H11       1.0  0.53271  0.58415  0.87585  1.0000
  H   H12       1.0  0.27369000000000004  0.70156  0.00945  1.0000
  H   H13       1.0  0.31260000000000004  0.31732  0.23905999999999997  1.0000
  H   H14       1.0  0.83834  0.3698  0.28004  1.0000
  H   H15       1.0  0.23100000000000012  0.50308  0.29583  1.0000
  H   H16       1.0  0.19646  0.68926  0.26156  1.0000
  H   H17       1.0  0.66734  0.63689  0.21546999999999997  1.0000
  H   H18       1.0  0.26742  0.50002  0.18846  1.0000
  H   H19       1.0  0.43013999999999997  0.19719999999999996  0.19538  1.0000
  H   H20       1.0  0.05369000000000001  0.21419  0.07884  1.0000
  H   H21       1.0  0.5692  0.25578  0.06799  1.0000
  H   H22       1.0  0.42977999999999994  0.2524  0.42854  1.0000
  H   H23       1.0  0.9454  0.29140999999999995  0.4162199999999999  1.0000
  H   H24       1.0  0.57027  0.30707  0.29844  1.0000
  H   H25       1.0  0.99448  0.92142  0.68284  1.0000
  H   H26       1.0  0.4677900000000001  0.9094799999999998  0.6299799999999999  1.0000
  H   H27       1.0  0.7287800000000002  0.79303  0.49641  1.0000
  H   H28       1.0  0.50567  0.57219  0.3111  1.0000
  H   H29       1.0  0.028969999999999965  0.57775  0.36246  1.0000
  H   H30       1.0  0.7688999999999999  0.6882999999999999  0.5001199999999999  1.0000
  H   H31       1.0  0.22892000000000012  0.9992500000000001  0.8029  1.0000
  H   H32       1.0  0.83553  0.86617  0.78725  1.0000
  H   H33       1.0  0.30851  0.81315  0.74515  1.0000
  H   H34       1.0  0.17724999999999996  0.17606999999999992  0.7473199999999998  1.0000
  H   H35       1.0  0.65411  0.12489000000000004  0.70846  1.0000
  H   H36       1.0  0.26328  0.99116  0.69273  1.0000
  H   H37       1.0  0.92904  0.23933000000000007  0.92156  1.0000
  H   H38       1.0  0.4436899999999998  0.28024999999999983  0.9094999999999999  1.0000
  H   H39       1.0  0.06555  0.29619999999999985  0.7926899999999999  1.0000
  H   H40       1.0  0.06541999999999994  0.2617899999999999  0.5724599999999999  1.0000
  H   H41       1.0  0.5477900000000004  0.21564  0.57811  1.0000
  H   H42       1.0  0.9192  0.18832  0.68782  1.0000
  H   H43       1.0  0.76948  0.19634999999999994  0.9994699999999999  1.0000
  H   H44       1.0  0.02750999999999994  0.07840999999999992  0.8658999999999999  1.0000
  H   H45       1.0  0.50148  0.06769999999999995  0.8132999999999999  1.0000
  H   H46       1.0  0.9948700000000003  0.42837  0.1763  1.0000
  H   H47       1.0  0.4673100000000001  0.41585  0.12415  1.0000
  H   H48       1.0  0.7263300000000001  0.2984399999999999  0.9905499999999999  1.0000
  H   H49       1.0  0.68742  0.68268  0.76094  1.0000
  H   H50       1.0  0.16167999999999988  0.6301999999999998  0.7199599999999999  1.0000
  H   H51       1.0  0.7690200000000003  0.49692  0.7041699999999999  1.0000
  H   H52       1.0  0.8035600000000003  0.31074  0.73844  1.0000
  H   H53       1.0  0.3326799999999999  0.3631099999999999  0.7845299999999998  1.0000
  H   H54       1.0  0.7325999999999999  0.49998  0.81154  1.0000
  H   H55       1.0  0.56988  0.8028  0.80462  1.0000
  H   H56       1.0  0.9463300000000002  0.7858099999999999  0.9211599999999999  1.0000
  H   H57       1.0  0.4308200000000001  0.7442199999999999  0.93201  1.0000
  H   H58       1.0  0.5702400000000002  0.7475999999999999  0.57146  1.0000
  H   H59       1.0  0.05462000000000001  0.70859  0.58378  1.0000
  H   H60       1.0  0.42975  0.69293  0.70156  1.0000
  H   H61       1.0  0.005540000000000001  0.07858  0.31716  1.0000
  H   H62       1.0  0.53223  0.09052  0.37002  1.0000
  H   H63       1.0  0.2712399999999999  0.20696999999999993  0.5035899999999999  1.0000
  H   H64       1.0  0.49435  0.42781  0.6889  1.0000
  H   H65       1.0  0.9710500000000001  0.42225  0.63754  1.0000
  H   H66       1.0  0.23112000000000002  0.3117  0.49988  1.0000
  H   H67       1.0  0.7711  0.0007599999999999941  0.1971  1.0000
  H   H68       1.0  0.16449000000000005  0.13383  0.21275  1.0000
  H   H69       1.0  0.69151  0.18685  0.25485  1.0000
  H   H70       1.0  0.82277  0.8239299999999999  0.25268  1.0000
  H   H71       1.0  0.34591000000000005  0.8751099999999999  0.29154  1.0000
  H   H72       1.0  0.73674  0.008840000000000008  0.30727  1.0000
  C   C1        1.0  0.22522000000000003  0.74641  0.17009  1.0000
  C   C2        1.0  0.033309999999999944  0.7372199999999999  0.14889  1.0000
  C   C3        1.0  0.9779700000000001  0.74721  0.10053  1.0000
  C   C4        1.0  0.6925800000000002  0.72223  0.10563  1.0000
  C   C5        1.0  0.90373  0.7158099999999998  0.1715  1.0000
  C   C6        1.0  0.78629  0.7632999999999999  0.34308  1.0000
  C   C7        1.0  0.97743  0.77106  0.3642699999999999  1.0000
  C   C8        1.0  0.02962999999999997  0.75518  0.4085599999999999  1.0000
  C   C9        1.0  0.31648999999999994  0.7826599999999999  0.40691  1.0000
  C   C10       1.0  0.10923  0.79582  0.3451  1.0000
  C   C11       1.0  0.55832  0.84015  0.08009  1.0000
  C   C12       1.0  0.38882999999999984  0.8619099999999995  0.09253  1.0000
  C   C13       1.0  0.23651  0.83961  0.04853  1.0000
  C   C14       1.0  0.09301999999999991  0.9059999999999999  0.12132  1.0000
  C   C15       1.0  0.38307  0.91032  0.15119  1.0000
  C   C16       1.0  0.94417  0.66351  0.93023  1.0000
  C   C17       1.0  0.11468  0.64254  0.91771  1.0000
  C   C18       1.0  0.12082999999999999  0.59412  0.85908  1.0000
  C   C19       1.0  0.4118  0.59941  0.88863  1.0000
  C   C20       1.0  0.2676000000000001  0.66545  0.96152  1.0000
  C   C21       1.0  0.47959  0.42447999999999997  0.25439  1.0000
  C   C22       1.0  0.29731  0.4114499999999999  0.26297  1.0000
  C   C23       1.0  0.23272  0.35282  0.25252  1.0000
  C   C24       1.0  0.97177  0.38253  0.2773  1.0000
  C   C25       1.0  0.18840999999999997  0.45524999999999993  0.2839999999999999  1.0000
  C   C26       1.0  0.02179000000000001  0.57985  0.23674999999999996  1.0000
  C   C27       1.0  0.20546  0.593  0.22896999999999998  1.0000
  C   C28       1.0  0.27419  0.65318  0.2447  1.0000
  C   C29       1.0  0.53322  0.62373  0.21724  1.0000
  C   C30       1.0  0.31206  0.54886  0.20427  1.0000
  C   C31       1.0  0.72092  0.23979  0.15938  1.0000
  C   C32       1.0  0.52992  0.23106  0.13753  1.0000
  C   C33       1.0  0.39964000000000005  0.20942  0.15971  1.0000
  C   C34       1.0  0.18985  0.21676  0.09417  1.0000
  C   C35       1.0  0.4758000000000001  0.24197999999999995  0.08973999999999999  1.0000
  C   C36       1.0  0.27864  0.26552  0.33544  1.0000
  C   C37       1.0  0.46969  0.27489  0.35758  1.0000
  C   C38       1.0  0.52351  0.26509  0.40615  1.0000
  C   C39       1.0  0.8093900000000003  0.28901  0.40089  1.0000
  C   C40       1.0  0.6000399999999999  0.2955899999999999  0.33469999999999994  1.0000
  C   C41       1.0  0.05609000000000006  0.82981  0.5764399999999998  1.0000
  C   C42       1.0  0.8858800000000002  0.85116  0.5885999999999999  1.0000
  C   C43       1.0  0.87916  0.8993399999999999  0.64728  1.0000
  C   C44       1.0  0.58879  0.89433  0.6172499999999999  1.0000
  C   C45       1.0  0.73384  0.8287  0.54445  1.0000
  C   C46       1.0  0.44290999999999997  0.6568999999999999  0.42053  1.0000
  C   C47       1.0  0.61286  0.6358299999999998  0.40723  1.0000
  C   C48       1.0  0.62021  0.59134  0.34692  1.0000
  C   C49       1.0  0.90862  0.59299  0.37590999999999997  1.0000
  C   C50       1.0  0.76392  0.65518  0.45121999999999995  1.0000
  C   C51       1.0  0.47565000000000013  0.91891  0.75922  1.0000
  C   C52       1.0  0.29367  0.90715  0.76888  1.0000
  C   C53       1.0  0.1860400000000001  0.95132  0.79075  1.0000
  C   C54       1.0  0.96894  0.8787899999999997  0.7843699999999998  1.0000
  C   C55       1.0  0.2287099999999999  0.84866  0.7587199999999997  1.0000
  C   C56       1.0  0.012729999999999986  0.06997999999999992  0.73447  1.0000
  C   C57       1.0  0.19467  0.08260000000000003  0.7250499999999999  1.0000
  C   C58       1.0  0.25842  0.14101999999999995  0.73478  1.0000
  C   C59       1.0  0.5205  0.11188  0.71089  1.0000
  C   C60       1.0  0.30442000000000013  0.038999999999999986  0.7043  1.0000
  C   C61       1.0  0.7748000000000003  0.2536  0.82991  1.0000
  C   C62       1.0  0.96671  0.2627799999999999  0.8511099999999998  1.0000
  C   C63       1.0  0.022049999999999945  0.25278999999999996  0.8994699999999999  1.0000
  C   C64       1.0  0.30743999999999994  0.2777799999999999  0.8943699999999998  1.0000
  C   C65       1.0  0.09628999999999995  0.2841999999999999  0.8284999999999999  1.0000
  C   C66       1.0  0.21372999999999998  0.2367  0.65692  1.0000
  C   C67       1.0  0.02258999999999994  0.22893999999999992  0.6357299999999999  1.0000
  C   C68       1.0  0.97039  0.24482  0.59144  1.0000
  C   C69       1.0  0.6835299999999999  0.2173399999999999  0.5930899999999999  1.0000
  C   C70       1.0  0.89079  0.20418000000000006  0.6549  1.0000
  C   C71       1.0  0.4417  0.15985  0.91991  1.0000
  C   C72       1.0  0.6111900000000001  0.13808999999999994  0.9074699999999999  1.0000
  C   C73       1.0  0.7635099999999999  0.1603899999999999  0.9514699999999999  1.0000
  C   C74       1.0  0.907  0.09399999999999996  0.87868  1.0000
  C   C75       1.0  0.61695  0.0896799999999999  0.8488099999999997  1.0000
  C   C76       1.0  0.05585  0.33649  0.06976999999999998  1.0000
  C   C77       1.0  0.88534  0.35747  0.08229  1.0000
  C   C78       1.0  0.87919  0.40589  0.14092  1.0000
  C   C79       1.0  0.58822  0.40059  0.11136999999999998  1.0000
  C   C80       1.0  0.73242  0.33455  0.03848  1.0000
  C   C81       1.0  0.5204299999999998  0.5755199999999999  0.7456099999999999  1.0000
  C   C82       1.0  0.7027099999999997  0.5885499999999999  0.7370299999999999  1.0000
  C   C83       1.0  0.7673  0.64718  0.74748  1.0000
  C   C84       1.0  0.028250000000000056  0.61748  0.7226999999999999  1.0000
  C   C85       1.0  0.8116100000000003  0.5447500000000001  0.71599  1.0000
  C   C86       1.0  0.9782299999999999  0.42014999999999997  0.7632499999999999  1.0000
  C   C87       1.0  0.7945599999999999  0.40700999999999987  0.7710299999999999  1.0000
  C   C88       1.0  0.7258300000000002  0.34682  0.7553  1.0000
  C   C89       1.0  0.4668  0.37628  0.78276  1.0000
  C   C90       1.0  0.6879600000000002  0.45115  0.79573  1.0000
  C   C91       1.0  0.2791  0.76021  0.84062  1.0000
  C   C92       1.0  0.4701000000000001  0.76894  0.86247  1.0000
  C   C93       1.0  0.60038  0.79058  0.8402799999999998  1.0000
  C   C94       1.0  0.8101700000000002  0.7832399999999999  0.90583  1.0000
  C   C95       1.0  0.5242200000000001  0.75802  0.9102599999999997  1.0000
  C   C96       1.0  0.72138  0.73448  0.66456  1.0000
  C   C97       1.0  0.5303300000000001  0.7251099999999999  0.6424199999999999  1.0000
  C   C98       1.0  0.4765100000000001  0.73491  0.59385  1.0000
  C   C99       1.0  0.19063  0.71099  0.59911  1.0000
  C   C100      1.0  0.39997999999999995  0.7044099999999999  0.6653  1.0000
  C   C101      1.0  0.9439300000000003  0.17018999999999998  0.42356  1.0000
  C   C102      1.0  0.11413999999999998  0.14883999999999994  0.4114  1.0000
  C   C103      1.0  0.12086  0.10065999999999997  0.35272  1.0000
  C   C104      1.0  0.4112300000000001  0.10567000000000003  0.38275  1.0000
  C   C105      1.0  0.26618  0.1713  0.45554999999999995  1.0000
  C   C106      1.0  0.55711  0.3431  0.57947  1.0000
  C   C107      1.0  0.3871600000000001  0.36416999999999994  0.59277  1.0000
  C   C108      1.0  0.37981  0.40866  0.65308  1.0000
  C   C109      1.0  0.09139999999999998  0.40700999999999987  0.6240899999999999  1.0000
  C   C110      1.0  0.2361  0.34483  0.54878  1.0000
  C   C111      1.0  0.52437  0.08108999999999998  0.24077999999999997  1.0000
  C   C112      1.0  0.7063500000000003  0.09284999999999997  0.23111999999999996  1.0000
  C   C113      1.0  0.8139800000000003  0.048679999999999994  0.20924999999999996  1.0000
  C   C114      1.0  0.031080000000000007  0.12121  0.21563  1.0000
  C   C115      1.0  0.77131  0.15134  0.24127999999999994  1.0000
  C   C116      1.0  0.9872899999999999  0.9300299999999999  0.26553  1.0000
  C   C117      1.0  0.8053500000000002  0.9173999999999999  0.27494999999999997  1.0000
  C   C118      1.0  0.7416000000000001  0.8589899999999999  0.26522  1.0000
  C   C119      1.0  0.47952  0.88812  0.28911  1.0000
  C   C120      1.0  0.6956  0.961  0.2957  1.0000
  N   N1        1.0  0.8092900000000001  0.7395399999999999  0.07853  1.0000
  N   N2        1.0  0.7341000000000002  0.70891  0.1503  1.0000
  N   N3        1.0  0.19751  0.7612599999999999  0.43039  1.0000
  N   N4        1.0  0.2780300000000001  0.80104  0.36593  1.0000
  N   N5        1.0  0.23693999999999998  0.9325899999999999  0.16583999999999996  1.0000
  N   N6        1.0  0.08903999999999998  0.8614  0.06302  1.0000
  N   N7        1.0  0.2676  0.57244  0.84422  1.0000
  N   N8        1.0  0.41564000000000006  0.64413  0.94689  1.0000
  N   N9        1.0  0.07134000000000001  0.33812  0.25966  1.0000
  N   N10       1.0  0.025919999999999985  0.44070999999999994  0.29079  1.0000
  N   N11       1.0  0.4360900000000001  0.6688  0.23858999999999997  1.0000
  N   N12       1.0  0.4758000000000001  0.5643500000000001  0.19902  1.0000
  N   N13       1.0  0.30731000000000014  0.23487000000000002  0.06782  1.0000
  N   N14       1.0  0.23037000000000005  0.20265  0.13835  1.0000
  N   N15       1.0  0.69196  0.27186  0.42789  1.0000
  N   N16       1.0  0.7692200000000001  0.30243  0.3562  1.0000
  N   N17       1.0  0.73247  0.92118  0.66185  1.0000
  N   N18       1.0  0.58562  0.8499499999999999  0.5589099999999999  1.0000
  N   N19       1.0  0.7660400000000003  0.5695  0.33098  1.0000
  N   N20       1.0  0.91155  0.63411  0.43542999999999993  1.0000
  N   N21       1.0  0.06809999999999997  0.8342399999999999  0.76655  1.0000
  N   N22       1.0  0.02368000000000008  0.93695  0.79792  1.0000
  N   N23       1.0  0.4201200000000001  0.15604000000000004  0.72806  1.0000
  N   N24       1.0  0.4667600000000002  0.05369000000000006  0.69743  1.0000
  N   N25       1.0  0.19072  0.26046  0.92147  1.0000
  N   N26       1.0  0.2659200000000001  0.2910899999999999  0.8497  1.0000
  N   N27       1.0  0.80251  0.23874  0.56961  1.0000
  N   N28       1.0  0.7219900000000002  0.19897  0.63407  1.0000
  N   N29       1.0  0.76308  0.06740999999999987  0.8341599999999998  1.0000
  N   N30       1.0  0.9109800000000002  0.1386  0.93698  1.0000
  N   N31       1.0  0.73242  0.42756  0.15578  1.0000
  N   N32       1.0  0.58438  0.3558700000000001  0.05311  1.0000
  N   N33       1.0  0.92868  0.66189  0.74034  1.0000
  N   N34       1.0  0.9740999999999999  0.5592899999999997  0.7092  1.0000
  N   N35       1.0  0.56393  0.33119999999999994  0.7614099999999999  1.0000
  N   N36       1.0  0.5242200000000001  0.43565999999999994  0.8009799999999999  1.0000
  N   N37       1.0  0.69271  0.76513  0.93218  1.0000
  N   N38       1.0  0.7696500000000002  0.79735  0.86165  1.0000
  N   N39       1.0  0.30805999999999994  0.7281399999999999  0.57211  1.0000
  N   N40       1.0  0.23080000000000006  0.69757  0.6438  1.0000
  N   N41       1.0  0.26754999999999995  0.07881999999999999  0.33814999999999995  1.0000
  N   N42       1.0  0.4144  0.15005  0.44109  1.0000
  N   N43       1.0  0.23398000000000002  0.43050000000000005  0.66902  1.0000
  N   N44       1.0  0.08846999999999998  0.36589  0.56457  1.0000
  N   N45       1.0  0.9319200000000002  0.16576  0.23344  1.0000
  N   N46       1.0  0.97634  0.06304999999999997  0.20208  1.0000
  N   N47       1.0  0.5799  0.84396  0.27194  1.0000
  N   N48       1.0  0.53326  0.9463099999999999  0.30257  1.0000
  O   O1        1.0  0.26627  0.7541  0.22520999999999997  1.0000
  O   O2        1.0  0.32542  0.74569  0.13468  1.0000
  O   O3        1.0  0.74912  0.7614899999999999  0.29049  1.0000
  O   O4        1.0  0.6834700000000001  0.7595099999999999  0.37598999999999994  1.0000
  O   O5        1.0  0.54147  0.78414  0.03357  1.0000
  O   O6        1.0  0.6953099999999999  0.8757499999999999  0.1135  1.0000
  O   O7        1.0  0.95914  0.71964  0.9763399999999999  1.0000
  O   O8        1.0  0.8080500000000003  0.62711  0.89703  1.0000
  O   O9        1.0  0.5091600000000002  0.47102  0.24515  1.0000
  O   O10       1.0  0.58377  0.39149  0.25693  1.0000
  O   O11       1.0  0.98484  0.52915  0.23861999999999994  1.0000
  O   O12       1.0  0.92392  0.6168499999999999  0.24049999999999996  1.0000
  O   O13       1.0  0.75866  0.24815999999999996  0.2149  1.0000
  O   O14       1.0  0.82378  0.23819  0.12445  1.0000
  O   O15       1.0  0.24162999999999996  0.25648999999999994  0.2796199999999999  1.0000
  O   O16       1.0  0.17548000000000002  0.26706  0.37023  1.0000
  O   O17       1.0  0.041120000000000004  0.77455  0.5289  1.0000
  O   O18       1.0  0.19209  0.86512  0.6111  1.0000
  O   O19       1.0  0.45828  0.7099799999999999  0.4709999999999999  1.0000
  O   O20       1.0  0.30727000000000004  0.6234699999999997  0.38396  1.0000
  O   O21       1.0  0.50865  0.96627  0.75145  1.0000
  O   O22       1.0  0.5761  0.88397  0.7595499999999998  1.0000
  O   O23       1.0  0.9839200000000001  0.02331999999999992  0.7435999999999999  1.0000
  O   O24       1.0  0.90862  0.10333999999999993  0.73289  1.0000
  O   O25       1.0  0.7337500000000001  0.24589999999999995  0.7747899999999999  1.0000
  O   O26       1.0  0.6746  0.2543099999999999  0.8653199999999999  1.0000
  O   O27       1.0  0.2509  0.23851000000000003  0.70951  1.0000
  O   O28       1.0  0.31655  0.24049  0.62401  1.0000
  O   O29       1.0  0.45854999999999996  0.21585999999999994  0.9664199999999997  1.0000
  O   O30       1.0  0.30471  0.12424999999999994  0.8864999999999998  1.0000
  O   O31       1.0  0.040880000000000014  0.28036  0.02366  1.0000
  O   O32       1.0  0.19197  0.37289  0.10297  1.0000
  O   O33       1.0  0.4908599999999999  0.5289799999999999  0.7548499999999999  1.0000
  O   O34       1.0  0.4162500000000001  0.60851  0.74307  1.0000
  O   O35       1.0  0.015180000000000006  0.47086  0.76138  1.0000
  O   O36       1.0  0.07609999999999999  0.3831499999999999  0.7595  1.0000
  O   O37       1.0  0.24135999999999996  0.75184  0.7851  1.0000
  O   O38       1.0  0.17623999999999995  0.76181  0.8755499999999999  1.0000
  O   O39       1.0  0.75839  0.74351  0.72038  1.0000
  O   O40       1.0  0.82454  0.73294  0.62977  1.0000
  O   O41       1.0  0.9589000000000002  0.22544999999999998  0.47109999999999996  1.0000
  O   O42       1.0  0.8079200000000003  0.13488  0.3889  1.0000
  O   O43       1.0  0.54174  0.29002  0.529  1.0000
  O   O44       1.0  0.6927500000000002  0.3765299999999999  0.61604  1.0000
  O   O45       1.0  0.4913700000000001  0.03373  0.24855  1.0000
  O   O46       1.0  0.42392000000000013  0.11603  0.24045  1.0000
  O   O47       1.0  0.016099999999999986  0.97668  0.25639999999999996  1.0000
  O   O48       1.0  0.09139999999999995  0.89666  0.26711  1.0000
