data_image0
_chemical_formula_structural       Mn8H64C104N40Cl4O16
_chemical_formula_sum              "Mn8 H64 C104 N40 Cl4 O16"
_cell_length_a       9.96795
_cell_length_b       16.41258
_cell_length_c       24.26975
_cell_angle_alpha    102.45193
_cell_angle_beta     89.97931
_cell_angle_gamma    107.67589

_space_group_name_H-M_alt    "P 1"
_space_group_IT_number       1

loop_
  _space_group_symop_operation_xyz
  'x, y, z'

loop_
  _atom_site_type_symbol
  _atom_site_label
  _atom_site_symmetry_multiplicity
  _atom_site_fract_x
  _atom_site_fract_y
  _atom_site_fract_z
  _atom_site_occupancy
  Mn  Mn1       1.0  0.28628  0.74741  0.59572  1.0000
  Mn  Mn2       1.0  0.25502  0.57259  0.66329  1.0000
  Mn  Mn3       1.0  0.53864  0.2523000000000001  0.9041500000000001  1.0000
  Mn  Mn4       1.0  0.68205  0.42722  0.83697  1.0000
  Mn  Mn5       1.0  0.71296  0.25288  0.4043  1.0000
  Mn  Mn6       1.0  0.74505  0.42746  0.33683  1.0000
  Mn  Mn7       1.0  0.4617700000000001  0.7477400000000002  0.09590000000000001  1.0000
  Mn  Mn8       1.0  0.31793  0.57286  0.16302  1.0000
  H   H1        1.0  0.67238  0.020739999999999988  0.52932  1.0000
  H   H2        1.0  0.95589  0.23415000000000005  0.55741  1.0000
  H   H3        1.0  0.11827  0.58069  0.49452000000000007  1.0000
  H   H4        1.0  0.18234999999999998  0.51872  0.39843000000000006  1.0000
  H   H5        1.0  0.5013699999999999  0.7540299999999999  0.40356  1.0000
  H   H6        1.0  0.7056500000000001  0.11719  0.60613  1.0000
  H   H7        1.0  0.71958  0.2293  0.69148  1.0000
  H   H8        1.0  0.34123  0.06583  0.7446  1.0000
  H   H9        1.0  0.3278800000000001  0.9473700000000002  0.65899  1.0000
  H   H10       1.0  0.15599000000000005  0.64832  0.78522  1.0000
  H   H11       1.0  0.9613299999999999  0.5957100000000002  0.84691  1.0000
  H   H12       1.0  0.79783  0.36328000000000005  0.7251300000000002  1.0000
  H   H13       1.0  0.17577000000000004  0.21926000000000007  0.52242  1.0000
  H   H14       1.0  0.3399  0.21400999999999998  0.44555  1.0000
  H   H15       1.0  0.40838  0.4863100000000002  0.45045  1.0000
  H   H16       1.0  0.23983  0.49285  0.52679  1.0000
  H   H17       1.0  0.6515199999999999  0.97907  0.97046  1.0000
  H   H18       1.0  0.72239  0.76553  0.94263  1.0000
  H   H19       1.0  0.53766  0.41901  0.00513  1.0000
  H   H20       1.0  0.6632800000000002  0.48118  0.10126000000000002  1.0000
  H   H21       1.0  0.74696  0.24593  0.09651  1.0000
  H   H22       1.0  0.58764  0.8827300000000002  0.89406  1.0000
  H   H23       1.0  0.48995  0.77055  0.8087300000000001  1.0000
  H   H24       1.0  0.27529000000000003  0.9339400000000001  0.7554000000000001  1.0000
  H   H25       1.0  0.37958000000000003  0.05238000000000005  0.8411400000000001  1.0000
  H   H26       1.0  0.50737  0.35143  0.7148  1.0000
  H   H27       1.0  0.36592  0.40431  0.65306  1.0000
  H   H28       1.0  0.43470000000000003  0.6366000000000003  0.77499  1.0000
  H   H29       1.0  0.9555099999999999  0.78048  0.97749  1.0000
  H   H30       1.0  0.12506000000000014  0.7868600000000002  0.05448  1.0000
  H   H31       1.0  0.9236  0.51429  0.04994  1.0000
  H   H32       1.0  0.7485  0.50666  0.97353  1.0000
  H   H33       1.0  0.3276800000000002  0.9792900000000002  0.47076  1.0000
  H   H34       1.0  0.044299999999999985  0.76573  0.44274  1.0000
  H   H35       1.0  0.8817299999999999  0.4194  0.50554  1.0000
  H   H36       1.0  0.8177199999999999  0.48120000000000007  0.60168  1.0000
  H   H37       1.0  0.49867  0.24583000000000005  0.5964  1.0000
  H   H38       1.0  0.29435  0.88275  0.39389  1.0000
  H   H39       1.0  0.28035  0.7707  0.30857  1.0000
  H   H40       1.0  0.65867  0.9342000000000001  0.25539  1.0000
  H   H41       1.0  0.67219  0.05259  0.34102  1.0000
  H   H42       1.0  0.84382  0.35178  0.21484  1.0000
  H   H43       1.0  0.038430000000000034  0.4042100000000001  0.15307  1.0000
  H   H44       1.0  0.20198000000000002  0.63667  0.27493  1.0000
  H   H45       1.0  0.8243300000000005  0.7808400000000003  0.47748000000000007  1.0000
  H   H46       1.0  0.66018  0.78612  0.55438  1.0000
  H   H47       1.0  0.59182  0.51389  0.54967  1.0000
  H   H48       1.0  0.76017  0.50716  0.47324000000000005  1.0000
  H   H49       1.0  0.34857  0.02096  0.029540000000000004  1.0000
  H   H50       1.0  0.27783  0.23452000000000006  0.05731  1.0000
  H   H51       1.0  0.4620900000000001  0.5809300000000002  0.9948200000000001  1.0000
  H   H52       1.0  0.33633  0.51877  0.89867  1.0000
  H   H53       1.0  0.25300000000000017  0.7542200000000002  0.90359  1.0000
  H   H54       1.0  0.4122  0.11734000000000003  0.106  1.0000
  H   H55       1.0  0.50995  0.22946000000000003  0.19137000000000004  1.0000
  H   H56       1.0  0.72467  0.06603  0.24463  1.0000
  H   H57       1.0  0.62025  0.94757  0.15885  1.0000
  H   H58       1.0  0.4925800000000001  0.64854  0.28518  1.0000
  H   H59       1.0  0.63417  0.59578  0.34693  1.0000
  H   H60       1.0  0.56548  0.36345  0.22501  1.0000
  H   H61       1.0  0.04426000000000003  0.21942000000000006  0.02254  1.0000
  H   H62       1.0  0.87484  0.21292000000000003  0.9454500000000001  1.0000
  H   H63       1.0  0.07617  0.48548  0.95001  1.0000
  H   H64       1.0  0.25112  0.49317  0.02646  1.0000
  C   C1        1.0  0.20374000000000006  0.61918  0.47391000000000005  1.0000
  C   C2        1.0  0.24080000000000007  0.5853300000000002  0.42088  1.0000
  C   C3        1.0  0.4154  0.7139  0.42326  1.0000
  C   C4        1.0  0.37972  0.75009  0.47682  1.0000
  C   C5        1.0  0.45293000000000005  0.8385500000000001  0.50775  1.0000
  C   C6        1.0  0.5064300000000002  0.9548900000000001  0.57548  1.0000
  C   C7        1.0  0.51439  0.02307  0.62578  1.0000
  C   C8        1.0  0.62413  0.10383  0.63577  1.0000
  C   C9        1.0  0.63264  0.16837  0.68441  1.0000
  C   C10       1.0  0.5314  0.15422  0.72452  1.0000
  C   C11       1.0  0.42014  0.07507  0.71377  1.0000
  C   C12       1.0  0.41136  0.009820000000000027  0.66542  1.0000
  C   C13       1.0  0.54493  0.2206  0.77908  1.0000
  C   C14       1.0  0.07593999999999998  0.58461  0.7718900000000002  1.0000
  C   C15       1.0  0.96774  0.5559500000000003  0.80555  1.0000
  C   C16       1.0  0.8789500000000002  0.42645000000000016  0.7386800000000001  1.0000
  C   C17       1.0  0.99094  0.4533600000000001  0.70591  1.0000
  C   C18       1.0  0.012080000000000007  0.39768  0.65367  1.0000
  C   C19       1.0  0.10803000000000004  0.3616100000000001  0.57674  1.0000
  C   C20       1.0  0.19722  0.35697  0.52955  1.0000
  C   C21       1.0  0.22270999999999996  0.27728  0.50576  1.0000
  C   C22       1.0  0.31573  0.2740900000000001  0.46342  1.0000
  C   C23       1.0  0.38576  0.35012  0.44453  1.0000
  C   C24       1.0  0.35525  0.42841  0.46628  1.0000
  C   C25       1.0  0.26177  0.43207  0.5087  1.0000
  C   C26       1.0  0.50242  0.34757  0.40628  1.0000
  C   C27       1.0  0.58471  0.38066  0.025830000000000002  1.0000
  C   C28       1.0  0.65533  0.41457  0.07889  1.0000
  C   C29       1.0  0.70143  0.28606  0.07668  1.0000
  C   C30       1.0  0.6300300000000001  0.24987  0.02305  1.0000
  C   C31       1.0  0.6147699999999999  0.16139999999999993  0.99215  1.0000
  C   C32       1.0  0.55141  0.04503000000000002  0.92447  1.0000
  C   C33       1.0  0.49096  0.97688  0.87423  1.0000
  C   C34       1.0  0.51992  0.89613  0.8643100000000002  1.0000
  C   C35       1.0  0.46408999999999995  0.8315200000000001  0.8157200000000001  1.0000
  C   C36       1.0  0.37733  0.84571  0.7755400000000001  1.0000
  C   C37       1.0  0.34496000000000016  0.9247800000000004  0.7862400000000002  1.0000
  C   C38       1.0  0.4011100000000001  0.9900600000000002  0.8346  1.0000
  C   C39       1.0  0.3252200000000001  0.7795200000000002  0.72093  1.0000
  C   C40       1.0  0.49103  0.41512  0.72817  1.0000
  C   C41       1.0  0.41169000000000006  0.4438800000000001  0.69451  1.0000
  C   C42       1.0  0.45245  0.5733400000000001  0.7615000000000001  1.0000
  C   C43       1.0  0.53744  0.54635  0.7942300000000001  1.0000
  C   C44       1.0  0.61434  0.60193  0.84647  1.0000
  C   C45       1.0  0.7463900000000002  0.6378700000000003  0.9233500000000002  1.0000
  C   C46       1.0  0.8403899999999999  0.64266  0.97051  1.0000
  C   C47       1.0  0.9449300000000002  0.72265  0.99429  1.0000
  C   C48       1.0  0.04133999999999997  0.72645  0.0367  1.0000
  C   C49       1.0  0.03629000000000004  0.65052  0.05554  1.0000
  C   C50       1.0  0.92777  0.5720200000000002  0.03401  1.0000
  C   C51       1.0  0.8304100000000002  0.5678100000000003  0.9915600000000001  1.0000
  C   C52       1.0  0.15659000000000015  0.6528400000000002  0.09306000000000003  1.0000
  C   C53       1.0  0.79608  0.3809300000000001  0.52608  1.0000
  C   C54       1.0  0.75914  0.41466  0.57916  1.0000
  C   C55       1.0  0.58452  0.28607  0.5767  1.0000
  C   C56       1.0  0.62007  0.24999  0.52309  1.0000
  C   C57       1.0  0.5470200000000001  0.16150000000000006  0.49217  1.0000
  C   C58       1.0  0.49348  0.04512000000000005  0.42449000000000003  1.0000
  C   C59       1.0  0.48552  0.97693  0.37421000000000004  1.0000
  C   C60       1.0  0.37584000000000006  0.89614  0.36424  1.0000
  C   C61       1.0  0.36733000000000005  0.8316200000000002  0.3156  1.0000
  C   C62       1.0  0.4686400000000001  0.8457700000000001  0.27549  1.0000
  C   C63       1.0  0.5798100000000002  0.9249500000000003  0.28624  1.0000
  C   C64       1.0  0.58864  0.9901800000000002  0.3346  1.0000
  C   C65       1.0  0.4554  0.77932  0.22098  1.0000
  C   C66       1.0  0.92396  0.41543  0.22814000000000004  1.0000
  C   C67       1.0  0.032170000000000004  0.44399  0.19445  1.0000
  C   C68       1.0  0.12092000000000008  0.5734900000000003  0.26134  1.0000
  C   C69       1.0  0.008969999999999995  0.54663  0.29412  1.0000
  C   C70       1.0  0.9878900000000003  0.6023400000000002  0.34634  1.0000
  C   C71       1.0  0.8919499999999999  0.63843  0.42324  1.0000
  C   C72       1.0  0.80271  0.64306  0.4704  1.0000
  C   C73       1.0  0.77746  0.72284  0.49418  1.0000
  C   C74       1.0  0.6845  0.72608  0.53654  1.0000
  C   C75       1.0  0.61428  0.65012  0.55545  1.0000
  C   C76       1.0  0.64491  0.57178  0.53381  1.0000
  C   C77       1.0  0.7383100000000001  0.56801  0.49134  1.0000
  C   C78       1.0  0.49761000000000016  0.6528200000000002  0.59376  1.0000
  C   C79       1.0  0.41516999999999993  0.6193  0.9741  1.0000
  C   C80       1.0  0.34444  0.58542  0.9210400000000001  1.0000
  C   C81       1.0  0.29852000000000006  0.7140100000000003  0.9233500000000002  1.0000
  C   C82       1.0  0.3700900000000001  0.7501600000000003  0.97695  1.0000
  C   C83       1.0  0.38537000000000005  0.8386200000000003  0.0079  1.0000
  C   C84       1.0  0.44881  0.95505  0.07551  1.0000
  C   C85       1.0  0.5091  0.023190000000000006  0.12579  1.0000
  C   C86       1.0  0.4799900000000001  0.10391000000000003  0.13572  1.0000
  C   C87       1.0  0.53591  0.16852000000000006  0.18431  1.0000
  C   C88       1.0  0.62263  0.15434  0.2245  1.0000
  C   C89       1.0  0.65509  0.07527  0.21378  1.0000
  C   C90       1.0  0.59883  0.009959999999999998  0.16544  1.0000
  C   C91       1.0  0.6744200000000001  0.22044000000000005  0.27919  1.0000
  C   C92       1.0  0.50886  0.5848300000000002  0.27185  1.0000
  C   C93       1.0  0.5882600000000001  0.5561100000000002  0.30551  1.0000
  C   C94       1.0  0.54757  0.42666  0.23853  1.0000
  C   C95       1.0  0.46253  0.4536100000000001  0.20579000000000003  1.0000
  C   C96       1.0  0.38567  0.3980500000000001  0.15353  1.0000
  C   C97       1.0  0.25351  0.36207  0.07666000000000002  1.0000
  C   C98       1.0  0.15943  0.3572  0.029500000000000002  1.0000
  C   C99       1.0  0.05487  0.27723  0.005730000000000001  1.0000
  C   C100      1.0  0.9585200000000001  0.27333999999999997  0.96325  1.0000
  C   C101      1.0  0.9636699999999999  0.3492200000000001  0.9443300000000001  1.0000
  C   C102      1.0  0.07200000000000009  0.42775000000000024  0.96593  1.0000
  C   C103      1.0  0.1693  0.43201  0.00842  1.0000
  C   C104      1.0  0.84362  0.34691  0.90671  1.0000
  N   N1        1.0  0.27283  0.70218  0.50376  1.0000
  N   N2        1.0  0.34876  0.63198  0.39457  1.0000
  N   N3        1.0  0.41334000000000004  0.8731  0.56017  1.0000
  N   N4        1.0  0.5643300000000001  0.8936300000000001  0.48978  1.0000
  N   N5        1.0  0.59626  0.96542  0.53326  1.0000
  N   N6        1.0  0.09002999999999999  0.53482  0.72119  1.0000
  N   N7        1.0  0.8649  0.47687  0.7888400000000001  1.0000
  N   N8        1.0  0.11830000000000006  0.4296800000000001  0.62031  1.0000
  N   N9        1.0  0.93648  0.31337  0.63353  1.0000
  N   N10       1.0  0.99963  0.29238  0.58524  1.0000
  N   N11       1.0  0.5712000000000002  0.29771000000000003  0.9960200000000001  1.0000
  N   N12       1.0  0.71648  0.36799  0.10531  1.0000
  N   N13       1.0  0.54036  0.12687  0.9398  1.0000
  N   N14       1.0  0.67119  0.10631  0.010020000000000001  1.0000
  N   N15       1.0  0.63094  0.03448000000000001  0.96658  1.0000
  N   N16       1.0  0.5547  0.4648100000000001  0.77891  1.0000
  N   N17       1.0  0.38782  0.52288  0.7114  1.0000
  N   N18       1.0  0.68835  0.56981  0.8798  1.0000
  N   N19       1.0  0.62337  0.68629  0.8665900000000001  1.0000
  N   N20       1.0  0.70727  0.70712  0.91488  1.0000
  N   N21       1.0  0.7268100000000001  0.2980100000000001  0.49616  1.0000
  N   N22       1.0  0.65113  0.36797  0.60542  1.0000
  N   N23       1.0  0.58652  0.12693  0.43974  1.0000
  N   N24       1.0  0.43588000000000005  0.10637000000000003  0.51024  1.0000
  N   N25       1.0  0.40391999999999995  0.034529999999999984  0.46679  1.0000
  N   N26       1.0  0.90992  0.46517  0.27887  1.0000
  N   N27       1.0  0.13503000000000007  0.52309  0.21117  1.0000
  N   N28       1.0  0.88168  0.57034  0.3796900000000001  1.0000
  N   N29       1.0  0.06362000000000002  0.6866300000000001  0.3665  1.0000
  N   N30       1.0  0.00046000000000000094  0.70757  0.41479000000000005  1.0000
  N   N31       1.0  0.42896  0.70228  0.0039  1.0000
  N   N32       1.0  0.2834  0.63209  0.89467  1.0000
  N   N33       1.0  0.45974000000000004  0.8731700000000002  0.06025000000000001  1.0000
  N   N34       1.0  0.32892  0.89368  0.99  1.0000
  N   N35       1.0  0.36907  0.96552  0.03344  1.0000
  N   N36       1.0  0.4452  0.53514  0.22111  1.0000
  N   N37       1.0  0.61214  0.47712  0.28864  1.0000
  N   N38       1.0  0.31154  0.43013  0.12022000000000001  1.0000
  N   N39       1.0  0.37677  0.31371  0.13338  1.0000
  N   N40       1.0  0.29263  0.29279  0.08513  1.0000
  Cl  Cl1       1.0  0.08949  0.61983  0.6021  1.0000
  Cl  Cl2       1.0  0.46919  0.38005000000000005  0.89835  1.0000
  Cl  Cl3       1.0  0.9099099999999999  0.37989  0.39799000000000007  1.0000
  Cl  Cl4       1.0  0.53101  0.62009  0.10172  1.0000
  O   O1        1.0  0.47587999999999997  0.19327000000000003  0.81972  1.0000
  O   O2        1.0  0.62518  0.2982  0.78112  1.0000
  O   O3        1.0  0.5268  0.27353  0.39194  1.0000
  O   O4        1.0  0.57417  0.41749  0.39243  1.0000
  O   O5        1.0  0.2855600000000001  0.8074600000000002  0.6801900000000001  1.0000
  O   O6        1.0  0.32644  0.70172  0.71899  1.0000
  O   O7        1.0  0.2541500000000001  0.7271200000000002  0.10801  1.0000
  O   O8        1.0  0.16014000000000006  0.58229  0.10556000000000001  1.0000
  O   O9        1.0  0.52506  0.80641  0.18039000000000002  1.0000
  O   O10       1.0  0.3745700000000002  0.7018300000000002  0.2189  1.0000
  O   O11       1.0  0.4731000000000002  0.7268200000000002  0.60812  1.0000
  O   O12       1.0  0.4259800000000002  0.5829000000000002  0.60764  1.0000
  O   O13       1.0  0.71382  0.19234  0.31989  1.0000
  O   O14       1.0  0.67348  0.29833  0.2812  1.0000
  O   O15       1.0  0.74597  0.27265  0.89184  1.0000
  O   O16       1.0  0.84013  0.41749  0.8942500000000001  1.0000
