data_image0
_chemical_formula_structural       Cu8H84C88N20O40
_chemical_formula_sum              "Cu8 H84 C88 N20 O40"
_cell_length_a       16.3493
_cell_length_b       16.37572
_cell_length_c       18.73201
_cell_angle_alpha    100.68302
_cell_angle_beta     100.80772
_cell_angle_gamma    91.26825999999998

_space_group_name_H-M_alt    "P 1"
_space_group_IT_number       1

loop_
  _space_group_symop_operation_xyz
  'x, y, z'

loop_
  _atom_site_type_symbol
  _atom_site_label
  _atom_site_symmetry_multiplicity
  _atom_site_fract_x
  _atom_site_fract_y
  _atom_site_fract_z
  _atom_site_occupancy
  Cu  Cu1       1.0  0.12733999999999995  0.57142  0.4404  1.0000
  Cu  Cu2       1.0  0.97538  0.5838  0.53772  1.0000
  Cu  Cu3       1.0  0.4279  0.87264  0.05972000000000001  1.0000
  Cu  Cu4       1.0  0.41611  0.024779999999999986  0.96242  1.0000
  Cu  Cu5       1.0  0.87266  0.42858000000000007  0.5596000000000001  1.0000
  Cu  Cu6       1.0  0.024610000000000003  0.41619  0.46228  1.0000
  Cu  Cu7       1.0  0.5720899999999998  0.12736  0.94028  1.0000
  Cu  Cu8       1.0  0.58388  0.97521  0.03757  1.0000
  H   H1        1.0  0.87071  0.46922  0.44279  1.0000
  H   H2        1.0  0.9313  0.63372  0.23489000000000002  1.0000
  H   H3        1.0  0.9394699999999998  0.52369  0.22626  1.0000
  H   H4        1.0  0.84845  0.63406  0.33525  1.0000
  H   H5        1.0  0.8526999999999999  0.52402  0.32404  1.0000
  H   H6        1.0  0.73669  0.35094  0.0578  1.0000
  H   H7        1.0  0.6418399999999997  0.39162  0.01911  1.0000
  H   H8        1.0  0.5841699999999997  0.37844  0.13269  1.0000
  H   H9        1.0  0.67734  0.33571  0.16970000000000002  1.0000
  H   H10       1.0  0.65156  0.72461  0.18443000000000004  1.0000
  H   H11       1.0  0.57876  0.66009  0.11204  1.0000
  H   H12       1.0  0.65297  0.69933  0.01762  1.0000
  H   H13       1.0  0.73046  0.75927  0.08787  1.0000
  H   H14       1.0  0.07335999999999998  0.70049  0.34539  1.0000
  H   H15       1.0  0.13501  0.77106  0.25898  1.0000
  H   H16       1.0  0.35579  0.63487  0.30808  1.0000
  H   H17       1.0  0.28278  0.56775  0.39015000000000005  1.0000
  H   H18       1.0  0.06396  0.74194  0.53819  1.0000
  H   H19       1.0  0.16253999999999993  0.84801  0.63022  1.0000
  H   H20       1.0  0.13156  0.70465  0.7967  1.0000
  H   H21       1.0  0.03384000000000004  0.60693  0.6985300000000001  1.0000
  H   H22       1.0  0.5305  0.12879  0.056150000000000005  1.0000
  H   H23       1.0  0.36672  0.06844  0.26457  1.0000
  H   H24       1.0  0.47691  0.0607  0.27348  1.0000
  H   H25       1.0  0.36620999999999987  0.15154  0.1644  1.0000
  H   H26       1.0  0.47643999999999986  0.14691  0.17516  1.0000
  H   H27       1.0  0.64964  0.26277  0.44325  1.0000
  H   H28       1.0  0.6086  0.3575  0.48129000000000005  1.0000
  H   H29       1.0  0.6213  0.41468999999999995  0.36762  1.0000
  H   H30       1.0  0.6635999999999997  0.32171  0.33039  1.0000
  H   H31       1.0  0.27572  0.34837999999999997  0.31459  1.0000
  H   H32       1.0  0.34064  0.4205  0.38733  1.0000
  H   H33       1.0  0.3004299999999999  0.34707  0.48136  1.0000
  H   H34       1.0  0.24052  0.26942  0.41132  1.0000
  H   H35       1.0  0.2993999999999999  0.92636  0.15461  1.0000
  H   H36       1.0  0.22897  0.86481  0.2412  1.0000
  H   H37       1.0  0.36518  0.6444  0.19219  1.0000
  H   H38       1.0  0.4322499999999999  0.71738  0.11005  1.0000
  H   H39       1.0  0.25768999999999986  0.93648  0.96177  1.0000
  H   H40       1.0  0.15191  0.8374999999999999  0.8697  1.0000
  H   H41       1.0  0.29582  0.8686500000000003  0.70364  1.0000
  H   H42       1.0  0.39326  0.96668  0.80182  1.0000
  H   H43       1.0  0.12929  0.53078  0.55721  1.0000
  H   H44       1.0  0.06869000000000003  0.36627  0.7651100000000001  1.0000
  H   H45       1.0  0.06052999999999997  0.4763  0.77373  1.0000
  H   H46       1.0  0.15155  0.36593  0.66475  1.0000
  H   H47       1.0  0.1473  0.47597  0.67595  1.0000
  H   H48       1.0  0.2633099999999998  0.64905  0.9422  1.0000
  H   H49       1.0  0.35815999999999987  0.60837  0.98089  1.0000
  H   H50       1.0  0.4158199999999999  0.62155  0.86731  1.0000
  H   H51       1.0  0.32266  0.66428  0.8303  1.0000
  H   H52       1.0  0.3484299999999999  0.27538  0.81557  1.0000
  H   H53       1.0  0.42123  0.3399  0.88795  1.0000
  H   H54       1.0  0.34702  0.30066  0.98238  1.0000
  H   H55       1.0  0.2695299999999999  0.24072  0.9121300000000001  1.0000
  H   H56       1.0  0.9266299999999997  0.2995  0.6546  1.0000
  H   H57       1.0  0.86499  0.22893  0.74102  1.0000
  H   H58       1.0  0.6441999999999999  0.36512000000000006  0.6919200000000001  1.0000
  H   H59       1.0  0.7172099999999999  0.4322500000000001  0.60985  1.0000
  H   H60       1.0  0.93603  0.25805  0.46181  1.0000
  H   H61       1.0  0.83745  0.15198  0.36977000000000004  1.0000
  H   H62       1.0  0.8684299999999998  0.29534000000000005  0.2033  1.0000
  H   H63       1.0  0.9661499999999997  0.3930600000000001  0.30146  1.0000
  H   H64       1.0  0.46949  0.8712  0.9438500000000001  1.0000
  H   H65       1.0  0.63328  0.9315500000000001  0.73543  1.0000
  H   H66       1.0  0.52308  0.9393  0.72652  1.0000
  H   H67       1.0  0.63378  0.8484500000000001  0.8356000000000001  1.0000
  H   H68       1.0  0.52355  0.8530799999999998  0.82484  1.0000
  H   H69       1.0  0.35035  0.73722  0.55674  1.0000
  H   H70       1.0  0.39139  0.64249  0.5187  1.0000
  H   H71       1.0  0.37869  0.5853  0.63238  1.0000
  H   H72       1.0  0.3363899999999999  0.67828  0.66961  1.0000
  H   H73       1.0  0.7242699999999997  0.65161  0.68541  1.0000
  H   H74       1.0  0.65935  0.57949  0.61267  1.0000
  H   H75       1.0  0.69956  0.65293  0.51863  1.0000
  H   H76       1.0  0.75948  0.7305700000000002  0.58868  1.0000
  H   H77       1.0  0.70059  0.07363000000000006  0.8453900000000002  1.0000
  H   H78       1.0  0.7710299999999998  0.13519  0.7588  1.0000
  H   H79       1.0  0.6348199999999999  0.3555900000000001  0.8078100000000003  1.0000
  H   H80       1.0  0.56774  0.28261  0.88995  1.0000
  H   H81       1.0  0.7422999999999997  0.06351  0.03822  1.0000
  H   H82       1.0  0.84808  0.16249  0.13029  1.0000
  H   H83       1.0  0.70417  0.13134  0.29636  1.0000
  H   H84       1.0  0.60673  0.03331  0.19818  1.0000
  C   C1        1.0  0.77505  0.63142  0.17986  1.0000
  C   C2        1.0  0.66281  0.53557  0.0977  1.0000
  C   C3        1.0  0.7940499999999998  0.48001  0.15421  1.0000
  C   C4        1.0  0.90137  0.57575  0.24127  1.0000
  C   C5        1.0  0.8864199999999998  0.5816099999999998  0.32047  1.0000
  C   C6        1.0  0.9680900000000001  0.59245  0.37644  1.0000
  C   C7        1.0  0.6832  0.38546000000000014  0.07067  1.0000
  C   C8        1.0  0.636  0.34181  0.11755  1.0000
  C   C9        1.0  0.59989  0.25498  0.07759  1.0000
  C   C10       1.0  0.64309  0.68597  0.12898  1.0000
  C   C11       1.0  0.6645  0.73739  0.0739  1.0000
  C   C12       1.0  0.6104399999999998  0.81218  0.07218  1.0000
  C   C13       1.0  0.13546  0.68754  0.33471  1.0000
  C   C14       1.0  0.17081  0.72715  0.28722  1.0000
  C   C15       1.0  0.2513  0.70874  0.27531  1.0000
  C   C16       1.0  0.29264  0.65055  0.31342  1.0000
  C   C17       1.0  0.25334  0.61357  0.3600400000000001  1.0000
  C   C18       1.0  0.08070999999999998  0.73772  0.59637  1.0000
  C   C19       1.0  0.13559  0.79555  0.6478  1.0000
  C   C20       1.0  0.15487  0.7860900000000001  0.722  1.0000
  C   C21       1.0  0.11693999999999999  0.71757  0.74097  1.0000
  C   C22       1.0  0.06297000000000001  0.6619899999999999  0.68647  1.0000
  C   C23       1.0  0.36856  0.22455  0.31948  1.0000
  C   C24       1.0  0.46442  0.33591000000000004  0.40310000000000007  1.0000
  C   C25       1.0  0.52022  0.20546999999999999  0.34637  1.0000
  C   C26       1.0  0.42472  0.09872000000000002  0.25850000000000006  1.0000
  C   C27       1.0  0.4187799999999999  0.11364000000000002  0.17933000000000002  1.0000
  C   C28       1.0  0.40736  0.03171  0.12408  1.0000
  C   C29       1.0  0.6148699999999998  0.31597000000000003  0.43  1.0000
  C   C30       1.0  0.65808  0.3629  0.38263  1.0000
  C   C31       1.0  0.7450599999999997  0.39942  0.42202  1.0000
  C   C32       1.0  0.31423  0.35645999999999994  0.37016  1.0000
  C   C33       1.0  0.2623799999999999  0.33528  0.42499  1.0000
  C   C34       1.0  0.18759  0.38944  0.42634  1.0000
  C   C35       1.0  0.31228  0.8643299999999999  0.16532  1.0000
  C   C36       1.0  0.27278  0.82903  0.2129  1.0000
  C   C37       1.0  0.2911999999999999  0.74864  0.22483000000000003  1.0000
  C   C38       1.0  0.3494099999999999  0.70742  0.18676  1.0000
  C   C39       1.0  0.38634  0.74667  0.14007  1.0000
  C   C40       1.0  0.26207  0.91967  0.90365  1.0000
  C   C41       1.0  0.20439999999999994  0.86462  0.85222  1.0000
  C   C42       1.0  0.21406  0.84535  0.77811  1.0000
  C   C43       1.0  0.28268000000000004  0.88333  0.7592500000000001  1.0000
  C   C44       1.0  0.33811  0.93747  0.81374  1.0000
  C   C45       1.0  0.22493999999999997  0.36857000000000006  0.82014  1.0000
  C   C46       1.0  0.33718  0.46443  0.90229  1.0000
  C   C47       1.0  0.20594  0.51998  0.84578  1.0000
  C   C48       1.0  0.09862999999999997  0.42424  0.75872  1.0000
  C   C49       1.0  0.11357999999999996  0.41838999999999993  0.67953  1.0000
  C   C50       1.0  0.03190999999999997  0.40755  0.62356  1.0000
  C   C51       1.0  0.31679  0.61453  0.92933  1.0000
  C   C52       1.0  0.36399  0.65819  0.88245  1.0000
  C   C53       1.0  0.4000999999999999  0.74501  0.9224100000000001  1.0000
  C   C54       1.0  0.3569  0.31402  0.8710200000000002  1.0000
  C   C55       1.0  0.3354899999999999  0.2626  0.9261000000000001  1.0000
  C   C56       1.0  0.38955  0.18781  0.92781  1.0000
  C   C57       1.0  0.8645299999999998  0.31245  0.66528  1.0000
  C   C58       1.0  0.82919  0.27285  0.71277  1.0000
  C   C59       1.0  0.74869  0.29125  0.72468  1.0000
  C   C60       1.0  0.70735  0.34944000000000003  0.68658  1.0000
  C   C61       1.0  0.7466499999999998  0.38643  0.63996  1.0000
  C   C62       1.0  0.9192799999999998  0.26227  0.40362  1.0000
  C   C63       1.0  0.8643999999999997  0.20444  0.3522  1.0000
  C   C64       1.0  0.84512  0.21391  0.27799000000000007  1.0000
  C   C65       1.0  0.88305  0.28243  0.25903  1.0000
  C   C66       1.0  0.93702  0.33801  0.31352  1.0000
  C   C67       1.0  0.6314299999999998  0.77544  0.68052  1.0000
  C   C68       1.0  0.5355699999999998  0.66408  0.59689  1.0000
  C   C69       1.0  0.47977000000000003  0.7945200000000001  0.65363  1.0000
  C   C70       1.0  0.57528  0.90127  0.7415  1.0000
  C   C71       1.0  0.5812099999999998  0.88635  0.82067  1.0000
  C   C72       1.0  0.59263  0.96828  0.87592  1.0000
  C   C73       1.0  0.38513000000000003  0.6840300000000001  0.5700000000000001  1.0000
  C   C74       1.0  0.34190999999999994  0.63709  0.6173700000000001  1.0000
  C   C75       1.0  0.2549299999999999  0.6005700000000003  0.57797  1.0000
  C   C76       1.0  0.68576  0.64353  0.6298400000000001  1.0000
  C   C77       1.0  0.73761  0.66471  0.57501  1.0000
  C   C78       1.0  0.8124099999999997  0.61055  0.57365  1.0000
  C   C79       1.0  0.6877099999999998  0.13567000000000007  0.8346800000000001  1.0000
  C   C80       1.0  0.72722  0.17096  0.7871  1.0000
  C   C81       1.0  0.7087999999999999  0.25135000000000013  0.7751700000000002  1.0000
  C   C82       1.0  0.65058  0.29257  0.81324  1.0000
  C   C83       1.0  0.61365  0.25332  0.85993  1.0000
  C   C84       1.0  0.73793  0.08032  0.09634  1.0000
  C   C85       1.0  0.7956  0.13537  0.14778  1.0000
  C   C86       1.0  0.7859399999999999  0.15464  0.22188000000000002  1.0000
  C   C87       1.0  0.7173099999999999  0.11666  0.24075  1.0000
  C   C88       1.0  0.66188  0.06252  0.18626  1.0000
  N   N1        1.0  0.8217199999999998  0.56187  0.18747  1.0000
  N   N2        1.0  0.7150899999999998  0.47046  0.10876000000000002  1.0000
  N   N3        1.0  0.6961299999999998  0.61481  0.13468000000000002  1.0000
  N   N4        1.0  0.17584999999999998  0.63149  0.37039  1.0000
  N   N5        1.0  0.04520999999999999  0.67193  0.61545  1.0000
  N   N6        1.0  0.4383199999999999  0.17796  0.31244000000000005  1.0000
  N   N7        1.0  0.52971  0.28401  0.3920000000000001  1.0000
  N   N8        1.0  0.38524  0.30316  0.36488  1.0000
  N   N9        1.0  0.36826  0.824  0.12961  1.0000
  N   N10       1.0  0.32788  0.95533  0.88465  1.0000
  N   N11       1.0  0.17827000000000004  0.43812000000000006  0.8125200000000001  1.0000
  N   N12       1.0  0.2848999999999999  0.52954  0.89124  1.0000
  N   N13       1.0  0.30386  0.38518  0.86532  1.0000
  N   N14       1.0  0.8241499999999999  0.36850000000000005  0.6296100000000001  1.0000
  N   N15       1.0  0.95479  0.32806  0.38455  1.0000
  N   N16       1.0  0.56167  0.82203  0.68756  1.0000
  N   N17       1.0  0.47028  0.71598  0.608  1.0000
  N   N18       1.0  0.61475  0.69683  0.63511  1.0000
  N   N19       1.0  0.6317299999999998  0.17599  0.87038  1.0000
  N   N20       1.0  0.6721099999999998  0.04467000000000001  0.11535000000000001  1.0000
  O   O1        1.0  0.8015699999999998  0.7021700000000001  0.21111  1.0000
  O   O2        1.0  0.59303  0.5236  0.05853  1.0000
  O   O3        1.0  0.8367599999999997  0.42067000000000004  0.16370000000000004  1.0000
  O   O4        1.0  0.022990000000000003  0.53893  0.36245  1.0000
  O   O5        1.0  0.98013  0.65083  0.43225  1.0000
  O   O6        1.0  0.624  0.22655  0.01652  1.0000
  O   O7        1.0  0.55035  0.21752  0.10649000000000002  1.0000
  O   O8        1.0  0.54281  0.80955  0.09496  1.0000
  O   O9        1.0  0.63983  0.87217  0.04706  1.0000
  O   O10       1.0  0.9225  0.47339  0.4841  1.0000
  O   O11       1.0  0.2978  0.1984  0.28748  1.0000
  O   O12       1.0  0.4762  0.40488  0.4433  1.0000
  O   O13       1.0  0.57983  0.16293  0.33753  1.0000
  O   O14       1.0  0.4609699999999999  0.9768300000000002  0.13811  1.0000
  O   O15       1.0  0.34834  0.01955  0.06873  1.0000
  O   O16       1.0  0.77358  0.3766  0.48376  1.0000
  O   O17       1.0  0.78226  0.44831999999999994  0.39231  1.0000
  O   O18       1.0  0.19055  0.45706  0.40368  1.0000
  O   O19       1.0  0.12737  0.3602  0.45128999999999997  1.0000
  O   O20       1.0  0.5269199999999998  0.07711  0.01502  1.0000
  O   O21       1.0  0.19841999999999996  0.29782  0.78889  1.0000
  O   O22       1.0  0.4069699999999999  0.47639  0.94146  1.0000
  O   O23       1.0  0.16324  0.57932  0.8363  1.0000
  O   O24       1.0  0.977  0.4610600000000001  0.6375400000000001  1.0000
  O   O25       1.0  0.019869999999999992  0.34916  0.56775  1.0000
  O   O26       1.0  0.37599000000000005  0.77344  0.9834800000000001  1.0000
  O   O27       1.0  0.44964  0.78247  0.8935  1.0000
  O   O28       1.0  0.45717999999999986  0.19044000000000003  0.9050300000000001  1.0000
  O   O29       1.0  0.36016  0.12782  0.95294  1.0000
  O   O30       1.0  0.07750000000000001  0.5266  0.5159  1.0000
  O   O31       1.0  0.7022  0.80159  0.71252  1.0000
  O   O32       1.0  0.52379  0.59511  0.5567  1.0000
  O   O33       1.0  0.42017  0.83706  0.66246  1.0000
  O   O34       1.0  0.53902  0.023159999999999986  0.86189  1.0000
  O   O35       1.0  0.65165  0.9804400000000001  0.9312700000000002  1.0000
  O   O36       1.0  0.22640999999999994  0.6234  0.51623  1.0000
  O   O37       1.0  0.21774  0.55167  0.60769  1.0000
  O   O38       1.0  0.8094499999999998  0.54293  0.59632  1.0000
  O   O39       1.0  0.8726199999999997  0.6398  0.54871  1.0000
  O   O40       1.0  0.47307  0.92288  0.98498  1.0000
