data_image0
_chemical_formula_structural       Zn12H84C96S12N16O54
_chemical_formula_sum              "Zn12 H84 C96 S12 N16 O54"
_cell_length_a       15.17956
_cell_length_b       15.125909999999998
_cell_length_c       21.36414
_cell_angle_alpha    69.48209
_cell_angle_beta     69.23812
_cell_angle_gamma    59.73583999999999

_space_group_name_H-M_alt    "P 1"
_space_group_IT_number       1

loop_
  _space_group_symop_operation_xyz
  'x, y, z'

loop_
  _atom_site_type_symbol
  _atom_site_label
  _atom_site_symmetry_multiplicity
  _atom_site_fract_x
  _atom_site_fract_y
  _atom_site_fract_z
  _atom_site_occupancy
  Zn  Zn1       1.0  0.55746  0.34901  0.28657  1.0000
  Zn  Zn2       1.0  0.8081200000000001  0.55714  0.2841599999999999  1.0000
  Zn  Zn3       1.0  0.34893999999999986  0.8085  0.28599  1.0000
  Zn  Zn4       1.0  0.6918500000000001  0.14779000000000003  0.21498999999999993  1.0000
  Zn  Zn5       1.0  0.1479199999999998  0.9427900000000005  0.21493999999999994  1.0000
  Zn  Zn6       1.0  0.94374  0.69108  0.21402999999999994  1.0000
  Zn  Zn7       1.0  0.44253000000000003  0.65099  0.71342  1.0000
  Zn  Zn8       1.0  0.19187000000000004  0.44285000000000013  0.7158399999999998  1.0000
  Zn  Zn9       1.0  0.65106  0.19150000000000006  0.7140099999999999  1.0000
  Zn  Zn10      1.0  0.30814  0.85221  0.78501  1.0000
  Zn  Zn11      1.0  0.85207  0.05720000000000008  0.7850599999999999  1.0000
  Zn  Zn12      1.0  0.05625000000000007  0.3089100000000001  0.7859699999999997  1.0000
  H   H1        1.0  0.49388000000000004  0.22148  0.29566  1.0000
  H   H2        1.0  0.32719000000000004  0.11549  0.4678  1.0000
  H   H3        1.0  0.23031000000000001  0.12189000000000003  0.59789  1.0000
  H   H4        1.0  0.4497099999999998  0.4497300000000001  0.4157  1.0000
  H   H5        1.0  0.58557  0.37204000000000004  0.41546999999999995  1.0000
  H   H6        1.0  0.39514000000000005  0.57771  0.31488  1.0000
  H   H7        1.0  0.49090999999999996  0.5949200000000002  0.23913999999999994  1.0000
  H   H8        1.0  0.9910399999999998  0.49293  0.29359  1.0000
  H   H9        1.0  0.08842999999999997  0.33177000000000006  0.46979  1.0000
  H   H10       1.0  0.04737  0.23539  0.59909  1.0000
  H   H11       1.0  0.6896199999999997  0.45093  0.41417  1.0000
  H   H12       1.0  0.63068  0.5873900000000001  0.41347999999999996  1.0000
  H   H13       1.0  0.7146399999999998  0.3942900000000001  0.3147  1.0000
  H   H14       1.0  0.6757200000000001  0.48871  0.23896999999999993  1.0000
  H   H15       1.0  0.2170899999999999  0.9903800000000003  0.29596  1.0000
  H   H16       1.0  0.11137000000000004  0.09153000000000001  0.46957999999999994  1.0000
  H   H17       1.0  0.11908000000000006  0.051590000000000046  0.5990099999999999  1.0000
  H   H18       1.0  0.44837  0.69182  0.41386  1.0000
  H   H19       1.0  0.37123999999999996  0.6327900000000001  0.41481  1.0000
  H   H20       1.0  0.5774399999999998  0.71537  0.31278  1.0000
  H   H21       1.0  0.59576  0.67469  0.23788999999999993  1.0000
  H   H22       1.0  0.50943  0.2783700000000001  0.20619  1.0000
  H   H23       1.0  0.40645000000000003  0.38507  0.033019999999999994  1.0000
  H   H24       1.0  0.4480799999999999  0.37865  0.9030999999999999  1.0000
  H   H25       1.0  0.8117600000000001  0.05048  0.08535  1.0000
  H   H26       1.0  0.86922  0.12838  0.08561  1.0000
  H   H27       1.0  0.78706  0.92108  0.18586  1.0000
  H   H28       1.0  0.82586  0.90319  0.26119999999999993  1.0000
  H   H29       1.0  0.27446  0.0081  0.20656  1.0000
  H   H30       1.0  0.383  0.17369  0.03365  1.0000
  H   H31       1.0  0.37679000000000007  0.26943  0.9041599999999999  1.0000
  H   H32       1.0  0.05170999999999999  0.05024000000000001  0.08555  1.0000
  H   H33       1.0  0.12960999999999998  0.91405  0.08554  1.0000
  H   H34       1.0  0.9212299999999999  0.10525  0.18613  1.0000
  H   H35       1.0  0.9032  0.009370000000000036  0.26146999999999987  1.0000
  H   H36       1.0  0.007510000000000012  0.50794  0.20372999999999994  1.0000
  H   H37       1.0  0.17148  0.41046  0.02802  1.0000
  H   H38       1.0  0.26759000000000005  0.45288000000000006  0.89868  1.0000
  H   H39       1.0  0.05282  0.80928  0.08518  1.0000
  H   H40       1.0  0.9171099999999999  0.86774  0.08507  1.0000
  H   H41       1.0  0.10620000000000002  0.78495  0.18576999999999994  1.0000
  H   H42       1.0  0.00989999999999994  0.82422  0.26123  1.0000
  H   H43       1.0  0.50612  0.77852  0.70433  1.0000
  H   H44       1.0  0.67281  0.88451  0.53219  1.0000
  H   H45       1.0  0.7696799999999999  0.8781  0.40211  1.0000
  H   H46       1.0  0.5502800000000001  0.5502600000000001  0.5843  1.0000
  H   H47       1.0  0.41442000000000007  0.62796  0.58453  1.0000
  H   H48       1.0  0.6048500000000001  0.42229000000000005  0.6851199999999997  1.0000
  H   H49       1.0  0.50908  0.40508000000000016  0.76086  1.0000
  H   H50       1.0  0.008950000000000053  0.50707  0.70641  1.0000
  H   H51       1.0  0.91156  0.66823  0.53021  1.0000
  H   H52       1.0  0.9526300000000001  0.7646100000000003  0.4009099999999999  1.0000
  H   H53       1.0  0.31037  0.54907  0.58583  1.0000
  H   H54       1.0  0.36930999999999997  0.4126000000000001  0.5865199999999999  1.0000
  H   H55       1.0  0.28535000000000016  0.60571  0.6852999999999999  1.0000
  H   H56       1.0  0.32427999999999996  0.51129  0.76103  1.0000
  H   H57       1.0  0.7829000000000002  0.009620000000000028  0.7040399999999999  1.0000
  H   H58       1.0  0.8886199999999997  0.9084600000000002  0.53042  1.0000
  H   H59       1.0  0.88092  0.94841  0.40099  1.0000
  H   H60       1.0  0.5516200000000001  0.3081800000000001  0.5861399999999998  1.0000
  H   H61       1.0  0.62876  0.3672  0.58518  1.0000
  H   H62       1.0  0.42255  0.28463  0.68722  1.0000
  H   H63       1.0  0.40424  0.32531000000000004  0.7620999999999999  1.0000
  H   H64       1.0  0.4905699999999999  0.72163  0.79381  1.0000
  H   H65       1.0  0.59354  0.6149200000000001  0.9669799999999998  1.0000
  H   H66       1.0  0.55191  0.62135  0.09689999999999999  1.0000
  H   H67       1.0  0.1882299999999999  0.9495200000000003  0.9146399999999999  1.0000
  H   H68       1.0  0.13076999999999994  0.8716200000000001  0.91438  1.0000
  H   H69       1.0  0.21293000000000006  0.07891000000000004  0.8141399999999999  1.0000
  H   H70       1.0  0.17413  0.0968000000000001  0.7387999999999998  1.0000
  H   H71       1.0  0.7255300000000001  0.9918899999999999  0.79344  1.0000
  H   H72       1.0  0.61699  0.8263100000000001  0.9663499999999999  1.0000
  H   H73       1.0  0.6232  0.73057  0.09583999999999997  1.0000
  H   H74       1.0  0.9482899999999997  0.94976  0.9144499999999998  1.0000
  H   H75       1.0  0.8703800000000002  0.08595  0.9144599999999999  1.0000
  H   H76       1.0  0.07876999999999994  0.89474  0.8138699999999999  1.0000
  H   H77       1.0  0.09679000000000001  0.9906200000000001  0.7385299999999999  1.0000
  H   H78       1.0  0.99248  0.4920600000000001  0.79627  1.0000
  H   H79       1.0  0.8285099999999999  0.58954  0.97197  1.0000
  H   H80       1.0  0.73241  0.54711  0.10131  1.0000
  H   H81       1.0  0.94717  0.19072000000000006  0.9148199999999999  1.0000
  H   H82       1.0  0.08288000000000001  0.13225000000000012  0.9149299999999998  1.0000
  H   H83       1.0  0.8937900000000001  0.21505  0.8142199999999999  1.0000
  H   H84       1.0  0.9900899999999999  0.17577000000000004  0.7387699999999999  1.0000
  C   C1        1.0  0.40435  0.26871999999999996  0.38995  1.0000
  C   C2        1.0  0.34305  0.25368  0.46076999999999996  1.0000
  C   C3        1.0  0.31141999999999986  0.17394999999999997  0.49367  1.0000
  C   C4        1.0  0.2582100000000001  0.17888000000000007  0.5624399999999999  1.0000
  C   C5        1.0  0.25025  0.26172  0.58157  1.0000
  C   C6        1.0  0.20512000000000002  0.29036  0.64916  1.0000
  C   C7        1.0  0.5266699999999997  0.44988000000000006  0.39747999999999994  1.0000
  C   C8        1.0  0.47276000000000007  0.5768499999999999  0.29519999999999996  1.0000
  C   C9        1.0  0.93936  0.40592  0.38844  1.0000
  C   C10       1.0  0.9439099999999999  0.3459200000000001  0.45973999999999987  1.0000
  C   C11       1.0  0.020480000000000016  0.31551  0.49415999999999993  1.0000
  C   C12       1.0  0.99928  0.26261  0.56273  1.0000
  C   C13       1.0  0.9066000000000001  0.25351  0.58021  1.0000
  C   C14       1.0  0.8550700000000001  0.20741  0.6466  1.0000
  C   C15       1.0  0.6296999999999997  0.5278600000000001  0.3962199999999999  1.0000
  C   C16       1.0  0.65683  0.47189  0.295  1.0000
  C   C17       1.0  0.2662800000000002  0.9406300000000001  0.3890599999999999  1.0000
  C   C18       1.0  0.2516299999999999  0.9458200000000002  0.46001999999999993  1.0000
  C   C19       1.0  0.17107  0.023370000000000005  0.49429999999999996  1.0000
  C   C20       1.0  0.17647  0.0023699999999999923  0.56294  1.0000
  C   C21       1.0  0.26038  0.90848  0.58065  1.0000
  C   C22       1.0  0.29059000000000007  0.8571100000000001  0.6474399999999999  1.0000
  C   C23       1.0  0.44895000000000024  0.63137  0.3966299999999999  1.0000
  C   C24       1.0  0.57693  0.6569  0.29396  1.0000
  C   C25       1.0  0.55927  0.23042000000000004  0.11255  1.0000
  C   C26       1.0  0.55382  0.2461  0.04141  1.0000
  C   C27       1.0  0.47568999999999995  0.3261  0.007849999999999998  1.0000
  C   C28       1.0  0.49716000000000005  0.3212500000000001  0.9388799999999998  1.0000
  C   C29       1.0  0.5915400000000001  0.23814000000000005  0.9201499999999999  1.0000
  C   C30       1.0  0.6442300000000001  0.20861000000000005  0.8527899999999998  1.0000
  C   C31       1.0  0.8710599999999998  0.05034  0.10319999999999999  1.0000
  C   C32       1.0  0.8445599999999999  0.92195  0.20514999999999997  1.0000
  C   C33       1.0  0.22745  0.09839000000000003  0.11305999999999997  1.0000
  C   C34       1.0  0.24363000000000012  0.15889  0.04203999999999999  1.0000
  C   C35       1.0  0.32399  0.18955  0.008559999999999996  1.0000
  C   C36       1.0  0.3194400000000002  0.2421300000000001  0.9397899999999998  1.0000
  C   C37       1.0  0.23625999999999997  0.25066  0.92116  1.0000
  C   C38       1.0  0.20699000000000012  0.29593  0.8539499999999999  1.0000
  C   C39       1.0  0.051550000000000075  0.97312  0.10326999999999999  1.0000
  C   C40       1.0  0.92244  0.02733000000000001  0.20540999999999998  1.0000
  C   C41       1.0  0.09719000000000003  0.55894  0.11066  1.0000
  C   C42       1.0  0.15787  0.55439  0.03944  1.0000
  C   C43       1.0  0.188  0.47842  0.00416  1.0000
  C   C44       1.0  0.24074999999999983  0.50046  0.9355799999999999  1.0000
  C   C45       1.0  0.24975000000000003  0.5933  0.91889  1.0000
  C   C46       1.0  0.29567000000000004  0.6451800000000001  0.8524199999999998  1.0000
  C   C47       1.0  0.9754899999999999  0.86919  0.10298999999999998  1.0000
  C   C48       1.0  0.02815000000000009  0.84275  0.20518  1.0000
  C   C49       1.0  0.59564  0.73128  0.6100499999999998  1.0000
  C   C50       1.0  0.65694  0.74632  0.53923  1.0000
  C   C51       1.0  0.6885700000000001  0.8260399999999999  0.50633  1.0000
  C   C52       1.0  0.7417800000000002  0.82112  0.43755999999999995  1.0000
  C   C53       1.0  0.74974  0.73828  0.41843  1.0000
  C   C54       1.0  0.79487  0.70963  0.35084  1.0000
  C   C55       1.0  0.4733199999999999  0.55011  0.60252  1.0000
  C   C56       1.0  0.5272299999999999  0.42315000000000014  0.7048  1.0000
  C   C57       1.0  0.06064000000000017  0.5940799999999998  0.61155  1.0000
  C   C58       1.0  0.05607999999999999  0.6540800000000001  0.5402599999999999  1.0000
  C   C59       1.0  0.9795100000000001  0.68449  0.50584  1.0000
  C   C60       1.0  0.0007099999999999687  0.73739  0.43727  1.0000
  C   C61       1.0  0.09339000000000007  0.74649  0.41978999999999994  1.0000
  C   C62       1.0  0.14491999999999994  0.79259  0.35339  1.0000
  C   C63       1.0  0.3702899999999999  0.47214  0.60378  1.0000
  C   C64       1.0  0.34317  0.5281099999999999  0.705  1.0000
  C   C65       1.0  0.73371  0.05937000000000007  0.6109399999999998  1.0000
  C   C66       1.0  0.74836  0.05417  0.53997  1.0000
  C   C67       1.0  0.8289199999999999  0.97663  0.5056999999999998  1.0000
  C   C68       1.0  0.8235200000000003  0.99762  0.43705999999999995  1.0000
  C   C69       1.0  0.73962  0.09152000000000002  0.41934999999999995  1.0000
  C   C70       1.0  0.7094100000000001  0.14288000000000003  0.3525599999999999  1.0000
  C   C71       1.0  0.55104  0.36863  0.60337  1.0000
  C   C72       1.0  0.42306000000000005  0.34309  0.7060399999999998  1.0000
  C   C73       1.0  0.44072000000000006  0.76958  0.8874499999999999  1.0000
  C   C74       1.0  0.44617000000000007  0.7539  0.9585899999999999  1.0000
  C   C75       1.0  0.5243  0.6739  0.9921499999999999  1.0000
  C   C76       1.0  0.5028400000000001  0.6787500000000001  0.06111999999999999  1.0000
  C   C77       1.0  0.40845  0.76186  0.07984999999999999  1.0000
  C   C78       1.0  0.35575999999999997  0.79139  0.14721  1.0000
  C   C79       1.0  0.12892999999999988  0.9496500000000002  0.89679  1.0000
  C   C80       1.0  0.1554400000000001  0.07805000000000002  0.7948499999999997  1.0000
  C   C81       1.0  0.77255  0.9016100000000001  0.8869399999999998  1.0000
  C   C82       1.0  0.75636  0.84111  0.95796  1.0000
  C   C83       1.0  0.6760099999999998  0.8104500000000002  0.99143  1.0000
  C   C84       1.0  0.6805500000000001  0.75786  0.06021  1.0000
  C   C85       1.0  0.7637299999999997  0.74934  0.07884  1.0000
  C   C86       1.0  0.793  0.70406  0.14604  1.0000
  C   C87       1.0  0.94844  0.026879999999999984  0.89673  1.0000
  C   C88       1.0  0.07755000000000009  0.97267  0.7945799999999998  1.0000
  C   C89       1.0  0.9027999999999999  0.44106000000000006  0.88934  1.0000
  C   C90       1.0  0.84213  0.4456100000000002  0.9605599999999999  1.0000
  C   C91       1.0  0.8119999999999996  0.5215800000000003  0.99584  1.0000
  C   C92       1.0  0.75924  0.49953  0.06441999999999998  1.0000
  C   C93       1.0  0.75024  0.4067  0.08111  1.0000
  C   C94       1.0  0.70432  0.35481  0.14758  1.0000
  C   C95       1.0  0.024500000000000036  0.13081000000000004  0.89701  1.0000
  C   C96       1.0  0.9718500000000002  0.15725000000000008  0.7948199999999999  1.0000
  S   S1        1.0  0.30904  0.33346  0.51472  1.0000
  S   S2        1.0  0.84507  0.31097  0.51217  1.0000
  S   S3        1.0  0.33274999999999993  0.84605  0.51259  1.0000
  S   S4        1.0  0.65409  0.16598000000000002  0.98771  1.0000
  S   S5        1.0  0.16379999999999997  0.19324  0.9885  1.0000
  S   S6        1.0  0.19278999999999996  0.6537  0.98787  1.0000
  S   S7        1.0  0.6909499999999997  0.66654  0.48526999999999987  1.0000
  S   S8        1.0  0.15492999999999996  0.68903  0.48782  1.0000
  S   S9        1.0  0.6672499999999998  0.15394000000000002  0.48740999999999995  1.0000
  S   S10       1.0  0.34590999999999983  0.8340200000000001  0.012289999999999999  1.0000
  S   S11       1.0  0.8361899999999999  0.8067500000000001  0.011489999999999997  1.0000
  S   S12       1.0  0.8072  0.34629  0.012129999999999998  1.0000
  N   N1        1.0  0.55191  0.47134  0.32023  1.0000
  N   N2        1.0  0.6584199999999999  0.5519200000000001  0.31891999999999987  1.0000
  N   N3        1.0  0.4715799999999998  0.65894  0.31934  1.0000
  N   N4        1.0  0.84198  0.027700000000000006  0.18049999999999997  1.0000
  N   N5        1.0  0.028289999999999937  0.94811  0.1806  1.0000
  N   N6        1.0  0.9498499999999999  0.84064  0.18022  1.0000
  N   N7        1.0  0.44807999999999987  0.5286500000000001  0.67977  1.0000
  N   N8        1.0  0.3415799999999997  0.44807000000000013  0.6810699999999997  1.0000
  N   N9        1.0  0.52841  0.34106  0.68066  1.0000
  N   N10       1.0  0.15801000000000015  0.9722900000000001  0.8195  1.0000
  N   N11       1.0  0.9717  0.051879999999999996  0.8194  1.0000
  N   N12       1.0  0.05014000000000007  0.15935000000000002  0.8197799999999998  1.0000
  N   N13       1.0  0.52727  0.5288400000000001  0.42065999999999987  1.0000
  N   N14       1.0  0.9740599999999997  0.97206  0.0793  1.0000
  N   N15       1.0  0.47273  0.47116  0.57933  1.0000
  N   N16       1.0  0.025930000000000075  0.027929999999999993  0.9206999999999999  1.0000
  O   O1        1.0  0.4269400000000002  0.34746  0.3678499999999999  1.0000
  O   O2        1.0  0.43233999999999995  0.19964000000000004  0.35704999999999987  1.0000
  O   O3        1.0  0.12728  0.27225000000000005  0.6882599999999999  1.0000
  O   O4        1.0  0.25017  0.33114000000000005  0.6631799999999998  1.0000
  O   O5        1.0  0.861  0.42816  0.3654699999999999  1.0000
  O   O6        1.0  0.013260000000000034  0.43297  0.35585  1.0000
  O   O7        1.0  0.9112300000000001  0.13228000000000006  0.6873699999999998  1.0000
  O   O8        1.0  0.75518  0.24924000000000002  0.6574099999999999  1.0000
  O   O9        1.0  0.34736999999999985  0.8636500000000003  0.3649399999999999  1.0000
  O   O10       1.0  0.19442  0.012629999999999992  0.35815  1.0000
  O   O11       1.0  0.2725600000000002  0.9143400000000002  0.6866499999999998  1.0000
  O   O12       1.0  0.33272  0.75683  0.66035  1.0000
  O   O13       1.0  0.63724  0.14997  0.13545  1.0000
  O   O14       1.0  0.48635  0.3006700000000001  0.14504999999999998  1.0000
  O   O15       1.0  0.58867  0.22844000000000012  0.8122699999999998  1.0000
  O   O16       1.0  0.7443099999999999  0.16471999999999998  0.84093  1.0000
  O   O17       1.0  0.14841  0.07640000000000002  0.13565999999999998  1.0000
  O   O18       1.0  0.29621  0.07041000000000001  0.14581  1.0000
  O   O19       1.0  0.22671000000000005  0.37263000000000013  0.8143399999999997  1.0000
  O   O20       1.0  0.16388  0.25196  0.84109  1.0000
  O   O21       1.0  0.07626000000000001  0.63635  0.13456  1.0000
  O   O22       1.0  0.06800000000000003  0.48612999999999995  0.14219  1.0000
  O   O23       1.0  0.37193000000000004  0.58853  0.81198  1.0000
  O   O24       1.0  0.25264000000000014  0.7454  0.8411199999999998  1.0000
  O   O25       1.0  0.5730599999999999  0.65253  0.63215  1.0000
  O   O26       1.0  0.56766  0.8003600000000001  0.6429499999999999  1.0000
  O   O27       1.0  0.87271  0.72775  0.31172999999999995  1.0000
  O   O28       1.0  0.7498200000000002  0.66886  0.33682  1.0000
  O   O29       1.0  0.13899999999999998  0.57184  0.63453  1.0000
  O   O30       1.0  0.98673  0.56703  0.64415  1.0000
  O   O31       1.0  0.08875999999999999  0.8677200000000002  0.3126299999999999  1.0000
  O   O32       1.0  0.24481  0.75076  0.34259  1.0000
  O   O33       1.0  0.65262  0.13635000000000003  0.6350599999999998  1.0000
  O   O34       1.0  0.8055799999999999  0.9873700000000002  0.64185  1.0000
  O   O35       1.0  0.72743  0.08565999999999999  0.31335  1.0000
  O   O36       1.0  0.66727  0.24317000000000005  0.33965  1.0000
  O   O37       1.0  0.3627500000000001  0.8500300000000001  0.8645499999999999  1.0000
  O   O38       1.0  0.5136400000000003  0.6993300000000002  0.8549499999999999  1.0000
  O   O39       1.0  0.4113200000000001  0.77156  0.18773  1.0000
  O   O40       1.0  0.2556800000000001  0.83528  0.15906999999999996  1.0000
  O   O41       1.0  0.8515799999999998  0.9236000000000002  0.86434  1.0000
  O   O42       1.0  0.7037800000000001  0.9295800000000001  0.85419  1.0000
  O   O43       1.0  0.77328  0.62736  0.18565999999999994  1.0000
  O   O44       1.0  0.8361099999999999  0.74803  0.15891  1.0000
  O   O45       1.0  0.9237299999999999  0.3636500000000001  0.8654299999999999  1.0000
  O   O46       1.0  0.9319899999999999  0.51387  0.85781  1.0000
  O   O47       1.0  0.62806  0.41146  0.18800999999999998  1.0000
  O   O48       1.0  0.7473499999999998  0.2546  0.15888  1.0000
  O   O49       1.0  0.5433800000000001  0.24974999999999997  0.2508  1.0000
  O   O50       1.0  0.9576699999999999  0.54155  0.24888999999999997  1.0000
  O   O51       1.0  0.24647000000000005  0.9573499999999999  0.25086  1.0000
  O   O52       1.0  0.4566099999999999  0.7502500000000001  0.7491999999999998  1.0000
  O   O53       1.0  0.04232000000000013  0.45844  0.7511099999999998  1.0000
  O   O54       1.0  0.7535200000000001  0.04265000000000006  0.7491399999999998  1.0000
