data_image0
_chemical_formula_structural       Ni4Mo2H144C80N32
_chemical_formula_sum              "Ni4 Mo2 H144 C80 N32"
_cell_length_a       14.51879
_cell_length_b       14.50781
_cell_length_c       16.33538
_cell_angle_alpha    101.13931
_cell_angle_beta     106.44479
_cell_angle_gamma    117.86222999999998

_space_group_name_H-M_alt    "P 1"
_space_group_IT_number       1

loop_
  _space_group_symop_operation_xyz
  'x, y, z'

loop_
  _atom_site_type_symbol
  _atom_site_label
  _atom_site_symmetry_multiplicity
  _atom_site_fract_x
  _atom_site_fract_y
  _atom_site_fract_z
  _atom_site_occupancy
  Ni  Ni1       1.0  0.49933  0.0005399999999999963  0.49946  1.0000
  Ni  Ni2       1.0  0.00026999999999998423  0.99929  0.99934  1.0000
  Ni  Ni3       1.0  0.49979  0.00156  0.00107  1.0000
  Ni  Ni4       1.0  0.50122  0.49966  0.50154  1.0000
  Mo  Mo1       1.0  0.4038200000000001  0.15437  0.25023  1.0000
  Mo  Mo2       1.0  0.5956899999999999  0.8470899999999998  0.75045  1.0000
  H   H1        1.0  0.66264  0.11148  0.66145  1.0000
  H   H2        1.0  0.41296000000000005  0.12057000000000004  0.4948500000000001  1.0000
  H   H3        1.0  0.62749  0.12744000000000003  0.93962  1.0000
  H   H4        1.0  0.61885  0.12936  0.17639  1.0000
  H   H5        1.0  0.62736  0.2641  0.58337  1.0000
  H   H6        1.0  0.69021  0.29256999999999994  0.7034400000000001  1.0000
  H   H7        1.0  0.50505  0.11970000000000008  0.6797900000000002  1.0000
  H   H8        1.0  0.48929  0.22758  0.65778  1.0000
  H   H9        1.0  0.31434999999999996  0.9600799999999999  0.57894  1.0000
  H   H10       1.0  0.22807000000000005  0.9610400000000001  0.3851000000000001  1.0000
  H   H11       1.0  0.13252000000000005  0.87955  0.4255400000000001  1.0000
  H   H12       1.0  0.30718  0.13239  0.63196  1.0000
  H   H13       1.0  0.16808000000000003  0.008090000000000014  0.56142  1.0000
  H   H14       1.0  0.23451000000000002  0.10685000000000003  0.51366  1.0000
  H   H15       1.0  0.79367  0.3335199999999999  0.57259  1.0000
  H   H16       1.0  0.86213  0.2749  0.53199  1.0000
  H   H17       1.0  0.71044  0.20757999999999996  0.4727  1.0000
  H   H18       1.0  0.86239  0.21853999999999996  0.7484  1.0000
  H   H19       1.0  0.9532200000000001  0.29370000000000007  0.6987000000000002  1.0000
  H   H20       1.0  0.86936  0.3381999999999999  0.73049  1.0000
  H   H21       1.0  0.63663  0.26668  0.10277000000000003  1.0000
  H   H22       1.0  0.74455  0.31225  0.06111  1.0000
  H   H23       1.0  0.7682499999999999  0.15551999999999996  0.08297000000000003  1.0000
  H   H24       1.0  0.80009  0.25476  0.18794  1.0000
  H   H25       1.0  0.70267  0.98969  0.12369000000000002  1.0000
  H   H26       1.0  0.5339000000000002  0.9641200000000001  0.20862000000000003  1.0000
  H   H27       1.0  0.61178  0.90128  0.22861  1.0000
  H   H28       1.0  0.8549199999999999  0.16586  0.26466  1.0000
  H   H29       1.0  0.80494  0.047170000000000004  0.29572  1.0000
  H   H30       1.0  0.75733  0.13952000000000003  0.31540000000000007  1.0000
  H   H31       1.0  0.6405300000000002  0.23593000000000008  0.8472100000000002  1.0000
  H   H32       1.0  0.5501800000000001  0.2888700000000002  0.8321400000000002  1.0000
  H   H33       1.0  0.66837  0.34754999999999997  0.93988  1.0000
  H   H34       1.0  0.53339  0.3153499999999999  0.01281  1.0000
  H   H35       1.0  0.4111500000000001  0.24401000000000003  0.9058000000000002  1.0000
  H   H36       1.0  0.41702999999999996  0.17870999999999995  0.98744  1.0000
  H   H37       1.0  0.94943  0.0002799999999999981  0.83751  1.0000
  H   H38       1.0  0.12535  0.91818  0.00508  1.0000
  H   H39       1.0  0.68895  0.68928  0.56306  1.0000
  H   H40       1.0  0.45313  0.4424799999999999  0.32632  1.0000
  H   H41       1.0  0.18059  0.043880000000000044  0.91695  1.0000
  H   H42       1.0  0.08892999999999997  0.98603  0.79668  1.0000
  H   H43       1.0  0.93948  0.82427  0.81968  1.0000
  H   H44       1.0  0.06951999999999989  0.8307799999999999  0.84222  1.0000
  H   H45       1.0  0.8804699999999998  0.7341599999999998  0.91969  1.0000
  H   H46       1.0  0.07542  0.84283  0.11406000000000002  1.0000
  H   H47       1.0  0.95334  0.7064  0.07313000000000003  1.0000
  H   H48       1.0  0.0005700000000000891  0.6746300000000001  0.8677100000000002  1.0000
  H   H49       1.0  0.94669  0.6058499999999998  0.93779  1.0000
  H   H50       1.0  0.09341999999999999  0.72095  0.9863  1.0000
  H   H51       1.0  0.26074  0.22122  0.9275200000000002  1.0000
  H   H52       1.0  0.24287  0.3304699999999999  0.96835  1.0000
  H   H53       1.0  0.23494  0.2378  0.02715  1.0000
  H   H54       1.0  0.9693200000000003  0.11333000000000006  0.7514100000000002  1.0000
  H   H55       1.0  0.09466999999999998  0.25412  0.80139  1.0000
  H   H56       1.0  0.10661000000000015  0.13779000000000013  0.7694200000000002  1.0000
  H   H57       1.0  0.6638600000000001  0.5342200000000001  0.39986000000000005  1.0000
  H   H58       1.0  0.75158  0.68428  0.44164  1.0000
  H   H59       1.0  0.5729299999999999  0.6860399999999999  0.41959000000000013  1.0000
  H   H60       1.0  0.5666  0.61233  0.31472  1.0000
  H   H61       1.0  0.36612  0.57935  0.3781  1.0000
  H   H62       1.0  0.25525  0.32489  0.29307  1.0000
  H   H63       1.0  0.17243999999999998  0.38274999999999987  0.27297  1.0000
  H   H64       1.0  0.40091  0.58948  0.23709  1.0000
  H   H65       1.0  0.25104  0.50799  0.20575000000000004  1.0000
  H   H66       1.0  0.3239699999999999  0.44078999999999996  0.18686  1.0000
  H   H67       1.0  0.89024  0.79486  0.65526  1.0000
  H   H68       1.0  0.9579200000000001  0.7193200000000001  0.6701700000000003  1.0000
  H   H69       1.0  0.90827  0.72915  0.56262  1.0000
  H   H70       1.0  0.80264  0.52109  0.48949  1.0000
  H   H71       1.0  0.83892  0.50625  0.59645  1.0000
  H   H72       1.0  0.6914999999999999  0.4298399999999999  0.5147  1.0000
  H   H73       1.0  0.3359799999999999  0.8887099999999998  0.33781  1.0000
  H   H74       1.0  0.58573  0.8805799999999999  0.50512  1.0000
  H   H75       1.0  0.37207  0.87422  0.06202  1.0000
  H   H76       1.0  0.38176999999999994  0.8732499999999997  0.8256100000000002  1.0000
  H   H77       1.0  0.37116  0.73608  0.41594  1.0000
  H   H78       1.0  0.3089  0.70795  0.29594  1.0000
  H   H79       1.0  0.49408  0.8803299999999997  0.3196400000000001  1.0000
  H   H80       1.0  0.50995  0.77276  0.34244  1.0000
  H   H81       1.0  0.68493  0.0403  0.42059  1.0000
  H   H82       1.0  0.77087  0.03935000000000001  0.6145  1.0000
  H   H83       1.0  0.86639  0.1208  0.57405  1.0000
  H   H84       1.0  0.69157  0.8676000000000001  0.3678700000000001  1.0000
  H   H85       1.0  0.83078  0.9916599999999999  0.43858  1.0000
  H   H86       1.0  0.76376  0.89302  0.48624  1.0000
  H   H87       1.0  0.20479999999999998  0.6664899999999999  0.42655  1.0000
  H   H88       1.0  0.13698  0.7256  0.46766  1.0000
  H   H89       1.0  0.28863  0.7924  0.52661  1.0000
  H   H90       1.0  0.13642999999999997  0.78193  0.25119  1.0000
  H   H91       1.0  0.045659999999999965  0.70641  0.30078  1.0000
  H   H92       1.0  0.1298  0.66235  0.26897  1.0000
  H   H93       1.0  0.36333999999999994  0.7358099999999997  0.89869  1.0000
  H   H94       1.0  0.25522  0.69005  0.94006  1.0000
  H   H95       1.0  0.23168000000000005  0.8468699999999999  0.9183800000000002  1.0000
  H   H96       1.0  0.1999499999999998  0.7477399999999998  0.81337  1.0000
  H   H97       1.0  0.29671  0.012269999999999986  0.87657  1.0000
  H   H98       1.0  0.46634  0.038100000000000016  0.79256  1.0000
  H   H99       1.0  0.38846  0.10087999999999997  0.7724800000000002  1.0000
  H   H100      1.0  0.14555999999999994  0.83568  0.73555  1.0000
  H   H101      1.0  0.19572  0.95418  0.70427  1.0000
  H   H102      1.0  0.24402999999999997  0.8622199999999998  0.68578  1.0000
  H   H103      1.0  0.3596899999999999  0.7654299999999999  0.15399  1.0000
  H   H104      1.0  0.45008  0.71248  0.16844  1.0000
  H   H105      1.0  0.3319100000000001  0.65439  0.060830000000000016  1.0000
  H   H106      1.0  0.46684  0.68683  0.98846  1.0000
  H   H107      1.0  0.58989  0.75939  0.09506  1.0000
  H   H108      1.0  0.58225  0.82364  0.012850000000000004  1.0000
  H   H109      1.0  0.05046999999999989  0.9982499999999999  0.16096  1.0000
  H   H110      1.0  0.8751  0.08056  0.99388  1.0000
  H   H111      1.0  0.31247  0.3102199999999999  0.43939  1.0000
  H   H112      1.0  0.54861  0.55732  0.67658  1.0000
  H   H113      1.0  0.8194800000000001  0.95522  0.08216  1.0000
  H   H114      1.0  0.91157  0.013000000000000015  0.20235000000000003  1.0000
  H   H115      1.0  0.06090000000000002  0.17469  0.17944000000000004  1.0000
  H   H116      1.0  0.93079  0.16818  0.15664  1.0000
  H   H117      1.0  0.11993999999999998  0.26463999999999993  0.07896  1.0000
  H   H118      1.0  0.9242699999999999  0.15561  0.88489  1.0000
  H   H119      1.0  0.04615000000000004  0.29206  0.92548  1.0000
  H   H120      1.0  0.000570000000000028  0.32448  0.13168  1.0000
  H   H121      1.0  0.05366999999999996  0.39295  0.06119  1.0000
  H   H122      1.0  0.90696  0.27795  0.01325  1.0000
  H   H123      1.0  0.73893  0.77761  0.07104000000000002  1.0000
  H   H124      1.0  0.75673  0.66822  0.03047  1.0000
  H   H125      1.0  0.7648  0.76074  0.97146  1.0000
  H   H126      1.0  0.030380000000000042  0.88571  0.24736  1.0000
  H   H127      1.0  0.90523  0.74483  0.19757000000000002  1.0000
  H   H128      1.0  0.8929599999999999  0.8609999999999998  0.22916000000000006  1.0000
  H   H129      1.0  0.33783000000000013  0.4652800000000001  0.6027800000000002  1.0000
  H   H130      1.0  0.25038  0.31522  0.56106  1.0000
  H   H131      1.0  0.4291300000000001  0.31386  0.5829400000000002  1.0000
  H   H132      1.0  0.4352  0.3870699999999999  0.68789  1.0000
  H   H133      1.0  0.63612  0.42080999999999996  0.62499  1.0000
  H   H134      1.0  0.74683  0.67523  0.70971  1.0000
  H   H135      1.0  0.8296399999999999  0.6173  0.72974  1.0000
  H   H136      1.0  0.60121  0.41096999999999995  0.76594  1.0000
  H   H137      1.0  0.75106  0.49222999999999995  0.7972900000000002  1.0000
  H   H138      1.0  0.67833  0.55968  0.81609  1.0000
  H   H139      1.0  0.11129000000000007  0.20526000000000005  0.34679000000000004  1.0000
  H   H140      1.0  0.04399000000000001  0.2812  0.3324  1.0000
  H   H141      1.0  0.09333999999999999  0.27064  0.43969  1.0000
  H   H142      1.0  0.19896  0.47891  0.51292  1.0000
  H   H143      1.0  0.16381  0.49441  0.4061800000000001  1.0000
  H   H144      1.0  0.3108699999999999  0.5701999999999999  0.48838000000000004  1.0000
  C   C1        1.0  0.40173999999999993  0.08443999999999997  0.12047  1.0000
  C   C2        1.0  0.62748  0.22521999999999995  0.63466  1.0000
  C   C3        1.0  0.50765  0.16490999999999997  0.63297  1.0000
  C   C4        1.0  0.30294  0.002760000000000016  0.53204  1.0000
  C   C5        1.0  0.22108000000000003  0.91564  0.43211  1.0000
  C   C6        1.0  0.77017  0.1864  0.60345  1.0000
  C   C7        1.0  0.25088999999999995  0.06696999999999999  0.56188  1.0000
  C   C8        1.0  0.78344  0.2535  0.54103  1.0000
  C   C9        1.0  0.86964  0.26356999999999997  0.7013  1.0000
  C   C10       1.0  0.67695  0.23837  0.0659  1.0000
  C   C11       1.0  0.73122  0.18833  0.12049  1.0000
  C   C12       1.0  0.67697  0.025540000000000007  0.17132000000000003  1.0000
  C   C13       1.0  0.57495  0.92909  0.17809  1.0000
  C   C14       1.0  0.5198700000000002  0.18121000000000012  0.9107100000000002  1.0000
  C   C15       1.0  0.77937  0.09866000000000001  0.2674  1.0000
  C   C16       1.0  0.5999099999999997  0.26829  0.88056  1.0000
  C   C17       1.0  0.46733  0.23201999999999995  0.95736  1.0000
  C   C18       1.0  0.4850500000000001  0.11062000000000004  0.3539200000000001  1.0000
  C   C19       1.0  0.5830599999999999  0.23255  0.27454  1.0000
  C   C20       1.0  0.26352  0.10867000000000002  0.29405000000000003  1.0000
  C   C21       1.0  0.4639  0.28176000000000007  0.3808600000000001  1.0000
  C   C22       1.0  0.09029999999999994  0.9923999999999997  0.86532  1.0000
  C   C23       1.0  0.03163000000000001  0.8740499999999998  0.8667800000000002  1.0000
  C   C24       1.0  0.9702  0.7701000000000001  0.9670500000000002  1.0000
  C   C25       1.0  0.98288  0.7884799999999998  0.06674  1.0000
  C   C26       1.0  0.08255999999999995  0.16644999999999993  0.89631  1.0000
  C   C27       1.0  0.005110000000000089  0.6884599999999998  0.9376200000000002  1.0000
  C   C28       1.0  0.21233999999999997  0.24252999999999994  0.9589900000000001  1.0000
  C   C29       1.0  0.061629999999999956  0.1677699999999999  0.79862  1.0000
  C   C30       1.0  0.6728600000000001  0.61178  0.43681  1.0000
  C   C31       1.0  0.56805  0.61122  0.38215000000000005  1.0000
  C   C32       1.0  0.35423  0.50565  0.33066  1.0000
  C   C33       1.0  0.25091  0.39669  0.3235800000000001  1.0000
  C   C34       1.0  0.7712399999999998  0.6100899999999998  0.59168  1.0000
  C   C35       1.0  0.33107  0.51118  0.2345  1.0000
  C   C36       1.0  0.88866  0.72041  0.6218700000000001  1.0000
  C   C37       1.0  0.77503  0.51052  0.54486  1.0000
  C   C38       1.0  0.25647  0.13189  0.14619  1.0000
  C   C39       1.0  0.45878  0.31026  0.22735  1.0000
  C   C40       1.0  0.31404999999999994  0.9698999999999999  0.20562  1.0000
  C   C41       1.0  0.59789  0.91784  0.88055  1.0000
  C   C42       1.0  0.37144  0.77519  0.36481  1.0000
  C   C43       1.0  0.49141  0.83547  0.36675  1.0000
  C   C44       1.0  0.6959999999999997  0.9975899999999998  0.4675800000000001  1.0000
  C   C45       1.0  0.77784  0.08471000000000001  0.56747  1.0000
  C   C46       1.0  0.22873999999999992  0.81395  0.39605  1.0000
  C   C47       1.0  0.74779  0.93298  0.4379600000000001  1.0000
  C   C48       1.0  0.21547  0.7467  0.45837  1.0000
  C   C49       1.0  0.12929000000000002  0.7368099999999999  0.29822  1.0000
  C   C50       1.0  0.32292999999999994  0.76405  0.93547  1.0000
  C   C51       1.0  0.26875  0.81413  0.88087  1.0000
  C   C52       1.0  0.3230399999999999  0.9764999999999998  0.82952  1.0000
  C   C53       1.0  0.42520000000000013  0.07307000000000005  0.8230300000000003  1.0000
  C   C54       1.0  0.4802  0.82097  0.09042  1.0000
  C   C55       1.0  0.22130000000000002  0.90301  0.73314  1.0000
  C   C56       1.0  0.4003499999999999  0.7334099999999998  0.12038  1.0000
  C   C57       1.0  0.5328  0.7705099999999999  0.04347  1.0000
  C   C58       1.0  0.51431  0.8901000000000001  0.6458100000000002  1.0000
  C   C59       1.0  0.4165899999999999  0.7692699999999998  0.72637  1.0000
  C   C60       1.0  0.73612  0.8927500000000002  0.7066700000000002  1.0000
  C   C61       1.0  0.5368  0.71845  0.62083  1.0000
  C   C62       1.0  0.90988  0.0065200000000000076  0.13361  1.0000
  C   C63       1.0  0.9687399999999999  0.1249  0.1322  1.0000
  C   C64       1.0  0.03008  0.22869  0.03185  1.0000
  C   C65       1.0  0.016859999999999903  0.21008999999999992  0.93204  1.0000
  C   C66       1.0  0.9171499999999999  0.8321899999999998  0.10237  1.0000
  C   C67       1.0  0.99543  0.31044  0.06159  1.0000
  C   C68       1.0  0.78734  0.7561499999999999  0.03968  1.0000
  C   C69       1.0  0.9380799999999999  0.8310799999999996  0.20012  1.0000
  C   C70       1.0  0.32898  0.38781  0.56584  1.0000
  C   C71       1.0  0.43391  0.38852  0.62056  1.0000
  C   C72       1.0  0.64791  0.49451  0.67231  1.0000
  C   C73       1.0  0.75116  0.60341  0.67919  1.0000
  C   C74       1.0  0.23071000000000005  0.38992  0.4110200000000001  1.0000
  C   C75       1.0  0.67112  0.48917  0.7685  1.0000
  C   C76       1.0  0.11306000000000002  0.2797  0.3805300000000001  1.0000
  C   C77       1.0  0.22715999999999995  0.48967  0.45788  1.0000
  C   C78       1.0  0.74324  0.86894  0.85401  1.0000
  C   C79       1.0  0.54096  0.69139  0.7737100000000001  1.0000
  C   C80       1.0  0.68541  0.03163000000000006  0.7946200000000002  1.0000
  N   N1        1.0  0.6567099999999999  0.14222  0.6098  1.0000
  N   N2        1.0  0.42  0.08024  0.53919  1.0000
  N   N3        1.0  0.5870999999999998  0.14985  0.9739  1.0000
  N   N4        1.0  0.64079  0.09324  0.13117  1.0000
  N   N5        1.0  0.51274  0.07513000000000006  0.4086100000000001  1.0000
  N   N6        1.0  0.68283  0.27609999999999996  0.29536  1.0000
  N   N7        1.0  0.19856999999999997  0.09683  0.32769  1.0000
  N   N8        1.0  0.41469000000000006  0.052669999999999995  0.055060000000000005  1.0000
  N   N9        1.0  0.03184000000000004  0.04634000000000003  0.88965  1.0000
  N   N10       1.0  0.04055000000000006  0.8803  0.9603000000000003  1.0000
  N   N11       1.0  0.6766299999999998  0.61423  0.5287  1.0000
  N   N12       1.0  0.46224  0.50993  0.3713300000000001  1.0000
  N   N13       1.0  0.16619999999999996  0.10450999999999998  0.09107  1.0000
  N   N14       1.0  0.48225999999999997  0.38955999999999996  0.20705  1.0000
  N   N15       1.0  0.26859999999999984  0.8710599999999997  0.17177  1.0000
  N   N16       1.0  0.49782  0.35982  0.44687  1.0000
  N   N17       1.0  0.34216  0.8582  0.38959  1.0000
  N   N18       1.0  0.57885  0.9205200000000001  0.4604200000000001  1.0000
  N   N19       1.0  0.41265999999999997  0.8524199999999998  0.02758  1.0000
  N   N20       1.0  0.3592599999999999  0.9092499999999998  0.87036  1.0000
  N   N21       1.0  0.48634  0.92531  0.59095  1.0000
  N   N22       1.0  0.3169200000000002  0.7260500000000001  0.7058900000000002  1.0000
  N   N23       1.0  0.80119  0.9040599999999998  0.67324  1.0000
  N   N24       1.0  0.5848200000000001  0.9498099999999999  0.94584  1.0000
  N   N25       1.0  0.968  0.95228  0.10897000000000001  1.0000
  N   N26       1.0  0.95991  0.11852999999999997  0.03868  1.0000
  N   N27       1.0  0.32515  0.3854  0.47393  1.0000
  N   N28       1.0  0.53977  0.48997999999999997  0.6316400000000001  1.0000
  N   N29       1.0  0.8334599999999999  0.8946699999999997  0.90792  1.0000
  N   N30       1.0  0.5180199999999999  0.6118699999999999  0.79361  1.0000
  N   N31       1.0  0.7309  0.13051000000000007  0.8281500000000003  1.0000
  N   N32       1.0  0.50423  0.63971  0.55599  1.0000
