data_image0
_chemical_formula_structural       Co20H88C128N16O72
_chemical_formula_sum              "Co20 H88 C128 N16 O72"
_cell_length_a       11.19823
_cell_length_b       18.675
_cell_length_c       21.34533
_cell_angle_alpha    94.25378
_cell_angle_beta     90.08903999999998
_cell_angle_gamma    107.38093

_space_group_name_H-M_alt    "P 1"
_space_group_IT_number       1

loop_
  _space_group_symop_operation_xyz
  'x, y, z'

loop_
  _atom_site_type_symbol
  _atom_site_label
  _atom_site_symmetry_multiplicity
  _atom_site_fract_x
  _atom_site_fract_y
  _atom_site_fract_z
  _atom_site_occupancy
  Co  Co1       1.0  0.24503  0.6494  0.23821  1.0000
  Co  Co2       1.0  0.18379999999999985  0.7948799999999998  0.18169  1.0000
  Co  Co3       1.0  0.67665  0.24815999999999996  0.36782  1.0000
  Co  Co4       1.0  0.7486  0.72171  0.56213  1.0000
  Co  Co5       1.0  0.68333  0.8568199999999999  0.50378  1.0000
  Co  Co6       1.0  0.59259  0.34818  0.25963  1.0000
  Co  Co7       1.0  0.39114  0.20578999999999997  0.31973  1.0000
  Co  Co8       1.0  0.42804  0.75296  0.13295  1.0000
  Co  Co9       1.0  0.025260000000000015  0.27798  0.93691  1.0000
  Co  Co10      1.0  0.8267299999999999  0.14323999999999995  0.9952299999999998  1.0000
  Co  Co11      1.0  0.75503  0.3506699999999999  0.7619099999999999  1.0000
  Co  Co12      1.0  0.8161100000000001  0.20510999999999996  0.8182000000000001  1.0000
  Co  Co13      1.0  0.32326  0.75208  0.63205  1.0000
  Co  Co14      1.0  0.2509799999999999  0.27839999999999987  0.43822  1.0000
  Co  Co15      1.0  0.31565  0.14391999999999994  0.49488  1.0000
  Co  Co16      1.0  0.4074299999999999  0.6519299999999998  0.74028  1.0000
  Co  Co17      1.0  0.60969  0.7943199999999999  0.68037  1.0000
  Co  Co18      1.0  0.57195  0.24706  0.8670900000000001  1.0000
  Co  Co19      1.0  0.9747299999999998  0.7220099999999999  0.0631  1.0000
  Co  Co20      1.0  0.17325999999999986  0.8567599999999999  0.00477  1.0000
  H   H1        1.0  0.19321999999999998  0.67071  0.12714  1.0000
  H   H2        1.0  0.2103999999999999  0.7678399999999997  0.06986  1.0000
  H   H3        1.0  0.76343  0.86638  0.39285  1.0000
  H   H4        1.0  0.81207  0.9559799999999999  0.42124  1.0000
  H   H5        1.0  0.7247799999999999  0.46061  0.3376  1.0000
  H   H6        1.0  0.5790699999999999  0.4622299999999999  0.34554  1.0000
  H   H7        1.0  0.81293  0.95628  0.5914  1.0000
  H   H8        1.0  0.66318  0.9494799999999999  0.59952  1.0000
  H   H9        1.0  0.1849099999999999  0.6590999999999998  0.3523  1.0000
  H   H10       1.0  0.12118999999999991  0.5689799999999998  0.32874  1.0000
  H   H11       1.0  0.35633000000000004  0.96541  0.29794  1.0000
  H   H12       1.0  0.72079  0.04649999999999999  0.38900000000000007  1.0000
  H   H13       1.0  0.54094  0.8082799999999998  0.35453  1.0000
  H   H14       1.0  0.77198  0.7145899999999998  0.18959000000000004  1.0000
  H   H15       1.0  0.4922500000000001  0.53706  0.27214  1.0000
  H   H16       1.0  0.88226  0.55069  0.28813  1.0000
  H   H17       1.0  0.84724  0.21555  0.45398  1.0000
  H   H18       1.0  0.95782  0.03893  0.53172  1.0000
  H   H19       1.0  0.57306  0.03841  0.54084  1.0000
  H   H20       1.0  0.57335  0.54411  0.44589  1.0000
  H   H21       1.0  0.20675  0.47335  0.35731  1.0000
  H   H22       1.0  0.41013999999999984  0.7093199999999997  0.38497999999999993  1.0000
  H   H23       1.0  0.52486  0.33005  0.37329  1.0000
  H   H24       1.0  0.44376  0.23562  0.43229999999999996  1.0000
  H   H25       1.0  0.8957599999999998  0.13485999999999995  0.10704  1.0000
  H   H26       1.0  0.85517  0.04509999999999999  0.07913  1.0000
  H   H27       1.0  0.26357  0.53729  0.16069  1.0000
  H   H28       1.0  0.1169999999999999  0.5373799999999997  0.15335  1.0000
  H   H29       1.0  0.85723  0.04356000000000001  0.9077900000000001  1.0000
  H   H30       1.0  0.71405  0.05030999999999999  0.9001  1.0000
  H   H31       1.0  0.52411  0.34452  0.14608  1.0000
  H   H32       1.0  0.55574  0.4343899999999999  0.1721  1.0000
  H   H33       1.0  0.39021  0.03378  0.20192  1.0000
  H   H34       1.0  0.6754899999999999  0.9547999999999999  0.11099  1.0000
  H   H35       1.0  0.72953  0.19258  0.14525  1.0000
  H   H36       1.0  0.05767  0.28606  0.31106  1.0000
  H   H37       1.0  0.95528  0.46317  0.22724  1.0000
  H   H38       1.0  0.3310099999999999  0.44826  0.21132  1.0000
  H   H39       1.0  0.6330999999999998  0.7846999999999997  0.04581  1.0000
  H   H40       1.0  0.92026  0.9604499999999999  0.9675200000000002  1.0000
  H   H41       1.0  0.53655  0.96221  0.9587899999999999  1.0000
  H   H42       1.0  0.028599999999999987  0.45545  0.05377  1.0000
  H   H43       1.0  0.73445  0.52752  0.14246  1.0000
  H   H44       1.0  0.69946  0.29131  0.11463999999999999  1.0000
  H   H45       1.0  0.80683  0.32922999999999997  0.87288  1.0000
  H   H46       1.0  0.78963  0.23216  0.9301  1.0000
  H   H47       1.0  0.23437000000000002  0.13197  0.60633  1.0000
  H   H48       1.0  0.18923  0.04299000000000001  0.57672  1.0000
  H   H49       1.0  0.27547  0.53939  0.66225  1.0000
  H   H50       1.0  0.4212699999999999  0.53786  0.65452  1.0000
  H   H51       1.0  0.1839  0.04299999999999999  0.40887999999999997  1.0000
  H   H52       1.0  0.33388  0.04973999999999999  0.4006199999999999  1.0000
  H   H53       1.0  0.81575  0.34134  0.64801  1.0000
  H   H54       1.0  0.87928  0.43144  0.67183  1.0000
  H   H55       1.0  0.64291  0.03478  0.70239  1.0000
  H   H56       1.0  0.2789899999999999  0.9535699999999999  0.61086  1.0000
  H   H57       1.0  0.45939  0.19184999999999997  0.64446  1.0000
  H   H58       1.0  0.22808999999999996  0.2854799999999999  0.81043  1.0000
  H   H59       1.0  0.50785  0.46299  0.7279  1.0000
  H   H60       1.0  0.11781999999999995  0.44933  0.71184  1.0000
  H   H61       1.0  0.15253999999999993  0.7844  0.54642  1.0000
  H   H62       1.0  0.039779999999999954  0.9603699999999998  0.46886  1.0000
  H   H63       1.0  0.4247699999999999  0.96169  0.45865999999999996  1.0000
  H   H64       1.0  0.42758999999999997  0.4565199999999999  0.55427  1.0000
  H   H65       1.0  0.79414  0.52704  0.64286  1.0000
  H   H66       1.0  0.59092  0.2912199999999999  0.61505  1.0000
  H   H67       1.0  0.47529000000000005  0.67022  0.62657  1.0000
  H   H68       1.0  0.5589999999999999  0.7672199999999998  0.56871  1.0000
  H   H69       1.0  0.10419999999999993  0.86516  0.89299  1.0000
  H   H70       1.0  0.1447499999999999  0.95492  0.92091  1.0000
  H   H71       1.0  0.73662  0.4627899999999999  0.8394600000000001  1.0000
  H   H72       1.0  0.88314  0.46262999999999993  0.84679  1.0000
  H   H73       1.0  0.14274999999999993  0.9564499999999999  0.09222  1.0000
  H   H74       1.0  0.28592  0.94968  0.09993  1.0000
  H   H75       1.0  0.47582  0.65553  0.8538399999999999  1.0000
  H   H76       1.0  0.44421  0.56569  0.8277800000000001  1.0000
  H   H77       1.0  0.60978  0.9663099999999999  0.7981399999999998  1.0000
  H   H78       1.0  0.32444  0.04525  0.88903  1.0000
  H   H79       1.0  0.2704399999999999  0.8074799999999998  0.8547700000000001  1.0000
  H   H80       1.0  0.9422700000000002  0.7138  0.68886  1.0000
  H   H81       1.0  0.04491000000000001  0.53686  0.7728099999999999  1.0000
  H   H82       1.0  0.6691200000000002  0.55166  0.78875  1.0000
  H   H83       1.0  0.36689  0.21530999999999992  0.95422  1.0000
  H   H84       1.0  0.07972  0.03954  0.03249  1.0000
  H   H85       1.0  0.4634499999999999  0.0378  0.04124  1.0000
  H   H86       1.0  0.97145  0.54455  0.94625  1.0000
  H   H87       1.0  0.26558  0.47251999999999994  0.85751  1.0000
  H   H88       1.0  0.3004999999999998  0.7087199999999998  0.8853199999999999  1.0000
  C   C1        1.0  0.43879999999999986  0.8804699999999998  0.32245  1.0000
  C   C2        1.0  0.43634  0.95472  0.31977  1.0000
  C   C3        1.0  0.53914  0.014120000000000008  0.34307  1.0000
  C   C4        1.0  0.64164  0.9994899999999999  0.37136  1.0000
  C   C5        1.0  0.63978  0.9253699999999999  0.37765  1.0000
  C   C6        1.0  0.54021  0.86591  0.35148  1.0000
  C   C7        1.0  0.3360499999999999  0.81666  0.29167  1.0000
  C   C8        1.0  0.541  0.09369999999999999  0.33974  1.0000
  C   C9        1.0  0.84174  0.6376599999999999  0.23913  1.0000
  C   C10       1.0  0.7478600000000001  0.66517  0.21636999999999998  1.0000
  C   C11       1.0  0.62236  0.6281199999999998  0.22821  1.0000
  C   C12       1.0  0.59001  0.56357  0.26199  1.0000
  C   C13       1.0  0.6829699999999999  0.53451  0.2832  1.0000
  C   C14       1.0  0.80859  0.5722399999999997  0.27182  1.0000
  C   C15       1.0  0.97762  0.67558  0.2272  1.0000
  C   C16       1.0  0.5193999999999998  0.6563599999999998  0.20596  1.0000
  C   C17       1.0  0.69922  0.13041  0.49636  1.0000
  C   C18       1.0  0.8221599999999999  0.16393999999999997  0.47803  1.0000
  C   C19       1.0  0.9147299999999998  0.13011  0.49075  1.0000
  C   C20       1.0  0.88423  0.06379  0.5218  1.0000
  C   C21       1.0  0.76195  0.029900000000000006  0.54029  1.0000
  C   C22       1.0  0.66919  0.0635  0.52739  1.0000
  C   C23       1.0  0.59528  0.16219  0.481  1.0000
  C   C24       1.0  0.04764999999999998  0.16357999999999995  0.47328999999999993  1.0000
  C   C25       1.0  0.50303  0.6331  0.41803  1.0000
  C   C26       1.0  0.49704  0.55769  0.42298  1.0000
  C   C27       1.0  0.3902  0.50064  0.40075999999999995  1.0000
  C   C28       1.0  0.29015  0.51855  0.37301  1.0000
  C   C29       1.0  0.2989599999999999  0.5935299999999998  0.36596  1.0000
  C   C30       1.0  0.40442999999999996  0.65087  0.38924  1.0000
  C   C31       1.0  0.61007  0.69491  0.44748999999999994  1.0000
  C   C32       1.0  0.38019  0.42004  0.40722  1.0000
  C   C33       1.0  0.55599  0.11972999999999999  0.17723  1.0000
  C   C34       1.0  0.48084  0.04526999999999999  0.18011  1.0000
  C   C35       1.0  0.52563  0.98639  0.15696  1.0000
  C   C36       1.0  0.64239  0.0014899999999999998  0.12855  1.0000
  C   C37       1.0  0.71342  0.07576  0.12216  1.0000
  C   C38       1.0  0.67204  0.13482  0.14827  1.0000
  C   C39       1.0  0.51555  0.18295  0.20803  1.0000
  C   C40       1.0  0.4491800000000001  0.90675  0.16038  1.0000
  C   C41       1.0  0.20390999999999995  0.3620599999999999  0.2608  1.0000
  C   C42       1.0  0.0827  0.33499  0.28371  1.0000
  C   C43       1.0  0.9941899999999999  0.3721  0.27152  1.0000
  C   C44       1.0  0.026309999999999927  0.4363499999999999  0.23734  1.0000
  C   C45       1.0  0.14813  0.46488  0.21599000000000002  1.0000
  C   C46       1.0  0.23591000000000004  0.42709  0.22764999999999996  1.0000
  C   C47       1.0  0.30256  0.32461  0.27298  1.0000
  C   C48       1.0  0.86309  0.34456  0.29408  1.0000
  C   C49       1.0  0.57023  0.87005  0.00355  1.0000
  C   C50       1.0  0.6596799999999998  0.8362499999999998  0.02171  1.0000
  C   C51       1.0  0.78604  0.8695799999999999  0.00866  1.0000
  C   C52       1.0  0.82196  0.9359599999999999  0.9776999999999999  1.0000
  C   C53       1.0  0.73357  0.97017  0.9594200000000002  1.0000
  C   C54       1.0  0.6073199999999999  0.9368799999999999  0.97242  1.0000
  C   C55       1.0  0.4342299999999999  0.8383099999999999  0.0185  1.0000
  C   C56       1.0  0.8847699999999998  0.8349999999999997  0.025480000000000003  1.0000
  C   C57       1.0  0.8687599999999999  0.36692  0.08141  1.0000
  C   C58       1.0  0.9389199999999998  0.4422  0.07672  1.0000
  C   C59       1.0  0.88974  0.49949999999999994  0.09902999999999999  1.0000
  C   C60       1.0  0.77213  0.48208999999999996  0.12673  1.0000
  C   C61       1.0  0.7054299999999999  0.40733  0.13371  1.0000
  C   C62       1.0  0.7526799999999999  0.34962  0.11031999999999999  1.0000
  C   C63       1.0  0.91316  0.30507  0.05134999999999999  1.0000
  C   C64       1.0  0.95993  0.5799899999999998  0.09284  1.0000
  C   C65       1.0  0.56086  0.1197  0.67732  1.0000
  C   C66       1.0  0.56312  0.04546  0.68033  1.0000
  C   C67       1.0  0.46045  0.98603  0.65697  1.0000
  C   C68       1.0  0.35822  0.0005800000000000087  0.62838  1.0000
  C   C69       1.0  0.36035  0.07465999999999999  0.62158  1.0000
  C   C70       1.0  0.45980999999999994  0.13419999999999999  0.64777  1.0000
  C   C71       1.0  0.66368  0.18344999999999997  0.70821  1.0000
  C   C72       1.0  0.4586299999999999  0.9064599999999999  0.66044  1.0000
  C   C73       1.0  0.15832999999999992  0.3623799999999998  0.7608799999999999  1.0000
  C   C74       1.0  0.25221999999999994  0.3348899999999999  0.78365  1.0000
  C   C75       1.0  0.37771  0.37191999999999986  0.77179  1.0000
  C   C76       1.0  0.41008  0.4364699999999999  0.73802  1.0000
  C   C77       1.0  0.31713  0.46554  0.71678  1.0000
  C   C78       1.0  0.19150000000000003  0.4278  0.72817  1.0000
  C   C79       1.0  0.02244999999999993  0.32442999999999983  0.77282  1.0000
  C   C80       1.0  0.48063999999999996  0.3436699999999999  0.7940599999999999  1.0000
  C   C81       1.0  0.29981  0.86966  0.50383  1.0000
  C   C82       1.0  0.17710999999999993  0.83608  0.52249  1.0000
  C   C83       1.0  0.08403000000000001  0.8695999999999999  0.50981  1.0000
  C   C84       1.0  0.11379999999999994  0.93587  0.47883  1.0000
  C   C85       1.0  0.23588  0.9699  0.46016  1.0000
  C   C86       1.0  0.3290899999999999  0.9364899999999998  0.47271  1.0000
  C   C87       1.0  0.4036299999999999  0.8372599999999998  0.51803  1.0000
  C   C88       1.0  0.9511299999999999  0.8352799999999999  0.52678  1.0000
  C   C89       1.0  0.49804  0.36741  0.58184  1.0000
  C   C90       1.0  0.50375  0.4427599999999999  0.57717  1.0000
  C   C91       1.0  0.61057  0.49971  0.59944  1.0000
  C   C92       1.0  0.71064  0.48186  0.62725  1.0000
  C   C93       1.0  0.7017  0.4069  0.63441  1.0000
  C   C94       1.0  0.59645  0.3496399999999999  0.61085  1.0000
  C   C95       1.0  0.39231000000000005  0.30573  0.5514  1.0000
  C   C96       1.0  0.6202899999999999  0.5801499999999999  0.59283  1.0000
  C   C97       1.0  0.44401000000000007  0.88033  0.8227700000000001  1.0000
  C   C98       1.0  0.5191399999999999  0.9547999999999999  0.81994  1.0000
  C   C99       1.0  0.47434  0.01368000000000002  0.8430900000000001  1.0000
  C   C100      1.0  0.35756000000000004  0.9985700000000002  0.87148  1.0000
  C   C101      1.0  0.28654  0.92429  0.8778599999999999  1.0000
  C   C102      1.0  0.32794000000000006  0.8652400000000001  0.85174  1.0000
  C   C103      1.0  0.4844099999999999  0.8170999999999998  0.79193  1.0000
  C   C104      1.0  0.55081  0.09330999999999998  0.83964  1.0000
  C   C105      1.0  0.7960900000000001  0.63778  0.73916  1.0000
  C   C106      1.0  0.91729  0.66489  0.71625  1.0000
  C   C107      1.0  0.005879999999999969  0.6278499999999999  0.72846  1.0000
  C   C108      1.0  0.9738399999999999  0.56363  0.7626900000000001  1.0000
  C   C109      1.0  0.8520400000000001  0.5351  0.78409  1.0000
  C   C110      1.0  0.7641900000000001  0.57282  0.77238  1.0000
  C   C111      1.0  0.69741  0.67519  0.72697  1.0000
  C   C112      1.0  0.13699  0.65546  0.7059  1.0000
  C   C113      1.0  0.4297599999999999  0.12995999999999994  0.99648  1.0000
  C   C114      1.0  0.3403  0.16374999999999995  0.97831  1.0000
  C   C115      1.0  0.21393999999999996  0.13042  0.9913499999999998  1.0000
  C   C116      1.0  0.17803  0.06404  0.02231  1.0000
  C   C117      1.0  0.26642  0.029829999999999995  0.04059  1.0000
  C   C118      1.0  0.39268  0.06312  0.02761  1.0000
  C   C119      1.0  0.56576  0.16171999999999995  0.98153  1.0000
  C   C120      1.0  0.11522  0.16499  0.97452  1.0000
  C   C121      1.0  0.13124  0.63309  0.9185899999999999  1.0000
  C   C122      1.0  0.06112000000000006  0.5578100000000001  0.9232900000000002  1.0000
  C   C123      1.0  0.11029999999999995  0.50052  0.9009699999999999  1.0000
  C   C124      1.0  0.22787999999999994  0.5179399999999998  0.8732399999999999  1.0000
  C   C125      1.0  0.29452  0.5927  0.86623  1.0000
  C   C126      1.0  0.24729  0.65041  0.8896399999999999  1.0000
  C   C127      1.0  0.08683000000000002  0.69494  0.94864  1.0000
  C   C128      1.0  0.04011000000000003  0.42002  0.90717  1.0000
  N   N1        1.0  0.73561  0.90976  0.41336  1.0000
  N   N2        1.0  0.64945  0.46632  0.31381  1.0000
  N   N3        1.0  0.73556  0.9601899999999999  0.56823  1.0000
  N   N4        1.0  0.20305  0.61207  0.33241  1.0000
  N   N5        1.0  0.8247400000000001  0.09135999999999997  0.08654  1.0000
  N   N6        1.0  0.18345999999999993  0.5327599999999999  0.18491  1.0000
  N   N7        1.0  0.7764100000000002  0.03978  0.93119  1.0000
  N   N8        1.0  0.5912  0.38988  0.16713  1.0000
  N   N9        1.0  0.26456  0.08974  0.58534  1.0000
  N   N10       1.0  0.3507  0.53372  0.68615  1.0000
  N   N11       1.0  0.26154  0.03928  0.43191  1.0000
  N   N12       1.0  0.79748  0.3882899999999999  0.66802  1.0000
  N   N13       1.0  0.17520999999999995  0.90867  0.91347  1.0000
  N   N14       1.0  0.8167  0.46727  0.81523  1.0000
  N   N15       1.0  0.22356999999999985  0.9602299999999999  0.06883  1.0000
  N   N16       1.0  0.40871999999999997  0.61018  0.83278  1.0000
  O   O1        1.0  0.35056  0.7515699999999998  0.2886  1.0000
  O   O2        1.0  0.2411499999999999  0.8323399999999997  0.26895  1.0000
  O   O3        1.0  0.43669  0.10849999999999997  0.34225  1.0000
  O   O4        1.0  0.64833  0.14275999999999997  0.33653  1.0000
  O   O5        1.0  0.05515999999999999  0.64283  0.24495000000000003  1.0000
  O   O6        1.0  0.006140000000000001  0.7374  0.19992  1.0000
  O   O7        1.0  0.5455799999999998  0.7052099999999999  0.16461  1.0000
  O   O8        1.0  0.41209999999999997  0.6288399999999998  0.22867999999999997  1.0000
  O   O9        1.0  0.48623000000000005  0.12391999999999999  0.49544  1.0000
  O   O10       1.0  0.61819  0.22455999999999998  0.45406  1.0000
  O   O11       1.0  0.07355000000000002  0.21864  0.43837  1.0000
  O   O12       1.0  0.12725  0.13431  0.49512  1.0000
  O   O13       1.0  0.6069699999999998  0.76245  0.44451  1.0000
  O   O14       1.0  0.69543  0.6762299999999998  0.47607  1.0000
  O   O15       1.0  0.47877  0.40051  0.41239  1.0000
  O   O16       1.0  0.26759  0.37496  0.40645  1.0000
  O   O17       1.0  0.25521000000000005  0.7051  0.15822  1.0000
  O   O18       1.0  0.14433  0.78914  0.08529  1.0000
  O   O19       1.0  0.59398  0.24850999999999998  0.21008  1.0000
  O   O20       1.0  0.40637  0.16730999999999996  0.23178000000000004  1.0000
  O   O21       1.0  0.33012  0.89161  0.15904  1.0000
  O   O22       1.0  0.50852  0.85797  0.16224  1.0000
  O   O23       1.0  0.41221  0.35697  0.25385  1.0000
  O   O24       1.0  0.27168  0.26425  0.30175  1.0000
  O   O25       1.0  0.84187  0.29763999999999996  0.33692  1.0000
  O   O26       1.0  0.78268  0.37107  0.27017  1.0000
  O   O27       1.0  0.36341  0.87613  0.00293  1.0000
  O   O28       1.0  0.39417  0.77603  0.04567  1.0000
  O   O29       1.0  0.85504  0.77995  0.06047000000000001  1.0000
  O   O30       1.0  0.9933  0.86242  0.0029399999999999995  1.0000
  O   O31       1.0  0.8425899999999998  0.23748  0.05403  1.0000
  O   O32       1.0  0.016669999999999963  0.3238199999999999  0.0226  1.0000
  O   O33       1.0  0.07821999999999998  0.59974  0.08879  1.0000
  O   O34       1.0  0.892  0.62483  0.09261  1.0000
  O   O35       1.0  0.5512  0.29482  0.3426  1.0000
  O   O36       1.0  0.35702999999999996  0.21379999999999993  0.41631999999999997  1.0000
  O   O37       1.0  0.64934  0.24858  0.71136  1.0000
  O   O38       1.0  0.75851  0.16765  0.7309  1.0000
  O   O39       1.0  0.5630100000000001  0.89173  0.658  1.0000
  O   O40       1.0  0.35139  0.85737  0.66357  1.0000
  O   O41       1.0  0.9449100000000001  0.35719  0.7551  1.0000
  O   O42       1.0  0.99388  0.26258  0.80006  1.0000
  O   O43       1.0  0.45441  0.29478  0.83538  1.0000
  O   O44       1.0  0.5879599999999999  0.3711999999999998  0.77137  1.0000
  O   O45       1.0  0.5116399999999998  0.8738499999999998  0.50115  1.0000
  O   O46       1.0  0.38181000000000004  0.77545  0.54588  1.0000
  O   O47       1.0  0.92632  0.78056  0.56208  1.0000
  O   O48       1.0  0.86983  0.8625  0.504  1.0000
  O   O49       1.0  0.39844  0.23861  0.55236  1.0000
  O   O50       1.0  0.30499  0.3239  0.52403  1.0000
  O   O51       1.0  0.52162  0.5995699999999998  0.5875  1.0000
  O   O52       1.0  0.73282  0.62523  0.59364  1.0000
  O   O53       1.0  0.74479  0.29487999999999986  0.8418  1.0000
  O   O54       1.0  0.85569  0.21085999999999996  0.9146699999999999  1.0000
  O   O55       1.0  0.40591999999999995  0.7515699999999998  0.78985  1.0000
  O   O56       1.0  0.5936499999999999  0.8326399999999999  0.76823  1.0000
  O   O57       1.0  0.66986  0.10841999999999997  0.84093  1.0000
  O   O58       1.0  0.49146999999999996  0.14207999999999996  0.8377599999999998  1.0000
  O   O59       1.0  0.58777  0.64297  0.74616  1.0000
  O   O60       1.0  0.72835  0.73551  0.69815  1.0000
  O   O61       1.0  0.1581899999999999  0.7023899999999997  0.66309  1.0000
  O   O62       1.0  0.21742000000000003  0.62895  0.72982  1.0000
  O   O63       1.0  0.63658  0.12389  0.99707  1.0000
  O   O64       1.0  0.60581  0.22402999999999995  0.9543899999999998  1.0000
  O   O65       1.0  0.14495  0.22003999999999996  0.93952  1.0000
  O   O66       1.0  0.006690000000000001  0.13758  0.99706  1.0000
  O   O67       1.0  0.15739999999999996  0.76253  0.94596  1.0000
  O   O68       1.0  0.9833299999999998  0.6761899999999997  0.97739  1.0000
  O   O69       1.0  0.92182  0.40027  0.91121  1.0000
  O   O70       1.0  0.10801999999999995  0.37517999999999996  0.9073900000000001  1.0000
  O   O71       1.0  0.44912  0.70549  0.65727  1.0000
  O   O72       1.0  0.6464999999999999  0.7889899999999997  0.58381  1.0000
