data_image0
_chemical_formula_structural       Zn8H96C108N16O32
_chemical_formula_sum              "Zn8 H96 C108 N16 O32"
_cell_length_a       11.03015
_cell_length_b       18.360740000000003
_cell_length_c       19.068690000000004
_cell_angle_alpha    108.29134999999998
_cell_angle_beta     89.91666000000001
_cell_angle_gamma    89.95413

_space_group_name_H-M_alt    "P 1"
_space_group_IT_number       1

loop_
  _space_group_symop_operation_xyz
  'x, y, z'

loop_
  _atom_site_type_symbol
  _atom_site_label
  _atom_site_symmetry_multiplicity
  _atom_site_fract_x
  _atom_site_fract_y
  _atom_site_fract_z
  _atom_site_occupancy
  Zn  Zn1       1.0  0.803  0.68557  0.97102  1.0000
  Zn  Zn2       1.0  0.80355  0.7878699999999998  0.87702  1.0000
  Zn  Zn3       1.0  0.6944  0.18618000000000004  0.47134  1.0000
  Zn  Zn4       1.0  0.69397  0.28881  0.37702  1.0000
  Zn  Zn5       1.0  0.30561  0.8138199999999999  0.52866  1.0000
  Zn  Zn6       1.0  0.30603  0.7111900000000001  0.6229800000000001  1.0000
  Zn  Zn7       1.0  0.197  0.31443  0.02898  1.0000
  Zn  Zn8       1.0  0.19646  0.21213  0.12298  1.0000
  H   H1        1.0  0.4908  0.38167  0.32585  1.0000
  H   H2        1.0  0.53687  0.4611799999999999  0.22601  1.0000
  H   H3        1.0  0.91528  0.32651  0.31184  1.0000
  H   H4        1.0  0.9350599999999999  0.3339699999999999  0.22182  1.0000
  H   H5        1.0  0.95736  0.4155  0.30064  1.0000
  H   H6        1.0  0.83566  0.40028  0.14792  1.0000
  H   H7        1.0  0.71706  0.46408999999999995  0.14746  1.0000
  H   H8        1.0  0.82304  0.57129  0.23787  1.0000
  H   H9        1.0  0.9267  0.50795  0.25911  1.0000
  H   H10       1.0  0.014999999999999998  0.47034999999999993  0.13302  1.0000
  H   H11       1.0  0.02891  0.56959  0.17955  1.0000
  H   H12       1.0  0.85783  0.42592  0.02535  1.0000
  H   H13       1.0  0.75858  0.50769  0.93726  1.0000
  H   H14       1.0  0.90806  0.7322  0.11945000000000001  1.0000
  H   H15       1.0  0.8979399999999998  0.69363  0.19435  1.0000
  H   H16       1.0  0.03401  0.68306  0.14232  1.0000
  H   H17       1.0  0.71855  0.99687  0.04692  1.0000
  H   H18       1.0  0.68038  0.11142  0.15785000000000002  1.0000
  H   H19       1.0  0.75978  0.9770699999999999  0.2998  1.0000
  H   H20       1.0  0.7940399999999999  0.86119  0.18848  1.0000
  H   H21       1.0  0.19323  0.78322  0.83609  1.0000
  H   H22       1.0  0.4174  0.77192  0.82993  1.0000
  H   H23       1.0  0.4168799999999999  0.69147  0.01844  1.0000
  H   H24       1.0  0.18931999999999996  0.70196  0.02414  1.0000
  H   H25       1.0  0.00847  0.8814499999999998  0.82603  1.0000
  H   H26       1.0  0.9630199999999999  0.9608599999999999  0.7262  1.0000
  H   H27       1.0  0.58428  0.82637  0.81178  1.0000
  H   H28       1.0  0.56506  0.83393  0.72178  1.0000
  H   H29       1.0  0.54219  0.91543  0.80062  1.0000
  H   H30       1.0  0.66477  0.90031  0.64786  1.0000
  H   H31       1.0  0.78326  0.9641100000000001  0.64753  1.0000
  H   H32       1.0  0.67635  0.07135000000000001  0.73764  1.0000
  H   H33       1.0  0.57311  0.008050000000000036  0.75928  1.0000
  H   H34       1.0  0.48494  0.97016  0.63321  1.0000
  H   H35       1.0  0.47035  0.06940999999999994  0.6798  1.0000
  H   H36       1.0  0.6419  0.9259599999999999  0.52523  1.0000
  H   H37       1.0  0.7411499999999999  0.007799999999999999  0.43714  1.0000
  H   H38       1.0  0.5911  0.23223  0.61991  1.0000
  H   H39       1.0  0.60122  0.19336000000000006  0.69456  1.0000
  H   H40       1.0  0.46509  0.18322  0.64291  1.0000
  H   H41       1.0  0.7801099999999999  0.49628  0.54666  1.0000
  H   H42       1.0  0.8196199999999999  0.61045  0.65758  1.0000
  H   H43       1.0  0.7406699999999999  0.47574  0.79945  1.0000
  H   H44       1.0  0.70457  0.36043  0.68803  1.0000
  H   H45       1.0  0.3058  0.28307  0.33608  1.0000
  H   H46       1.0  0.08149  0.27223  0.32994  1.0000
  H   H47       1.0  0.08016999999999999  0.19196  0.51846  1.0000
  H   H48       1.0  0.30797  0.20161999999999997  0.5241  1.0000
  H   H49       1.0  0.9915299999999999  0.11855000000000002  0.17397  1.0000
  H   H50       1.0  0.03698  0.03913999999999999  0.2738  1.0000
  H   H51       1.0  0.41572999999999993  0.17361999999999997  0.18822  1.0000
  H   H52       1.0  0.43493999999999994  0.16606  0.27822  1.0000
  H   H53       1.0  0.45782  0.08457  0.19938  1.0000
  H   H54       1.0  0.33524  0.09969  0.35214  1.0000
  H   H55       1.0  0.21673999999999996  0.03588999999999999  0.35246  1.0000
  H   H56       1.0  0.32365  0.92865  0.26236  1.0000
  H   H57       1.0  0.42689  0.9919499999999999  0.24072  1.0000
  H   H58       1.0  0.51506  0.029830000000000006  0.36679  1.0000
  H   H59       1.0  0.52965  0.93058  0.3202  1.0000
  H   H60       1.0  0.3581  0.07404  0.4747700000000001  1.0000
  H   H61       1.0  0.25886  0.9921999999999999  0.56285  1.0000
  H   H62       1.0  0.40889999999999993  0.76777  0.38009  1.0000
  H   H63       1.0  0.39878  0.80664  0.30544  1.0000
  H   H64       1.0  0.53491  0.81678  0.35709  1.0000
  H   H65       1.0  0.21989  0.50372  0.4533400000000001  1.0000
  H   H66       1.0  0.18037999999999998  0.38955  0.34242  1.0000
  H   H67       1.0  0.25933  0.52425  0.20055  1.0000
  H   H68       1.0  0.29543  0.63956  0.31197  1.0000
  H   H69       1.0  0.6942  0.71693  0.66392  1.0000
  H   H70       1.0  0.91852  0.72777  0.67006  1.0000
  H   H71       1.0  0.9198399999999999  0.80803  0.4815400000000001  1.0000
  H   H72       1.0  0.69203  0.79838  0.47590000000000005  1.0000
  H   H73       1.0  0.5092  0.6183200000000001  0.6741500000000001  1.0000
  H   H74       1.0  0.46312999999999993  0.53882  0.77399  1.0000
  H   H75       1.0  0.08472  0.6734899999999998  0.68816  1.0000
  H   H76       1.0  0.06495  0.66603  0.77818  1.0000
  H   H77       1.0  0.04265  0.5845  0.69936  1.0000
  H   H78       1.0  0.16435  0.59972  0.8520800000000001  1.0000
  H   H79       1.0  0.28295  0.5359  0.85254  1.0000
  H   H80       1.0  0.17696  0.4287  0.76213  1.0000
  H   H81       1.0  0.0733  0.49204999999999993  0.74089  1.0000
  H   H82       1.0  0.985  0.52965  0.86698  1.0000
  H   H83       1.0  0.9710999999999999  0.43041000000000007  0.82045  1.0000
  H   H84       1.0  0.14217  0.57408  0.97465  1.0000
  H   H85       1.0  0.24143  0.49231  0.06273  1.0000
  H   H86       1.0  0.09194  0.2678  0.88055  1.0000
  H   H87       1.0  0.10207  0.30637  0.80565  1.0000
  H   H88       1.0  0.96599  0.31693  0.85768  1.0000
  H   H89       1.0  0.28145  0.0031300000000000425  0.9530800000000001  1.0000
  H   H90       1.0  0.31962  0.88858  0.84215  1.0000
  H   H91       1.0  0.24022999999999997  0.022930000000000037  0.7002  1.0000
  H   H92       1.0  0.20597  0.13880000000000006  0.81152  1.0000
  H   H93       1.0  0.80677  0.21678  0.16391  1.0000
  H   H94       1.0  0.5826  0.22808000000000003  0.17007  1.0000
  H   H95       1.0  0.58313  0.3085300000000001  0.9815600000000001  1.0000
  H   H96       1.0  0.81069  0.2980400000000001  0.9758600000000001  1.0000
  C   C1        1.0  0.57496  0.39147000000000004  0.30100000000000005  1.0000
  C   C2        1.0  0.59684  0.43099  0.25219  1.0000
  C   C3        1.0  0.77106  0.38298  0.27826  1.0000
  C   C4        1.0  0.9015999999999998  0.36395  0.27774000000000004  1.0000
  C   C5        1.0  0.7855  0.45022  0.18284  1.0000
  C   C6        1.0  0.87309  0.51735  0.21421  1.0000
  C   C7        1.0  0.96333  0.52387  0.15522  1.0000
  C   C8        1.0  0.85308  0.48666999999999994  0.03233  1.0000
  C   C9        1.0  0.80561  0.52726  0.98957  1.0000
  C   C10       1.0  0.8883899999999999  0.61157  0.08567  1.0000
  C   C11       1.0  0.93458  0.68402  0.13854  1.0000
  C   C12       1.0  0.78005  0.85352  0.04427  1.0000
  C   C13       1.0  0.75869  0.92222  0.11112999999999999  1.0000
  C   C14       1.0  0.72679  0.9929200000000001  0.10245  1.0000
  C   C15       1.0  0.70604  0.056690000000000004  0.16416  1.0000
  C   C16       1.0  0.718  0.051250000000000004  0.23558000000000004  1.0000
  C   C17       1.0  0.69814  0.1204  0.30218000000000006  1.0000
  C   C18       1.0  0.7500299999999999  0.98042  0.24415  1.0000
  C   C19       1.0  0.76969  0.91639  0.18253  1.0000
  C   C20       1.0  0.04087  0.74289  0.92994  1.0000
  C   C21       1.0  0.177  0.7428  0.9303700000000001  1.0000
  C   C22       1.0  0.24203  0.76353  0.87629  1.0000
  C   C23       1.0  0.36795999999999995  0.75752  0.87312  1.0000
  C   C24       1.0  0.4312  0.7315  0.92441  1.0000
  C   C25       1.0  0.56719  0.7268999999999999  0.9225799999999998  1.0000
  C   C26       1.0  0.36639999999999995  0.71138  0.979  1.0000
  C   C27       1.0  0.24051999999999998  0.7171400000000001  0.9819700000000001  1.0000
  C   C28       1.0  0.92438  0.8911399999999999  0.80117  1.0000
  C   C29       1.0  0.90287  0.93072  0.75237  1.0000
  C   C30       1.0  0.7285799999999999  0.88278  0.77828  1.0000
  C   C31       1.0  0.59811  0.8638499999999999  0.77772  1.0000
  C   C32       1.0  0.71463  0.9501899999999999  0.68288  1.0000
  C   C33       1.0  0.62662  0.017339999999999998  0.71421  1.0000
  C   C34       1.0  0.53621  0.023750000000000004  0.65535  1.0000
  C   C35       1.0  0.64649  0.9867099999999999  0.53222  1.0000
  C   C36       1.0  0.69383  0.02739000000000004  0.48946000000000006  1.0000
  C   C37       1.0  0.6107  0.11157999999999998  0.58577  1.0000
  C   C38       1.0  0.56451  0.18399000000000001  0.63888  1.0000
  C   C39       1.0  0.71726  0.35302  0.5443  1.0000
  C   C40       1.0  0.73981  0.42162  0.61088  1.0000
  C   C41       1.0  0.7722199999999999  0.49222  0.60219  1.0000
  C   C42       1.0  0.79374  0.55576  0.66392  1.0000
  C   C43       1.0  0.78234  0.55005  0.73534  1.0000
  C   C44       1.0  0.80216  0.6190200000000001  0.8020200000000001  1.0000
  C   C45       1.0  0.74997  0.47931000000000007  0.74385  1.0000
  C   C46       1.0  0.72934  0.41558  0.68221  1.0000
  C   C47       1.0  0.45683  0.24291000000000001  0.42998  1.0000
  C   C48       1.0  0.3209  0.2427  0.43046  1.0000
  C   C49       1.0  0.25657  0.26351  0.37629  1.0000
  C   C50       1.0  0.13072  0.25777000000000005  0.3730800000000001  1.0000
  C   C51       1.0  0.06694  0.23207000000000003  0.42445  1.0000
  C   C52       1.0  0.93089  0.22822000000000003  0.42253  1.0000
  C   C53       1.0  0.13112  0.21166  0.47901  1.0000
  C   C54       1.0  0.25704  0.21699  0.48196999999999995  1.0000
  C   C55       1.0  0.07563  0.10886  0.19883  1.0000
  C   C56       1.0  0.09714  0.06927  0.24763  1.0000
  C   C57       1.0  0.27142  0.11722000000000003  0.22172000000000003  1.0000
  C   C58       1.0  0.40189  0.13615  0.22228  1.0000
  C   C59       1.0  0.28538  0.049810000000000014  0.31712  1.0000
  C   C60       1.0  0.37338  0.9826600000000002  0.28579000000000004  1.0000
  C   C61       1.0  0.46379  0.97625  0.34465000000000007  1.0000
  C   C62       1.0  0.35352  0.013289999999999995  0.46778  1.0000
  C   C63       1.0  0.30617  0.97261  0.51054  1.0000
  C   C64       1.0  0.3893  0.88842  0.41423  1.0000
  C   C65       1.0  0.4355  0.8160000000000001  0.36112000000000005  1.0000
  C   C66       1.0  0.28275  0.64698  0.4557  1.0000
  C   C67       1.0  0.2602  0.5783799999999999  0.38912  1.0000
  C   C68       1.0  0.22777999999999998  0.50778  0.39781  1.0000
  C   C69       1.0  0.20625999999999997  0.44423  0.33608  1.0000
  C   C70       1.0  0.21766999999999997  0.44995  0.26466000000000006  1.0000
  C   C71       1.0  0.19784999999999997  0.38098  0.19798  1.0000
  C   C72       1.0  0.25004  0.52069  0.25615  1.0000
  C   C73       1.0  0.27066  0.58442  0.31779  1.0000
  C   C74       1.0  0.54317  0.7570900000000002  0.57002  1.0000
  C   C75       1.0  0.6791  0.7573  0.56954  1.0000
  C   C76       1.0  0.7434299999999999  0.73649  0.62371  1.0000
  C   C77       1.0  0.86929  0.74223  0.62692  1.0000
  C   C78       1.0  0.93307  0.76793  0.57555  1.0000
  C   C79       1.0  0.06911  0.77178  0.57747  1.0000
  C   C80       1.0  0.86888  0.78834  0.5209900000000001  1.0000
  C   C81       1.0  0.74296  0.78301  0.5180300000000001  1.0000
  C   C82       1.0  0.42505  0.60852  0.699  1.0000
  C   C83       1.0  0.4031699999999999  0.56901  0.74781  1.0000
  C   C84       1.0  0.22895  0.61702  0.72174  1.0000
  C   C85       1.0  0.09841  0.63605  0.72226  1.0000
  C   C86       1.0  0.2145  0.54978  0.81716  1.0000
  C   C87       1.0  0.12691  0.48265  0.78579  1.0000
  C   C88       1.0  0.03667  0.47613000000000005  0.84478  1.0000
  C   C89       1.0  0.14692  0.5133300000000001  0.9676700000000001  1.0000
  C   C90       1.0  0.1944  0.47274  0.01043  1.0000
  C   C91       1.0  0.11160999999999999  0.38843  0.91433  1.0000
  C   C92       1.0  0.06542  0.31598  0.86146  1.0000
  C   C93       1.0  0.21995  0.14646999999999993  0.95573  1.0000
  C   C94       1.0  0.24131  0.07778  0.88887  1.0000
  C   C95       1.0  0.27321  0.0070799999999999795  0.89755  1.0000
  C   C96       1.0  0.29396  0.9433099999999999  0.83584  1.0000
  C   C97       1.0  0.28201  0.94875  0.76442  1.0000
  C   C98       1.0  0.30186  0.8796  0.69782  1.0000
  C   C99       1.0  0.24998  0.019569999999999962  0.75585  1.0000
  C   C100      1.0  0.23031  0.08361  0.81747  1.0000
  C   C101      1.0  0.95913  0.25711  0.07006  1.0000
  C   C102      1.0  0.823  0.2572  0.06963  1.0000
  C   C103      1.0  0.75797  0.23646  0.12371000000000001  1.0000
  C   C104      1.0  0.63205  0.24247999999999997  0.12688  1.0000
  C   C105      1.0  0.5688  0.2685  0.07559  1.0000
  C   C106      1.0  0.43281  0.27309000000000005  0.07742  1.0000
  C   C107      1.0  0.6336  0.28862  0.021  1.0000
  C   C108      1.0  0.7594899999999999  0.28286  0.01803  1.0000
  N   N1        1.0  0.68359  0.36189  0.31674  1.0000
  N   N2        1.0  0.72082  0.42572000000000004  0.23853  1.0000
  N   N3        1.0  0.90493  0.54052  0.09297  1.0000
  N   N4        1.0  0.82783  0.60462  0.02306  1.0000
  N   N5        1.0  0.8156699999999999  0.86149  0.81677  1.0000
  N   N6        1.0  0.77899  0.9255600000000002  0.73859  1.0000
  N   N7        1.0  0.59435  0.040479999999999995  0.59298  1.0000
  N   N8        1.0  0.67127  0.10474  0.52307  1.0000
  N   N9        1.0  0.18434  0.13851  0.18323  1.0000
  N   N10       1.0  0.22101999999999997  0.07444000000000002  0.26141  1.0000
  N   N11       1.0  0.40566  0.95952  0.40702  1.0000
  N   N12       1.0  0.32874  0.89526  0.47693  1.0000
  N   N13       1.0  0.31641  0.63811  0.68326  1.0000
  N   N14       1.0  0.27918  0.57428  0.76147  1.0000
  N   N15       1.0  0.09507  0.45948000000000006  0.9070300000000001  1.0000
  N   N16       1.0  0.17218  0.39538  0.97694  1.0000
  O   O1        1.0  0.79419  0.78892  0.05549  1.0000
  O   O2        1.0  0.78173  0.8653999999999998  0.9821899999999999  1.0000
  O   O3        1.0  0.68448  0.1849  0.29138  1.0000
  O   O4        1.0  0.6965599999999998  0.1085  0.36467  1.0000
  O   O5        1.0  0.98845  0.78167  0.89395  1.0000
  O   O6        1.0  0.98918  0.70152  0.9639399999999999  1.0000
  O   O7        1.0  0.62129  0.76031  0.88214  1.0000
  O   O8        1.0  0.61747  0.69069  0.96189  1.0000
  O   O9        1.0  0.70227  0.28857000000000005  0.5557600000000001  1.0000
  O   O10       1.0  0.7156  0.36461  0.48214  1.0000
  O   O11       1.0  0.8131999999999999  0.68361  0.79123  1.0000
  O   O12       1.0  0.80602  0.607  0.86449  1.0000
  O   O13       1.0  0.50899  0.28344  0.39566  1.0000
  O   O14       1.0  0.50858  0.19986  0.46215000000000006  1.0000
  O   O15       1.0  0.8778499999999999  0.26182  0.38194  1.0000
  O   O16       1.0  0.87983  0.19259  0.46209  1.0000
  O   O17       1.0  0.29773  0.71142  0.44424  1.0000
  O   O18       1.0  0.2844  0.63539  0.51786  1.0000
  O   O19       1.0  0.18679999999999997  0.31639  0.20877000000000004  1.0000
  O   O20       1.0  0.19399  0.393  0.1355  1.0000
  O   O21       1.0  0.49101  0.7165599999999999  0.60434  1.0000
  O   O22       1.0  0.49142  0.80014  0.53785  1.0000
  O   O23       1.0  0.12216  0.73818  0.61806  1.0000
  O   O24       1.0  0.12016999999999999  0.8074  0.53791  1.0000
  O   O25       1.0  0.20581999999999998  0.21108  0.94451  1.0000
  O   O26       1.0  0.21828  0.13459  0.01781  1.0000
  O   O27       1.0  0.31552  0.8151000000000002  0.70862  1.0000
  O   O28       1.0  0.30345  0.89149  0.63533  1.0000
  O   O29       1.0  0.011559999999999999  0.21832000000000001  0.10605  1.0000
  O   O30       1.0  0.01083  0.29847  0.03606  1.0000
  O   O31       1.0  0.37871  0.23969  0.11786  1.0000
  O   O32       1.0  0.38253999999999994  0.3093  0.03811  1.0000
