data_image0
_chemical_formula_structural       Ni12H106C166N14O54
_chemical_formula_sum              "Ni12 H106 C166 N14 O54"
_cell_length_a       10.94231
_cell_length_b       22.071490000000004
_cell_length_c       28.50529
_cell_angle_alpha    101.16882
_cell_angle_beta     99.70076
_cell_angle_gamma    100.64252

_space_group_name_H-M_alt    "P 1"
_space_group_IT_number       1

loop_
  _space_group_symop_operation_xyz
  'x, y, z'

loop_
  _atom_site_type_symbol
  _atom_site_label
  _atom_site_symmetry_multiplicity
  _atom_site_fract_x
  _atom_site_fract_y
  _atom_site_fract_z
  _atom_site_occupancy
  Ni  Ni1       1.0  0.39578  0.8927400000000001  0.18878  1.0000
  Ni  Ni2       1.0  0.30503  0.022640000000000007  0.16311  1.0000
  Ni  Ni3       1.0  0.34136000000000005  0.20094000000000004  0.51746  1.0000
  Ni  Ni4       1.0  0.25698999999999994  0.33459999999999995  0.4987399999999999  1.0000
  Ni  Ni5       1.0  0.2035299999999998  0.6440199999999999  0.8347099999999997  1.0000
  Ni  Ni6       1.0  0.28585999999999984  0.5100999999999999  0.8557999999999999  1.0000
  Ni  Ni7       1.0  0.60422  0.10727000000000005  0.81122  1.0000
  Ni  Ni8       1.0  0.6949699999999998  0.97737  0.8368899999999999  1.0000
  Ni  Ni9       1.0  0.65864  0.7990700000000001  0.4825399999999999  1.0000
  Ni  Ni10      1.0  0.74301  0.6654  0.50126  1.0000
  Ni  Ni11      1.0  0.7964800000000001  0.35599  0.16529  1.0000
  Ni  Ni12      1.0  0.71414  0.48991000000000007  0.14419999999999997  1.0000
  H   H1        1.0  0.9257399999999999  0.9761900000000001  0.19711  1.0000
  H   H2        1.0  0.05461000000000004  0.8024000000000001  0.18962999999999994  1.0000
  H   H3        1.0  0.66027  0.8024200000000001  0.18760999999999994  1.0000
  H   H4        1.0  0.9022200000000001  0.59821  0.22168999999999997  1.0000
  H   H5        1.0  0.96723  0.71714  0.23909999999999998  1.0000
  H   H6        1.0  0.66405  0.70981  0.11845  1.0000
  H   H7        1.0  0.61469  0.59124  0.10571999999999998  1.0000
  H   H8        1.0  0.45719  0.58298  0.15647  1.0000
  H   H9        1.0  0.07134999999999986  0.5860899999999999  0.16945999999999994  1.0000
  H   H10       1.0  0.18878  0.40914  0.14338  1.0000
  H   H11       1.0  0.45368999999999987  0.7829899999999997  0.12819999999999998  1.0000
  H   H12       1.0  0.41019  0.66483  0.11524  1.0000
  H   H13       1.0  0.19466999999999998  0.68228  0.2289  1.0000
  H   H14       1.0  0.24673000000000003  0.79968  0.23662999999999998  1.0000
  H   H15       1.0  0.35567  0.79407  0.03325  1.0000
  H   H16       1.0  0.10456  0.7905200000000001  0.8994399999999998  1.0000
  H   H17       1.0  0.15071999999999985  0.94191  0.026229999999999993  1.0000
  H   H18       1.0  0.72422  0.84716  0.8527  1.0000
  H   H19       1.0  0.8854899999999999  0.80219  0.8998499999999998  1.0000
  H   H20       1.0  0.11318000000000003  0.99281  0.95546  1.0000
  H   H21       1.0  0.9437399999999998  0.02938999999999993  0.9053499999999998  1.0000
  H   H22       1.0  0.21060999999999996  0.16917  0.22404999999999994  1.0000
  H   H23       1.0  0.14633999999999991  0.27116999999999997  0.3593899999999999  1.0000
  H   H24       1.0  0.38742  0.13791  0.36055999999999994  1.0000
  H   H25       1.0  0.02979000000000002  0.31038  0.15604999999999997  1.0000
  H   H26       1.0  0.18203  0.25932  0.20131  1.0000
  H   H27       1.0  0.9531699999999999  0.26228  0.31097999999999987  1.0000
  H   H28       1.0  0.8129499999999998  0.31442000000000003  0.26153  1.0000
  H   H29       1.0  0.60959  0.11058  0.52561  1.0000
  H   H30       1.0  0.9947899999999998  0.10948999999999998  0.51057  1.0000
  H   H31       1.0  0.86918  0.28448000000000007  0.5318999999999999  1.0000
  H   H32       1.0  0.59754  0.90881  0.54592  1.0000
  H   H33       1.0  0.6466899999999999  0.027060000000000008  0.56217  1.0000
  H   H34       1.0  0.87908  0.012879999999999963  0.4537799999999999  1.0000
  H   H35       1.0  0.81946  0.89548  0.44213  1.0000
  H   H36       1.0  0.34553999999999985  0.4520099999999999  0.6968199999999998  1.0000
  H   H37       1.0  0.10563999999999991  0.5854  0.6949999999999998  1.0000
  H   H38       1.0  0.17046  0.48297  0.55977  1.0000
  H   H39       1.0  0.76644  0.6249  0.5980399999999998  1.0000
  H   H40       1.0  0.9116399999999999  0.57553  0.6475699999999998  1.0000
  H   H41       1.0  0.13158  0.56947  0.5348  1.0000
  H   H42       1.0  0.9758499999999999  0.61861  0.48996  1.0000
  H   H43       1.0  0.08499000000000004  0.4542300000000001  0.90694  1.0000
  H   H44       1.0  0.06022000000000003  0.44975  0.99219  1.0000
  H   H45       1.0  0.2426  0.50739  0.06248999999999998  1.0000
  H   H46       1.0  0.44192999999999993  0.56524  0.04387999999999999  1.0000
  H   H47       1.0  0.44985  0.5652  0.95628  1.0000
  H   H48       1.0  0.5458999999999999  0.9963600000000001  0.19942  1.0000
  H   H49       1.0  0.4493  0.019200000000000002  0.23826  1.0000
  H   H50       1.0  0.49364  0.30491999999999997  0.5372599999999998  1.0000
  H   H51       1.0  0.3947  0.32686  0.57426  1.0000
  H   H52       1.0  0.35415999999999986  0.6427299999999999  0.9111499999999999  1.0000
  H   H53       1.0  0.44067999999999996  0.6159399999999999  0.8704199999999997  1.0000
  H   H54       1.0  0.07425999999999991  0.023819999999999935  0.8028899999999998  1.0000
  H   H55       1.0  0.9453899999999998  0.19761  0.81037  1.0000
  H   H56       1.0  0.3397299999999998  0.19757999999999995  0.8123899999999997  1.0000
  H   H57       1.0  0.09777999999999998  0.4018  0.77831  1.0000
  H   H58       1.0  0.03278000000000004  0.28287  0.7609  1.0000
  H   H59       1.0  0.33594999999999997  0.29020000000000007  0.88155  1.0000
  H   H60       1.0  0.38531000000000004  0.4087700000000001  0.8942799999999999  1.0000
  H   H61       1.0  0.5428099999999999  0.41703000000000007  0.8435199999999998  1.0000
  H   H62       1.0  0.9286499999999999  0.41390999999999994  0.8305299999999999  1.0000
  H   H63       1.0  0.81122  0.5908599999999999  0.8566199999999999  1.0000
  H   H64       1.0  0.5463100000000001  0.21701000000000006  0.8718  1.0000
  H   H65       1.0  0.58981  0.3351799999999999  0.88476  1.0000
  H   H66       1.0  0.8053299999999999  0.31773  0.7711  1.0000
  H   H67       1.0  0.75327  0.20032999999999998  0.7633699999999998  1.0000
  H   H68       1.0  0.6443299999999998  0.20592999999999992  0.9667499999999998  1.0000
  H   H69       1.0  0.89544  0.20948000000000003  0.10056  1.0000
  H   H70       1.0  0.8492799999999997  0.05809999999999996  0.9737699999999999  1.0000
  H   H71       1.0  0.27577999999999997  0.15285  0.14729999999999993  1.0000
  H   H72       1.0  0.11451  0.19782  0.10014999999999998  1.0000
  H   H73       1.0  0.8868200000000002  0.007190000000000004  0.04454  1.0000
  H   H74       1.0  0.05626000000000003  0.97062  0.09464999999999997  1.0000
  H   H75       1.0  0.78939  0.8308400000000002  0.77595  1.0000
  H   H76       1.0  0.85366  0.7288399999999999  0.64061  1.0000
  H   H77       1.0  0.61258  0.8621  0.63944  1.0000
  H   H78       1.0  0.9702099999999998  0.6896200000000001  0.84395  1.0000
  H   H79       1.0  0.81797  0.7406800000000001  0.79869  1.0000
  H   H80       1.0  0.046829999999999955  0.73773  0.6890199999999999  1.0000
  H   H81       1.0  0.1870499999999999  0.6855899999999999  0.73847  1.0000
  H   H82       1.0  0.39041  0.88943  0.47438999999999987  1.0000
  H   H83       1.0  0.005209999999999908  0.89051  0.48942999999999987  1.0000
  H   H84       1.0  0.13082  0.71553  0.46809999999999996  1.0000
  H   H85       1.0  0.4024599999999999  0.09118999999999997  0.45407999999999993  1.0000
  H   H86       1.0  0.3533100000000001  0.9729500000000002  0.43783  1.0000
  H   H87       1.0  0.12091999999999985  0.98712  0.54622  1.0000
  H   H88       1.0  0.18055  0.10453000000000003  0.55787  1.0000
  H   H89       1.0  0.6544600000000002  0.548  0.30318  1.0000
  H   H90       1.0  0.89437  0.41461  0.3049999999999999  1.0000
  H   H91       1.0  0.82954  0.51703  0.4402299999999999  1.0000
  H   H92       1.0  0.23356  0.37511  0.40196  1.0000
  H   H93       1.0  0.08836  0.4244800000000001  0.35243  1.0000
  H   H94       1.0  0.8684199999999999  0.4305399999999999  0.4651999999999999  1.0000
  H   H95       1.0  0.02416000000000003  0.3813900000000001  0.51004  1.0000
  H   H96       1.0  0.91501  0.54578  0.09306  1.0000
  H   H97       1.0  0.9397800000000001  0.55026  0.00781  1.0000
  H   H98       1.0  0.7574  0.4926199999999999  0.9375099999999997  1.0000
  H   H99       1.0  0.55807  0.43477  0.95612  1.0000
  H   H100      1.0  0.55015  0.4348100000000001  0.04372  1.0000
  H   H101      1.0  0.45411  0.0036500000000000213  0.80058  1.0000
  H   H102      1.0  0.5507  0.98081  0.7617399999999999  1.0000
  H   H103      1.0  0.50636  0.69509  0.46274  1.0000
  H   H104      1.0  0.6053  0.67314  0.4257399999999999  1.0000
  H   H105      1.0  0.64584  0.35728  0.08885  1.0000
  H   H106      1.0  0.5593200000000002  0.38407  0.12957  1.0000
  C   C1        1.0  0.7821399999999998  0.8927300000000001  0.1935  1.0000
  C   C2        1.0  0.9058199999999998  0.9254899999999998  0.19512999999999994  1.0000
  C   C3        1.0  0.00394000000000001  0.8925300000000002  0.19456999999999994  1.0000
  C   C4        1.0  0.97758  0.8269800000000002  0.19127  1.0000
  C   C5        1.0  0.85327  0.7934  0.18726999999999994  1.0000
  C   C6        1.0  0.7568000000000001  0.8269300000000002  0.18881  1.0000
  C   C7        1.0  0.67219  0.92457  0.19685  1.0000
  C   C8        1.0  0.13748999999999995  0.9242199999999999  0.19424999999999995  1.0000
  C   C9        1.0  0.8538499999999999  0.62523  0.19955999999999993  1.0000
  C   C10       1.0  0.88926  0.69108  0.20875  1.0000
  C   C11       1.0  0.82145  0.72366  0.17973  1.0000
  C   C12       1.0  0.71918  0.6870300000000001  0.14227999999999996  1.0000
  C   C13       1.0  0.69161  0.62147  0.13475  1.0000
  C   C14       1.0  0.333  0.49274  0.14854999999999993  1.0000
  C   C15       1.0  0.36103  0.55898  0.15633  1.0000
  C   C16       1.0  0.26852  0.59367  0.16428  1.0000
  C   C17       1.0  0.14623  0.56081  0.16429999999999995  1.0000
  C   C18       1.0  0.11652000000000004  0.4946200000000001  0.15666999999999995  1.0000
  C   C19       1.0  0.21064  0.4605  0.14924  1.0000
  C   C20       1.0  0.3983  0.75839  0.14995999999999995  1.0000
  C   C21       1.0  0.37378000000000006  0.6929000000000001  0.14318999999999998  1.0000
  C   C22       1.0  0.29836  0.6632400000000002  0.17122  1.0000
  C   C23       1.0  0.25166999999999995  0.7025  0.20555  1.0000
  C   C24       1.0  0.28105999999999987  0.76776  0.21042  1.0000
  C   C25       1.0  0.43689  0.45918000000000003  0.1378  1.0000
  C   C26       1.0  0.9823  0.4630600000000001  0.15648999999999996  1.0000
  C   C27       1.0  0.25865000000000005  0.8714700000000001  0.03493  1.0000
  C   C28       1.0  0.28925  0.81526  0.012559999999999997  1.0000
  C   C29       1.0  0.23483000000000007  0.7869300000000001  0.9632  1.0000
  C   C30       1.0  0.14508999999999997  0.81324  0.93765  1.0000
  C   C31       1.0  0.11185000000000006  0.8684700000000001  0.95968  1.0000
  C   C32       1.0  0.17236  0.89835  0.008109999999999997  1.0000
  C   C33       1.0  0.81179  0.87748  0.87607  1.0000
  C   C34       1.0  0.90255  0.85291  0.9020399999999997  1.0000
  C   C35       1.0  0.014210000000000068  0.89374  0.93193  1.0000
  C   C36       1.0  0.028060000000000057  0.95876  0.93366  1.0000
  C   C37       1.0  0.93404  0.97963  0.90599  1.0000
  C   C38       1.0  0.31026  0.9036  0.08802999999999997  1.0000
  C   C39       1.0  0.2685099999999999  0.7291800000000002  0.9347699999999998  1.0000
  C   C40       1.0  0.30615  0.15010000000000004  0.28942  1.0000
  C   C41       1.0  0.22721999999999998  0.18130999999999997  0.2636899999999999  1.0000
  C   C42       1.0  0.16676999999999997  0.22456999999999996  0.28795999999999994  1.0000
  C   C43       1.0  0.1897099999999999  0.23723999999999998  0.3390499999999999  1.0000
  C   C44       1.0  0.2702  0.20733000000000001  0.3655099999999999  1.0000
  C   C45       1.0  0.32703  0.1626  0.34063  1.0000
  C   C46       1.0  0.016670000000000042  0.29820000000000013  0.19032  1.0000
  C   C47       1.0  0.10017  0.26951  0.21569  1.0000
  C   C48       1.0  0.08057999999999998  0.2555799999999999  0.2602999999999999  1.0000
  C   C49       1.0  0.9749299999999999  0.27233  0.27704  1.0000
  C   C50       1.0  0.89549  0.30095  0.24955999999999995  1.0000
  C   C51       1.0  0.36069000000000007  0.10176  0.25984  1.0000
  C   C52       1.0  0.29098  0.22593000000000002  0.42029  1.0000
  C   C53       1.0  0.72919  0.20053000000000004  0.52967  1.0000
  C   C54       1.0  0.70493  0.13475  0.52486  1.0000
  C   C55       1.0  0.79846  0.10062  0.51718  1.0000
  C   C56       1.0  0.9194099999999998  0.13418  0.51611  1.0000
  C   C57       1.0  0.9469  0.2003  0.52253  1.0000
  C   C58       1.0  0.85059  0.23347000000000007  0.52838  1.0000
  C   C59       1.0  0.65833  0.93405  0.5261  1.0000
  C   C60       1.0  0.6862999999999999  0.99985  0.53482  1.0000
  C   C61       1.0  0.76796  0.030809999999999994  0.50933  1.0000
  C   C62       1.0  0.8171600000000001  0.9921799999999998  0.4754099999999999  1.0000
  C   C63       1.0  0.78379  0.9266300000000001  0.4684  1.0000
  C   C64       1.0  0.61928  0.23223  0.53378  1.0000
  C   C65       1.0  0.08004999999999994  0.23237999999999998  0.5214199999999999  1.0000
  C   C66       1.0  0.2637  0.4634800000000001  0.6253599999999998  1.0000
  C   C67       1.0  0.28578  0.47673  0.6766  1.0000
  C   C68       1.0  0.23052999999999998  0.5222300000000001  0.7014199999999999  1.0000
  C   C69       1.0  0.14886  0.55138  0.67474  1.0000
  C   C70       1.0  0.12448999999999989  0.53802  0.6235299999999998  1.0000
  C   C71       1.0  0.18554999999999996  0.49491  0.59941  1.0000
  C   C72       1.0  0.84854  0.6117400000000002  0.58547  1.0000
  C   C73       1.0  0.9307899999999998  0.5844999999999999  0.6130199999999998  1.0000
  C   C74       1.0  0.03576000000000002  0.56773  0.59564  1.0000
  C   C75       1.0  0.051179999999999955  0.58002  0.5501199999999999  1.0000
  C   C76       1.0  0.96507  0.6075600000000001  0.52479  1.0000
  C   C77       1.0  0.31417999999999985  0.41318999999999995  0.5958699999999998  1.0000
  C   C78       1.0  0.25399999999999984  0.54134  0.7564199999999998  1.0000
  C   C79       1.0  0.16082000000000002  0.47845000000000004  0.93854  1.0000
  C   C80       1.0  0.14790999999999985  0.47631  0.9860099999999998  1.0000
  C   C81       1.0  0.24918  0.50823  0.024949999999999996  1.0000
  C   C82       1.0  0.3598799999999999  0.5408200000000001  0.014719999999999997  1.0000
  C   C83       1.0  0.3655  0.54104  0.9662799999999999  1.0000
  C   C84       1.0  0.21785999999999997  0.10726999999999996  0.8064899999999999  1.0000
  C   C85       1.0  0.09417999999999994  0.07452  0.80486  1.0000
  C   C86       1.0  0.99606  0.10748  0.80543  1.0000
  C   C87       1.0  0.02241999999999998  0.17303  0.80873  1.0000
  C   C88       1.0  0.14672999999999997  0.20661  0.81273  1.0000
  C   C89       1.0  0.24321  0.17308000000000007  0.81119  1.0000
  C   C90       1.0  0.3278099999999999  0.07543999999999995  0.8031499999999998  1.0000
  C   C91       1.0  0.86251  0.07578999999999995  0.8057499999999997  1.0000
  C   C92       1.0  0.14614999999999995  0.37477  0.8004399999999998  1.0000
  C   C93       1.0  0.1107399999999999  0.30892  0.7912499999999998  1.0000
  C   C94       1.0  0.17854999999999982  0.27634  0.8202699999999998  1.0000
  C   C95       1.0  0.28083  0.31298000000000004  0.8577199999999999  1.0000
  C   C96       1.0  0.30838999999999994  0.37853  0.8652399999999999  1.0000
  C   C97       1.0  0.667  0.50726  0.8514499999999998  1.0000
  C   C98       1.0  0.6389799999999999  0.4410299999999999  0.8436699999999998  1.0000
  C   C99       1.0  0.73148  0.40632999999999997  0.8357199999999998  1.0000
  C   C100      1.0  0.8537699999999999  0.43920000000000003  0.8356899999999998  1.0000
  C   C101      1.0  0.8834799999999998  0.5053899999999999  0.8433299999999998  1.0000
  C   C102      1.0  0.78936  0.5395  0.8507599999999997  1.0000
  C   C103      1.0  0.6017  0.24162  0.8500399999999999  1.0000
  C   C104      1.0  0.62622  0.3071  0.85681  1.0000
  C   C105      1.0  0.70164  0.33677  0.82878  1.0000
  C   C106      1.0  0.74833  0.29751  0.79445  1.0000
  C   C107      1.0  0.7189499999999998  0.23223999999999997  0.7895799999999997  1.0000
  C   C108      1.0  0.56311  0.54083  0.8622  1.0000
  C   C109      1.0  0.01770000000000003  0.53695  0.84351  1.0000
  C   C110      1.0  0.7413599999999999  0.12853999999999996  0.9650699999999998  1.0000
  C   C111      1.0  0.7107599999999998  0.18475000000000003  0.9874299999999999  1.0000
  C   C112      1.0  0.76517  0.21306999999999998  0.03679999999999999  1.0000
  C   C113      1.0  0.8549100000000001  0.18677  0.06234  1.0000
  C   C114      1.0  0.88815  0.13154  0.04031999999999999  1.0000
  C   C115      1.0  0.82764  0.10164999999999995  0.9918899999999998  1.0000
  C   C116      1.0  0.18821999999999997  0.12253  0.12391999999999999  1.0000
  C   C117      1.0  0.09745  0.14710000000000004  0.09796  1.0000
  C   C118      1.0  0.9858  0.10627  0.06806  1.0000
  C   C119      1.0  0.9719399999999999  0.04125  0.06634  1.0000
  C   C120      1.0  0.06596  0.02038  0.09400999999999998  1.0000
  C   C121      1.0  0.68974  0.09641000000000004  0.91197  1.0000
  C   C122      1.0  0.73149  0.27083  0.06523  1.0000
  C   C123      1.0  0.69385  0.8499  0.71058  1.0000
  C   C124      1.0  0.77279  0.8186900000000001  0.7363  1.0000
  C   C125      1.0  0.83323  0.7754400000000001  0.71204  1.0000
  C   C126      1.0  0.8102899999999997  0.76277  0.6609499999999998  1.0000
  C   C127      1.0  0.7297999999999998  0.79267  0.6344899999999999  1.0000
  C   C128      1.0  0.67297  0.8374000000000001  0.6593699999999998  1.0000
  C   C129      1.0  0.98333  0.7018  0.80967  1.0000
  C   C130      1.0  0.89983  0.7304999999999999  0.78431  1.0000
  C   C131      1.0  0.91942  0.74443  0.7397  1.0000
  C   C132      1.0  0.025080000000000057  0.7276700000000002  0.72296  1.0000
  C   C133      1.0  0.10450999999999992  0.6990499999999998  0.75043  1.0000
  C   C134      1.0  0.6393099999999999  0.8982500000000001  0.7401499999999998  1.0000
  C   C135      1.0  0.70902  0.77408  0.5797  1.0000
  C   C136      1.0  0.2708099999999999  0.79948  0.4703299999999999  1.0000
  C   C137      1.0  0.29506999999999994  0.8652600000000001  0.4751399999999999  1.0000
  C   C138      1.0  0.20153999999999994  0.8993900000000001  0.4828199999999999  1.0000
  C   C139      1.0  0.08059  0.86583  0.48388  1.0000
  C   C140      1.0  0.053099999999999974  0.7997  0.4774699999999999  1.0000
  C   C141      1.0  0.14941  0.76653  0.4716199999999999  1.0000
  C   C142      1.0  0.34167  0.06596  0.47389  1.0000
  C   C143      1.0  0.31369999999999987  0.00015999999999995667  0.46517999999999987  1.0000
  C   C144      1.0  0.23204999999999995  0.9692  0.4906699999999999  1.0000
  C   C145      1.0  0.18284  0.007829999999999998  0.52459  1.0000
  C   C146      1.0  0.21621  0.07338  0.5316  1.0000
  C   C147      1.0  0.3807199999999999  0.76778  0.4662199999999999  1.0000
  C   C148      1.0  0.91996  0.76763  0.47858  1.0000
  C   C149      1.0  0.7363  0.5365299999999998  0.37463  1.0000
  C   C150      1.0  0.71422  0.5232800000000002  0.32339  1.0000
  C   C151      1.0  0.7694799999999998  0.47778000000000004  0.2985799999999999  1.0000
  C   C152      1.0  0.85115  0.44863  0.32526  1.0000
  C   C153      1.0  0.8755199999999995  0.46199  0.37647  1.0000
  C   C154      1.0  0.81445  0.5051  0.40059  1.0000
  C   C155      1.0  0.15147000000000002  0.38827000000000006  0.41453  1.0000
  C   C156      1.0  0.06921000000000001  0.41551000000000005  0.38698  1.0000
  C   C157      1.0  0.96424  0.43228  0.4043599999999999  1.0000
  C   C158      1.0  0.94883  0.41999  0.44987999999999995  1.0000
  C   C159      1.0  0.034939999999999964  0.39243999999999996  0.4752099999999999  1.0000
  C   C160      1.0  0.68582  0.58682  0.40413  1.0000
  C   C161      1.0  0.74602  0.4586700000000001  0.24357  1.0000
  C   C162      1.0  0.8391899999999999  0.52156  0.06145999999999999  1.0000
  C   C163      1.0  0.85209  0.5237  0.01399  1.0000
  C   C164      1.0  0.7508199999999999  0.4917699999999999  0.9750499999999998  1.0000
  C   C165      1.0  0.6401199999999998  0.45918999999999993  0.9852799999999998  1.0000
  C   C166      1.0  0.6344999999999998  0.45897  0.03371  1.0000
  N   N1        1.0  0.75772  0.59063  0.16260999999999995  1.0000
  N   N2        1.0  0.35262  0.7955600000000002  0.18296999999999997  1.0000
  N   N3        1.0  0.8264699999999999  0.93998  0.8778199999999998  1.0000
  N   N4        1.0  0.9155999999999999  0.3141  0.20682999999999996  1.0000
  N   N5        1.0  0.7062300000000001  0.89752  0.4934099999999999  1.0000
  N   N6        1.0  0.86487  0.6235900000000002  0.54198  1.0000
  N   N7        1.0  0.2674899999999999  0.5104  0.9286699999999998  1.0000
  N   N8        1.0  0.24227999999999986  0.40938  0.8373899999999999  1.0000
  N   N9        1.0  0.64739  0.20444999999999994  0.8170299999999998  1.0000
  N   N10       1.0  0.17352999999999996  0.06003  0.12217999999999997  1.0000
  N   N11       1.0  0.08439999999999989  0.6859  0.7931699999999998  1.0000
  N   N12       1.0  0.29377  0.10247999999999999  0.50659  1.0000
  N   N13       1.0  0.13513  0.37642  0.45802  1.0000
  N   N14       1.0  0.73252  0.48960000000000004  0.07133  1.0000
  O   O1        1.0  0.5744  0.88748  0.20387999999999998  1.0000
  O   O2        1.0  0.67886  0.9808900000000002  0.19266999999999998  1.0000
  O   O3        1.0  0.15670000000000003  0.9801600000000003  0.18726999999999994  1.0000
  O   O4        1.0  0.2196799999999999  0.8906  0.19933999999999996  1.0000
  O   O5        1.0  0.52729  0.49387000000000003  0.12464999999999997  1.0000
  O   O6        1.0  0.43018  0.40256000000000003  0.14117  1.0000
  O   O7        1.0  0.95147  0.40266  0.14611999999999997  1.0000
  O   O8        1.0  0.9094099999999999  0.50005  0.16676  1.0000
  O   O9        1.0  0.28588  0.9578200000000002  0.10156999999999998  1.0000
  O   O10       1.0  0.36965  0.87399  0.11509  1.0000
  O   O11       1.0  0.33345999999999987  0.6966100000000001  0.9558499999999998  1.0000
  O   O12       1.0  0.22445999999999985  0.71898  0.88838  1.0000
  O   O13       1.0  0.346  0.10265000000000003  0.214  1.0000
  O   O14       1.0  0.41279  0.06380999999999999  0.27969999999999995  1.0000
  O   O15       1.0  0.33924  0.19091  0.44534  1.0000
  O   O16       1.0  0.25538999999999984  0.2762299999999999  0.4368499999999999  1.0000
  O   O17       1.0  0.51837  0.19418000000000002  0.53757  1.0000
  O   O18       1.0  0.62931  0.28977  0.53249  1.0000
  O   O19       1.0  0.15925000000000006  0.1967  0.52074  1.0000
  O   O20       1.0  0.10318  0.29089  0.52058  1.0000
  O   O21       1.0  0.29718  0.41292000000000006  0.54986  1.0000
  O   O22       1.0  0.3639699999999999  0.3746499999999999  0.6157599999999998  1.0000
  O   O23       1.0  0.29805  0.50543  0.78123  1.0000
  O   O24       1.0  0.22435999999999992  0.59381  0.77279  1.0000
  O   O25       1.0  0.45279  0.99261  0.20398999999999998  1.0000
  O   O26       1.0  0.39944  0.3004  0.54016  1.0000
  O   O27       1.0  0.35079999999999995  0.61517  0.8772799999999997  1.0000
  O   O28       1.0  0.4256  0.11252000000000001  0.79612  1.0000
  O   O29       1.0  0.32113999999999987  0.019119999999999974  0.8073299999999998  1.0000
  O   O30       1.0  0.8432999999999999  0.019839999999999993  0.81273  1.0000
  O   O31       1.0  0.7803299999999999  0.10940999999999995  0.80065  1.0000
  O   O32       1.0  0.47271000000000013  0.50614  0.87535  1.0000
  O   O33       1.0  0.5698299999999998  0.59745  0.85883  1.0000
  O   O34       1.0  0.04852999999999985  0.59735  0.8538699999999998  1.0000
  O   O35       1.0  0.09060000000000003  0.49995000000000006  0.83324  1.0000
  O   O36       1.0  0.7141299999999999  0.04218999999999994  0.8984299999999997  1.0000
  O   O37       1.0  0.63035  0.12602  0.88491  1.0000
  O   O38       1.0  0.66654  0.30339  0.04415  1.0000
  O   O39       1.0  0.7755399999999999  0.28103000000000006  0.11161999999999998  1.0000
  O   O40       1.0  0.6540099999999998  0.8973499999999998  0.7859999999999998  1.0000
  O   O41       1.0  0.5872199999999997  0.93619  0.7202999999999998  1.0000
  O   O42       1.0  0.66076  0.8091  0.55465  1.0000
  O   O43       1.0  0.7446100000000001  0.72377  0.56315  1.0000
  O   O44       1.0  0.48163  0.80583  0.4624299999999999  1.0000
  O   O45       1.0  0.37068999999999985  0.71024  0.4674999999999999  1.0000
  O   O46       1.0  0.84076  0.80331  0.47926  1.0000
  O   O47       1.0  0.8968199999999998  0.70912  0.4794199999999999  1.0000
  O   O48       1.0  0.70282  0.58709  0.4501299999999999  1.0000
  O   O49       1.0  0.6360299999999999  0.62536  0.38423999999999997  1.0000
  O   O50       1.0  0.70195  0.49457000000000007  0.21876999999999994  1.0000
  O   O51       1.0  0.7756899999999999  0.4062  0.22720999999999994  1.0000
  O   O52       1.0  0.54722  0.007389999999999958  0.7960099999999999  1.0000
  O   O53       1.0  0.60056  0.69961  0.45983999999999997  1.0000
  O   O54       1.0  0.6492000000000001  0.3848400000000001  0.12271999999999998  1.0000
