data_image0
_chemical_formula_structural       Ag6H144C156N40
_chemical_formula_sum              "Ag6 H144 C156 N40"
_cell_length_a       22.35716
_cell_length_b       22.35692
_cell_length_c       22.357139999999998
_cell_angle_alpha    109.51186
_cell_angle_beta     109.51838999999998
_cell_angle_gamma    109.51907999999999

_symmetry_space_group_name_H-M    'P 1'
_symmetry_Int_Tables_number       1

loop_
  _symmetry_equiv_pos_as_xyz
  'x,y,z'

loop_
  _atom_site_type_symbol
  _atom_site_label
  _atom_site_symmetry_multiplicity
  _atom_site_fract_x
  _atom_site_fract_y
  _atom_site_fract_z
  _atom_site_occupancy
  Ag  Ag1       1.0  0.3949199999999999  0.14465000000000003  0.74979  1.0000
  Ag  Ag2       1.0  0.10496  0.35511  0.25016  1.0000
  Ag  Ag3       1.0  0.64464  0.2498  0.39492  1.0000
  Ag  Ag4       1.0  0.85511  0.75015  0.10496  1.0000
  Ag  Ag5       1.0  0.2501499999999999  0.6049599999999999  0.8550999999999999  1.0000
  Ag  Ag6       1.0  0.7497999999999999  0.8949299999999999  0.64465  1.0000
  H   H1        1.0  0.6029399999999998  0.17914999999999995  0.85949  1.0000
  H   H2        1.0  0.3229099999999999  0.9736299999999999  0.70523  1.0000
  H   H3        1.0  0.36263  0.88629  0.7229399999999999  1.0000
  H   H4        1.0  0.4985699999999999  0.9346899999999999  0.79902  1.0000
  H   H5        1.0  0.58615  0.06689  0.85295  1.0000
  H   H6        1.0  0.65397  0.24046000000000003  0.8317  1.0000
  H   H7        1.0  0.69151  0.3359100000000001  0.8887  1.0000
  H   H8        1.0  0.64224  0.29347000000000006  0.79117  1.0000
  H   H9        1.0  0.64172  0.39943  0.83706  1.0000
  H   H10       1.0  0.6102299999999999  0.49697  0.85399  1.0000
  H   H11       1.0  0.42764999999999986  0.37403000000000003  0.87038  1.0000
  H   H12       1.0  0.46142  0.27847000000000005  0.85828  1.0000
  H   H13       1.0  0.897  0.25668  0.07591  1.0000
  H   H14       1.0  0.17698  0.38235  0.15143  1.0000
  H   H15       1.0  0.13753  0.36051  0.02429  1.0000
  H   H16       1.0  0.0015899999999999456  0.30097999999999997  0.93649  1.0000
  H   H17       1.0  0.91386  0.26715  0.9806100000000001  1.0000
  H   H18       1.0  0.8455999999999999  0.17741  0.08574  1.0000
  H   H19       1.0  0.8082199999999999  0.19677999999999998  0.14367  1.0000
  H   H20       1.0  0.8572899999999998  0.14844  0.15034  1.0000
  H   H21       1.0  0.8578099999999999  0.19475  0.25703  1.0000
  H   H22       1.0  0.88919  0.24336999999999995  0.38608  1.0000
  H   H23       1.0  0.07183999999999999  0.44265  0.44662  1.0000
  H   H24       1.0  0.038389999999999924  0.3968099999999999  0.31732999999999995  1.0000
  H   H25       1.0  0.18078999999999995  0.32169000000000003  0.42443999999999993  1.0000
  H   H26       1.0  0.23181999999999997  0.52642  0.34947  1.0000
  H   H27       1.0  0.33741  0.61424  0.47685  1.0000
  H   H28       1.0  0.36517999999999995  0.56628  0.56448  1.0000
  H   H29       1.0  0.28679999999999994  0.43409999999999993  0.5200299999999999  1.0000
  H   H30       1.0  0.09181  0.25984  0.41401  1.0000
  H   H31       1.0  0.05291  0.16448  0.35585  1.0000
  H   H32       1.0  0.9980599999999996  0.20702999999999996  0.34929999999999994  1.0000
  H   H33       1.0  0.9375099999999998  0.10075  0.24229999999999996  1.0000
  H   H34       1.0  0.85674  0.0028499999999999862  0.11294999999999998  1.0000
  H   H35       1.0  0.9961799999999997  0.12543  0.05351  1.0000
  H   H36       1.0  0.07994  0.22151  0.18314  1.0000
  H   H37       1.0  0.3195999999999999  0.24321000000000004  0.64045  1.0000
  H   H38       1.0  0.26857  0.1174  0.79425  1.0000
  H   H39       1.0  0.16363  0.1398399999999999  0.77695  1.0000
  H   H40       1.0  0.13592  0.19967  0.70099  1.0000
  H   H41       1.0  0.21389  0.23298  0.64687  1.0000
  H   H42       1.0  0.4085699999999999  0.32194  0.66808  1.0000
  H   H43       1.0  0.4471299999999999  0.30256  0.61137  1.0000
  H   H44       1.0  0.5022699999999998  0.35102  0.70891  1.0000
  H   H45       1.0  0.56247  0.30465  0.66307  1.0000
  H   H46       1.0  0.6429899999999998  0.25627  0.64602  1.0000
  H   H47       1.0  0.50366  0.05700999999999994  0.6291799999999999  1.0000
  H   H48       1.0  0.42023999999999995  0.10275000000000001  0.64149  1.0000
  H   H49       1.0  0.7432199999999997  0.14047  0.31961  1.0000
  H   H50       1.0  0.6173799999999999  0.29427  0.26857  1.0000
  H   H51       1.0  0.63983  0.27696  0.16363  1.0000
  H   H52       1.0  0.6996699999999999  0.20099999999999998  0.13592  1.0000
  H   H53       1.0  0.73298  0.14688  0.2139  1.0000
  H   H54       1.0  0.82192  0.16808  0.40857  1.0000
  H   H55       1.0  0.80255  0.11138000000000005  0.44712  1.0000
  H   H56       1.0  0.8510099999999999  0.20892000000000005  0.50227  1.0000
  H   H57       1.0  0.8046499999999998  0.16307999999999995  0.56247  1.0000
  H   H58       1.0  0.7562599999999997  0.14602999999999994  0.64299  1.0000
  H   H59       1.0  0.5569999999999999  0.12917  0.50367  1.0000
  H   H60       1.0  0.6027499999999999  0.14149000000000006  0.42025  1.0000
  H   H61       1.0  0.8217  0.92444  0.18078  1.0000
  H   H62       1.0  0.026430000000000006  0.84946  0.23182  1.0000
  H   H63       1.0  0.11424999999999998  0.97684  0.33741  1.0000
  H   H64       1.0  0.06629  0.06447000000000001  0.36517  1.0000
  H   H65       1.0  0.9341  0.020020000000000003  0.28679  1.0000
  H   H66       1.0  0.7598399999999998  0.9140099999999999  0.09181  1.0000
  H   H67       1.0  0.66448  0.85585  0.05291  1.0000
  H   H68       1.0  0.7070399999999999  0.84931  0.9980599999999998  1.0000
  H   H69       1.0  0.60075  0.7423  0.9375  1.0000
  H   H70       1.0  0.50285  0.61295  0.85674  1.0000
  H   H71       1.0  0.62541  0.55349  0.99617  1.0000
  H   H72       1.0  0.7214899999999999  0.68312  0.07993  1.0000
  H   H73       1.0  0.7566799999999999  0.57592  0.89702  1.0000
  H   H74       1.0  0.8823499999999997  0.65144  0.177  1.0000
  H   H75       1.0  0.86052  0.5243  0.13755  1.0000
  H   H76       1.0  0.8009899999999998  0.4365  0.00162  1.0000
  H   H77       1.0  0.7671499999999998  0.48062  0.9138799999999999  1.0000
  H   H78       1.0  0.67742  0.58575  0.84561  1.0000
  H   H79       1.0  0.69678  0.6436800000000001  0.80823  1.0000
  H   H80       1.0  0.64845  0.65035  0.8573  1.0000
  H   H81       1.0  0.69475  0.75703  0.85782  1.0000
  H   H82       1.0  0.7433800000000002  0.8860900000000002  0.8891900000000001  1.0000
  H   H83       1.0  0.94265  0.9466399999999999  0.07184  1.0000
  H   H84       1.0  0.89682  0.81734  0.03839999999999999  1.0000
  H   H85       1.0  0.67915  0.35949  0.60292  1.0000
  H   H86       1.0  0.47362  0.20521999999999999  0.32289  1.0000
  H   H87       1.0  0.38628  0.22292999999999996  0.36260999999999993  1.0000
  H   H88       1.0  0.43469  0.29902  0.49855  1.0000
  H   H89       1.0  0.56688  0.35294  0.58613  1.0000
  H   H90       1.0  0.74046  0.3317  0.65396  1.0000
  H   H91       1.0  0.8359000000000001  0.38869999999999993  0.69149  1.0000
  H   H92       1.0  0.79347  0.29118  0.64223  1.0000
  H   H93       1.0  0.8994199999999999  0.33706  0.6417  1.0000
  H   H94       1.0  0.99696  0.35398999999999997  0.61023  1.0000
  H   H95       1.0  0.8740499999999998  0.37039  0.4276499999999999  1.0000
  H   H96       1.0  0.77848  0.35828  0.46142  1.0000
  H   H97       1.0  0.42444999999999994  0.6807999999999998  0.8217  1.0000
  H   H98       1.0  0.34947  0.73182  0.02641  1.0000
  H   H99       1.0  0.4768499999999999  0.83741  0.11424  1.0000
  H   H100      1.0  0.56448  0.86518  0.06628  1.0000
  H   H101      1.0  0.52003  0.7868000000000002  0.9340899999999999  1.0000
  H   H102      1.0  0.4140199999999999  0.59183  0.75985  1.0000
  H   H103      1.0  0.35585999999999984  0.5529199999999999  0.6644899999999999  1.0000
  H   H104      1.0  0.34932  0.49808  0.70705  1.0000
  H   H105      1.0  0.24230999999999994  0.43750999999999995  0.60075  1.0000
  H   H106      1.0  0.11295999999999999  0.35675000000000007  0.50285  1.0000
  H   H107      1.0  0.05349000000000002  0.49618  0.62541  1.0000
  H   H108      1.0  0.18313000000000004  0.57994  0.72149  1.0000
  H   H109      1.0  0.6404499999999999  0.8195999999999999  0.74321  1.0000
  H   H110      1.0  0.79425  0.76858  0.61739  1.0000
  H   H111      1.0  0.77695  0.66363  0.63983  1.0000
  H   H112      1.0  0.70098  0.63592  0.69966  1.0000
  H   H113      1.0  0.6468599999999997  0.71389  0.7329799999999999  1.0000
  H   H114      1.0  0.66807  0.90856  0.82193  1.0000
  H   H115      1.0  0.61138  0.94712  0.80257  1.0000
  H   H116      1.0  0.7089199999999998  0.002259999999999916  0.8510199999999999  1.0000
  H   H117      1.0  0.66307  0.062469999999999984  0.80466  1.0000
  H   H118      1.0  0.64601  0.14297999999999997  0.75627  1.0000
  H   H119      1.0  0.62916  0.0036699999999999767  0.557  1.0000
  H   H120      1.0  0.64148  0.92025  0.60275  1.0000
  H   H121      1.0  0.8594999999999999  0.10293999999999996  0.6791399999999999  1.0000
  H   H122      1.0  0.70523  0.82291  0.47363999999999995  1.0000
  H   H123      1.0  0.72294  0.86263  0.38629  1.0000
  H   H124      1.0  0.7990299999999998  0.99857  0.43469  1.0000
  H   H125      1.0  0.8529599999999999  0.08615999999999999  0.56689  1.0000
  H   H126      1.0  0.83171  0.15397999999999998  0.74045  1.0000
  H   H127      1.0  0.8886899999999999  0.19150999999999999  0.83589  1.0000
  H   H128      1.0  0.7911699999999999  0.14224000000000003  0.79345  1.0000
  H   H129      1.0  0.8370599999999999  0.14173000000000005  0.8994200000000001  1.0000
  H   H130      1.0  0.8539999999999998  0.11024999999999993  0.99696  1.0000
  H   H131      1.0  0.8703999999999997  0.9276699999999999  0.87405  1.0000
  H   H132      1.0  0.85828  0.9614299999999999  0.77848  1.0000
  H   H133      1.0  0.07591000000000003  0.397  0.75668  1.0000
  H   H134      1.0  0.15142999999999995  0.67698  0.88234  1.0000
  H   H135      1.0  0.024289999999999982  0.6375400000000001  0.86051  1.0000
  H   H136      1.0  0.9364899999999998  0.5016  0.80099  1.0000
  H   H137      1.0  0.98061  0.4138600000000001  0.7671499999999999  1.0000
  H   H138      1.0  0.08572  0.3456  0.67741  1.0000
  H   H139      1.0  0.14366  0.30822  0.69677  1.0000
  H   H140      1.0  0.15031999999999993  0.35729999999999995  0.6484399999999999  1.0000
  H   H141      1.0  0.25701  0.3578  0.69474  1.0000
  H   H142      1.0  0.3860699999999999  0.38917  0.74336  1.0000
  H   H143      1.0  0.44663  0.57184  0.94265  1.0000
  H   H144      1.0  0.31733  0.5383899999999999  0.8968200000000001  1.0000
  C   C1        1.0  0.3806999999999999  0.99185  0.73716  1.0000
  C   C2        1.0  0.4029  0.9434  0.74713  1.0000
  C   C3        1.0  0.4786399999999999  0.9707200000000001  0.7894899999999999  1.0000
  C   C4        1.0  0.52748  0.04402000000000007  0.81938  1.0000
  C   C5        1.0  0.5004  0.08968000000000001  0.80569  1.0000
  C   C6        1.0  0.5731199999999999  0.27302999999999994  0.83772  1.0000
  C   C7        1.0  0.6439599999999999  0.2863299999999999  0.8381099999999999  1.0000
  C   C8        1.0  0.55358  0.32951  0.84505  1.0000
  C   C9        1.0  0.59507  0.39333  0.84494  1.0000
  C   C10       1.0  0.57713  0.4482499999999999  0.85353  1.0000
  C   C11       1.0  0.51646  0.4426  0.86281  1.0000
  C   C12       1.0  0.47425  0.37923  0.86262  1.0000
  C   C13       1.0  0.49275999999999986  0.32502  0.85479  1.0000
  C   C14       1.0  0.11925  0.35647  0.11159  1.0000
  C   C15       1.0  0.09718  0.3444  0.04095  1.0000
  C   C16       1.0  0.021470000000000006  0.31117  0.9924  1.0000
  C   C17       1.0  0.97251  0.29211  0.01658  1.0000
  C   C18       1.0  0.9995099999999999  0.30527  0.0893  1.0000
  C   C19       1.0  0.92658  0.26435  0.1995  1.0000
  C   C20       1.0  0.85567  0.19377  0.14165999999999998  1.0000
  C   C21       1.0  0.9459699999999999  0.29117  0.27554  1.0000
  C   C22       1.0  0.9044200000000002  0.24944  0.29768  1.0000
  C   C23       1.0  0.9223299999999999  0.27605  0.37059  1.0000
  C   C24       1.0  0.98301  0.34611  0.4259  1.0000
  C   C25       1.0  0.025250000000000022  0.3882  0.40492  1.0000
  C   C26       1.0  0.006810000000000019  0.36185  0.3322  1.0000
  C   C27       1.0  0.24569  0.50846  0.38919  1.0000
  C   C28       1.0  0.3043399999999999  0.55714  0.45995  1.0000
  C   C29       1.0  0.31946  0.53004  0.50847  1.0000
  C   C30       1.0  0.276  0.45678  0.48411  1.0000
  C   C31       1.0  0.21644  0.41092  0.41124  1.0000
  C   C32       1.0  0.06492  0.2273  0.30042  1.0000
  C   C33       1.0  0.052080000000000036  0.21404  0.35799  1.0000
  C   C34       1.0  0.015639999999999984  0.17061  0.22425  1.0000
  C   C35       1.0  0.95159  0.10672000000000001  0.20179  1.0000
  C   C36       1.0  0.90517  0.0516  0.12881  1.0000
  C   C37       1.0  0.9201299999999999  0.05709999999999999  0.07378  1.0000
  C   C38       1.0  0.9833899999999999  0.12048999999999999  0.09506  1.0000
  C   C39       1.0  0.029859999999999998  0.17491  0.16788  1.0000
  C   C40       1.0  0.2547799999999999  0.14332999999999993  0.7624699999999999  1.0000
  C   C41       1.0  0.1964699999999999  0.1557699999999999  0.7526999999999999  1.0000
  C   C42       1.0  0.18139999999999998  0.18913  0.71042  1.0000
  C   C43       1.0  0.22462  0.2079  0.6804  1.0000
  C   C44       1.0  0.2839099999999999  0.1943699999999999  0.6939799999999999  1.0000
  C   C45       1.0  0.43522999999999995  0.23513999999999996  0.6621499999999999  1.0000
  C   C46       1.0  0.4481299999999999  0.30562  0.66185  1.0000
  C   C47       1.0  0.48442999999999997  0.20833  0.65482  1.0000
  C   C48       1.0  0.54839  0.25005  0.65503  1.0000
  C   C49       1.0  0.5947099999999997  0.22353999999999996  0.64638  1.0000
  C   C50       1.0  0.5797299999999999  0.15351  0.63691  1.0000
  C   C51       1.0  0.51658  0.11142999999999999  0.63706  1.0000
  C   C52       1.0  0.47022  0.13771  0.64497  1.0000
  C   C53       1.0  0.64331  0.26249  0.25477  1.0000
  C   C54       1.0  0.65576  0.25272  0.19647  1.0000
  C   C55       1.0  0.6891199999999998  0.21043  0.1814  1.0000
  C   C56       1.0  0.7078999999999999  0.18041999999999997  0.22462  1.0000
  C   C57       1.0  0.69437  0.19399  0.2839  1.0000
  C   C58       1.0  0.7351199999999999  0.16215000000000002  0.43523  1.0000
  C   C59       1.0  0.8056  0.16184999999999994  0.44813  1.0000
  C   C60       1.0  0.7083199999999998  0.15482999999999997  0.4844399999999999  1.0000
  C   C61       1.0  0.7500399999999999  0.15504  0.5484  1.0000
  C   C62       1.0  0.72354  0.14637999999999995  0.59471  1.0000
  C   C63       1.0  0.65351  0.13691  0.57973  1.0000
  C   C64       1.0  0.6114199999999997  0.13706000000000002  0.51659  1.0000
  C   C65       1.0  0.6377  0.14496999999999996  0.4702299999999999  1.0000
  C   C66       1.0  0.00847000000000004  0.8891900000000001  0.24568  1.0000
  C   C67       1.0  0.05715000000000003  0.9599400000000001  0.30434  1.0000
  C   C68       1.0  0.030039999999999976  0.008449999999999994  0.31946  1.0000
  C   C69       1.0  0.9567899999999997  0.98411  0.276  1.0000
  C   C70       1.0  0.9109299999999999  0.9112399999999999  0.21644  1.0000
  C   C71       1.0  0.7273099999999999  0.8004199999999999  0.06492  1.0000
  C   C72       1.0  0.71404  0.85798  0.05208  1.0000
  C   C73       1.0  0.67061  0.72425  0.01563  1.0000
  C   C74       1.0  0.60672  0.70179  0.95159  1.0000
  C   C75       1.0  0.5516  0.6288100000000001  0.9051700000000001  1.0000
  C   C76       1.0  0.55709  0.57378  0.92012  1.0000
  C   C77       1.0  0.62047  0.59505  0.98337  1.0000
  C   C78       1.0  0.6748999999999999  0.66786  0.02985  1.0000
  C   C79       1.0  0.85648  0.6115900000000001  0.11927  1.0000
  C   C80       1.0  0.8444  0.54096  0.0972  1.0000
  C   C81       1.0  0.81118  0.49240999999999996  0.0215  1.0000
  C   C82       1.0  0.7921099999999999  0.5165900000000001  0.9725200000000002  1.0000
  C   C83       1.0  0.80527  0.5893099999999999  0.9995199999999999  1.0000
  C   C84       1.0  0.76435  0.69951  0.92658  1.0000
  C   C85       1.0  0.6937799999999998  0.64167  0.85568  1.0000
  C   C86       1.0  0.7911699999999999  0.77555  0.94598  1.0000
  C   C87       1.0  0.7494399999999999  0.79769  0.9044199999999999  1.0000
  C   C88       1.0  0.7760499999999998  0.8706  0.9223299999999999  1.0000
  C   C89       1.0  0.84612  0.92591  0.98301  1.0000
  C   C90       1.0  0.8881999999999999  0.9049399999999999  0.02525  1.0000
  C   C91       1.0  0.86185  0.83221  0.006819999999999999  1.0000
  C   C92       1.0  0.4918399999999999  0.23715  0.38069  1.0000
  C   C93       1.0  0.4434  0.24712  0.40288  1.0000
  C   C94       1.0  0.47071  0.28948  0.47861  1.0000
  C   C95       1.0  0.54401  0.31938  0.52746  1.0000
  C   C96       1.0  0.58968  0.3056899999999999  0.50039  1.0000
  C   C97       1.0  0.7730299999999999  0.33773  0.57312  1.0000
  C   C98       1.0  0.78633  0.33811  0.64395  1.0000
  C   C99       1.0  0.82951  0.34505  0.55357  1.0000
  C   C100      1.0  0.8933299999999998  0.34493999999999997  0.5950699999999999  1.0000
  C   C101      1.0  0.94825  0.35354  0.57713  1.0000
  C   C102      1.0  0.94261  0.36283  0.51646  1.0000
  C   C103      1.0  0.8792399999999999  0.36262  0.47426  1.0000
  C   C104      1.0  0.82503  0.35479999999999995  0.49275  1.0000
  C   C105      1.0  0.38919  0.74568  0.00846  1.0000
  C   C106      1.0  0.45995  0.80435  0.057139999999999996  1.0000
  C   C107      1.0  0.50847  0.81946  0.03004  1.0000
  C   C108      1.0  0.48411999999999983  0.7760099999999999  0.95678  1.0000
  C   C109      1.0  0.41124999999999995  0.71645  0.91092  1.0000
  C   C110      1.0  0.30042  0.56493  0.7273  1.0000
  C   C111      1.0  0.35798999999999986  0.55209  0.7140499999999999  1.0000
  C   C112      1.0  0.22425  0.51564  0.67061  1.0000
  C   C113      1.0  0.20179999999999998  0.4516  0.60672  1.0000
  C   C114      1.0  0.12881999999999996  0.40518  0.5515999999999999  1.0000
  C   C115      1.0  0.07378999999999994  0.42013999999999996  0.5571  1.0000
  C   C116      1.0  0.09505000000000001  0.48339  0.62047  1.0000
  C   C117      1.0  0.16786999999999994  0.52986  0.6749  1.0000
  C   C118      1.0  0.76248  0.7547799999999998  0.64332  1.0000
  C   C119      1.0  0.75271  0.69647  0.65576  1.0000
  C   C120      1.0  0.71042  0.6814  0.68912  1.0000
  C   C121      1.0  0.6804  0.7246099999999999  0.7078999999999999  1.0000
  C   C122      1.0  0.69398  0.7839  0.69438  1.0000
  C   C123      1.0  0.66215  0.9352299999999999  0.73513  1.0000
  C   C124      1.0  0.6618500000000002  0.94812  0.80561  1.0000
  C   C125      1.0  0.6548200000000001  0.98444  0.70833  1.0000
  C   C126      1.0  0.6550299999999999  0.04839000000000004  0.75005  1.0000
  C   C127      1.0  0.64637  0.09469999999999998  0.72355  1.0000
  C   C128      1.0  0.6368999999999999  0.07971999999999999  0.65352  1.0000
  C   C129      1.0  0.6370399999999999  0.016580000000000008  0.61142  1.0000
  C   C130      1.0  0.6449599999999999  0.97022  0.63771  1.0000
  C   C131      1.0  0.7371499999999999  0.88071  0.49185  1.0000
  C   C132      1.0  0.7471299999999997  0.9028999999999999  0.4434  1.0000
  C   C133      1.0  0.78949  0.9786400000000001  0.4707100000000001  1.0000
  C   C134      1.0  0.81939  0.027480000000000025  0.54401  1.0000
  C   C135      1.0  0.8056899999999999  0.0004099999999999952  0.58968  1.0000
  C   C136      1.0  0.8377199999999998  0.07313000000000007  0.77302  1.0000
  C   C137      1.0  0.83811  0.14396  0.78631  1.0000
  C   C138      1.0  0.84505  0.05359000000000008  0.82951  1.0000
  C   C139      1.0  0.84494  0.09509  0.89333  1.0000
  C   C140      1.0  0.8535399999999999  0.07714999999999998  0.94825  1.0000
  C   C141      1.0  0.8628199999999998  0.01647999999999998  0.9425899999999999  1.0000
  C   C142      1.0  0.86263  0.9742699999999999  0.8792399999999999  1.0000
  C   C143      1.0  0.8548099999999997  0.99277  0.82503  1.0000
  C   C144      1.0  0.11158999999999997  0.61925  0.85646  1.0000
  C   C145      1.0  0.04095  0.59719  0.84439  1.0000
  C   C146      1.0  0.9923999999999997  0.52148  0.81117  1.0000
  C   C147      1.0  0.016569999999999953  0.47250999999999993  0.7921  1.0000
  C   C148      1.0  0.08928999999999991  0.49951  0.80526  1.0000
  C   C149      1.0  0.1995  0.42658  0.76435  1.0000
  C   C150      1.0  0.14165000000000005  0.35568  0.69377  1.0000
  C   C151      1.0  0.27553999999999995  0.4459699999999999  0.7911599999999999  1.0000
  C   C152      1.0  0.2976699999999999  0.40440999999999994  0.74943  1.0000
  C   C153      1.0  0.37058  0.42232  0.77604  1.0000
  C   C154      1.0  0.42589  0.48300000000000004  0.8461  1.0000
  C   C155      1.0  0.40493  0.52525  0.8882  1.0000
  C   C156      1.0  0.33219999999999994  0.50681  0.8618499999999999  1.0000
  N   N1        1.0  0.42745  0.06374000000000002  0.76496  1.0000
  N   N2        1.0  0.54847  0.16171  0.83266  1.0000
  N   N3        1.0  0.5262299999999999  0.21137999999999993  0.82983  1.0000
  N   N4        1.0  0.07241999999999997  0.33744  0.13649  1.0000
  N   N5        1.0  0.95143  0.28402  0.11306  1.0000
  N   N6        1.0  0.9736199999999999  0.3035  0.18504  1.0000
  N   N7        1.0  0.20152  0.43659  0.36409  1.0000
  N   N8        1.0  0.17130999999999996  0.33891999999999994  0.3873  1.0000
  N   N9        1.0  0.11869999999999997  0.28902  0.31525999999999993  1.0000
  N   N10       1.0  0.29871  0.16212  0.73457  1.0000
  N   N11       1.0  0.32886999999999994  0.21537  0.66699  1.0000
  N   N12       1.0  0.38142999999999994  0.19602999999999998  0.66987  1.0000
  N   N13       1.0  0.6621199999999999  0.23459  0.2987  1.0000
  N   N14       1.0  0.71537  0.167  0.32887  1.0000
  N   N15       1.0  0.69603  0.16988000000000006  0.38142  1.0000
  N   N16       1.0  0.9366  0.8641000000000001  0.20152  1.0000
  N   N17       1.0  0.83893  0.8872999999999999  0.17131  1.0000
  N   N18       1.0  0.7890199999999998  0.81526  0.11869999999999999  1.0000
  N   N19       1.0  0.8374399999999997  0.63649  0.07243  1.0000
  N   N20       1.0  0.78402  0.6130699999999999  0.9514399999999998  1.0000
  N   N21       1.0  0.8034999999999999  0.68505  0.9736299999999999  1.0000
  N   N22       1.0  0.56374  0.26496  0.42744  1.0000
  N   N23       1.0  0.6616999999999998  0.33265999999999996  0.54846  1.0000
  N   N24       1.0  0.71138  0.32983  0.52623  1.0000
  N   N25       1.0  0.36409999999999987  0.7015299999999999  0.9365899999999999  1.0000
  N   N26       1.0  0.3873099999999999  0.67132  0.83892  1.0000
  N   N27       1.0  0.31526999999999983  0.6187099999999999  0.7890199999999999  1.0000
  N   N28       1.0  0.73458  0.79871  0.66213  1.0000
  N   N29       1.0  0.6669999999999999  0.82887  0.71537  1.0000
  N   N30       1.0  0.66987  0.8814200000000001  0.69603  1.0000
  N   N31       1.0  0.76496  0.92746  0.56373  1.0000
  N   N32       1.0  0.83266  0.04847999999999997  0.6617  1.0000
  N   N33       1.0  0.8298299999999998  0.02623999999999999  0.71138  1.0000
  N   N34       1.0  0.13648000000000002  0.57241  0.83743  1.0000
  N   N35       1.0  0.11305000000000001  0.45143000000000005  0.78402  1.0000
  N   N36       1.0  0.18503999999999998  0.47362  0.8035  1.0000
  N   N37       1.0  0.4998099999999999  0.49978  0.87426  1.0000
  N   N38       1.0  0.9997899999999998  0.37426999999999994  0.49981  1.0000
  N   N39       1.0  0.87427  0.99982  0.99978  1.0000
  N   N40       1.0  0.6254199999999999  0.12541999999999992  0.6254299999999999  1.0000
