data_image0
_chemical_formula_structural       Cu12H128C192N24O32
_chemical_formula_sum              "Cu12 H128 C192 N24 O32"
_cell_length_a       13.11914
_cell_length_b       18.70924
_cell_length_c       22.816640000000003
_cell_angle_alpha    89.99822999999999
_cell_angle_beta     89.98977
_cell_angle_gamma    109.88821999999999

_space_group_name_H-M_alt    "P 1"
_space_group_IT_number       1

loop_
  _space_group_symop_operation_xyz
  'x, y, z'

loop_
  _atom_site_type_symbol
  _atom_site_label
  _atom_site_symmetry_multiplicity
  _atom_site_fract_x
  _atom_site_fract_y
  _atom_site_fract_z
  _atom_site_occupancy
  Cu  Cu1       1.0  0.5636399999999999  0.49528  0.73541  1.0000
  Cu  Cu2       1.0  0.7523000000000001  0.49351  0.63173  1.0000
  Cu  Cu3       1.0  0.93444  0.98402  0.76457  1.0000
  Cu  Cu4       1.0  0.43503  0.00441  0.23539999999999997  1.0000
  Cu  Cu5       1.0  0.24827  0.00683  0.13184999999999997  1.0000
  Cu  Cu6       1.0  0.0658  0.51613  0.26456  1.0000
  Cu  Cu7       1.0  0.43626  0.50467  0.26454  1.0000
  Cu  Cu8       1.0  0.24767  0.5063  0.36832  1.0000
  Cu  Cu9       1.0  0.06555  0.01597  0.23542999999999994  1.0000
  Cu  Cu10      1.0  0.56498  0.9958799999999999  0.76449  1.0000
  Cu  Cu11      1.0  0.7516900000000002  0.9931900000000001  0.8682499999999999  1.0000
  Cu  Cu12      1.0  0.9341900000000002  0.48369  0.73541  1.0000
  H   H1        1.0  0.4710000000000001  0.59022  0.64917  1.0000
  H   H2        1.0  0.4089500000000001  0.70253  0.6614199999999999  1.0000
  H   H3        1.0  0.40735  0.7568  0.7628199999999998  1.0000
  H   H4        1.0  0.57969  0.5819  0.9862299999999999  1.0000
  H   H5        1.0  0.64882  0.47675000000000006  0.9571199999999999  1.0000
  H   H6        1.0  0.64499  0.44045  0.8511  1.0000
  H   H7        1.0  0.4399900000000001  0.7477  0.8709899999999999  1.0000
  H   H8        1.0  0.50084  0.68363  0.9525399999999998  1.0000
  H   H9        1.0  0.8058  0.66997  0.6144  1.0000
  H   H10       1.0  0.8077000000000001  0.75172  0.52715  1.0000
  H   H11       1.0  0.78256  0.69259  0.4262  1.0000
  H   H12       1.0  0.7174500000000003  0.3148  0.41385  1.0000
  H   H13       1.0  0.69274  0.24571000000000004  0.51075  1.0000
  H   H14       1.0  0.69447  0.3183  0.60339  1.0000
  H   H15       1.0  0.76066  0.57493  0.36444  1.0000
  H   H16       1.0  0.7416  0.43864  0.3600199999999999  1.0000
  H   H17       1.0  0.8666100000000002  0.03328  0.64306  1.0000
  H   H18       1.0  0.8768199999999999  0.9924299999999999  0.5391  1.0000
  H   H19       1.0  0.95042  0.88677  0.51888  1.0000
  H   H20       1.0  0.09389000000000007  0.7228  0.75902  1.0000
  H   H21       1.0  0.07643999999999998  0.78032  0.8572  1.0000
  H   H22       1.0  0.013020000000000032  0.89259  0.86052  1.0000
  H   H23       1.0  0.02526999999999997  0.78718  0.56154  1.0000
  H   H24       1.0  0.07613999999999996  0.72736  0.64862  1.0000
  H   H25       1.0  0.6438100000000002  0.29366  0.80125  1.0000
  H   H26       1.0  0.7827700000000002  0.29311  0.69249  1.0000
  H   H27       1.0  0.44537  0.37575  0.53525  1.0000
  H   H28       1.0  0.53763  0.54823  0.55686  1.0000
  H   H29       1.0  0.85189  0.18177  0.6920999999999999  1.0000
  H   H30       1.0  0.71227  0.18469  0.8000899999999999  1.0000
  H   H31       1.0  0.05913  0.12021  0.95681  1.0000
  H   H32       1.0  0.95834  0.94624  0.9464  1.0000
  H   H33       1.0  0.52882  0.90948  0.14912  1.0000
  H   H34       1.0  0.59123  0.79732  0.1615  1.0000
  H   H35       1.0  0.5928800000000001  0.74318  0.26291999999999993  1.0000
  H   H36       1.0  0.4202100000000001  0.91822  0.48617  1.0000
  H   H37       1.0  0.3511100000000001  0.0234  0.45696  1.0000
  H   H38       1.0  0.35515  0.05967  0.35096999999999995  1.0000
  H   H39       1.0  0.56005  0.75233  0.37111  1.0000
  H   H40       1.0  0.49901  0.81646  0.45257  1.0000
  H   H41       1.0  0.19413  0.82989  0.11447  1.0000
  H   H42       1.0  0.19216  0.74826  0.027219999999999994  1.0000
  H   H43       1.0  0.21736  0.80742  0.92629  1.0000
  H   H44       1.0  0.28252  0.18514  0.9137999999999998  1.0000
  H   H45       1.0  0.30734  0.25435  0.01065  1.0000
  H   H46       1.0  0.3057300000000001  0.1818  0.10333  1.0000
  H   H47       1.0  0.23929000000000009  0.92501  0.8645399999999999  1.0000
  H   H48       1.0  0.25844  0.06133999999999999  0.86005  1.0000
  H   H49       1.0  0.13321000000000002  0.4665500000000001  0.14313  1.0000
  H   H50       1.0  0.12345  0.50754  0.03917  1.0000
  H   H51       1.0  0.049690000000000005  0.61314  0.01889  1.0000
  H   H52       1.0  0.9058200000000001  0.77706  0.25895  1.0000
  H   H53       1.0  0.92335  0.71964  0.35719  1.0000
  H   H54       1.0  0.98706  0.60743  0.3604899999999999  1.0000
  H   H55       1.0  0.9748100000000002  0.71273  0.06151  1.0000
  H   H56       1.0  0.92372  0.77252  0.14857  1.0000
  H   H57       1.0  0.3558400000000001  0.20627  0.30128  1.0000
  H   H58       1.0  0.21756000000000003  0.20692  0.19232  1.0000
  H   H59       1.0  0.5550000000000002  0.12443  0.0349  1.0000
  H   H60       1.0  0.4625500000000001  0.952  0.0568  1.0000
  H   H61       1.0  0.14813  0.31804  0.19192  1.0000
  H   H62       1.0  0.28695  0.31518  0.30015  1.0000
  H   H63       1.0  0.94107  0.37998  0.4564699999999999  1.0000
  H   H64       1.0  0.04166000000000003  0.554  0.44654  1.0000
  H   H65       1.0  0.52887  0.40966  0.35082999999999986  1.0000
  H   H66       1.0  0.59114  0.29745  0.33852  1.0000
  H   H67       1.0  0.5929100000000003  0.24332000000000004  0.2371  1.0000
  H   H68       1.0  0.42026  0.41815  0.013759999999999996  1.0000
  H   H69       1.0  0.35102  0.52328  0.04291  1.0000
  H   H70       1.0  0.3549800000000001  0.5596  0.14888  1.0000
  H   H71       1.0  0.5601  0.25237  0.12895  1.0000
  H   H72       1.0  0.4990700000000001  0.31642  0.04743  1.0000
  H   H73       1.0  0.19407  0.32991  0.38564999999999994  1.0000
  H   H74       1.0  0.19222000000000006  0.24821999999999997  0.4729  1.0000
  H   H75       1.0  0.21746  0.30742  0.57383  1.0000
  H   H76       1.0  0.28252  0.68516  0.5861299999999999  1.0000
  H   H77       1.0  0.30729999999999996  0.75428  0.4892599999999999  1.0000
  H   H78       1.0  0.3056  0.68174  0.39661999999999986  1.0000
  H   H79       1.0  0.23938000000000006  0.42507  0.6355599999999999  1.0000
  H   H80       1.0  0.25845  0.56137  0.63996  1.0000
  H   H81       1.0  0.13339000000000006  0.96658  0.35690999999999995  1.0000
  H   H82       1.0  0.12337000000000002  0.007500000000000001  0.46081999999999995  1.0000
  H   H83       1.0  0.049670000000000006  0.11313  0.4810699999999999  1.0000
  H   H84       1.0  0.9057999999999999  0.27699  0.24101999999999996  1.0000
  H   H85       1.0  0.92336  0.21959  0.14281  1.0000
  H   H86       1.0  0.98707  0.10745  0.13944  1.0000
  H   H87       1.0  0.97486  0.21273  0.43843999999999994  1.0000
  H   H88       1.0  0.9238100000000002  0.27253  0.35139  1.0000
  H   H89       1.0  0.35578  0.70608  0.19867  1.0000
  H   H90       1.0  0.21734999999999996  0.70682  0.30761  1.0000
  H   H91       1.0  0.55467  0.62428  0.46471  1.0000
  H   H92       1.0  0.46242  0.45179  0.44317  1.0000
  H   H93       1.0  0.14814000000000005  0.8179  0.30813  1.0000
  H   H94       1.0  0.28733  0.81522  0.19993999999999998  1.0000
  H   H95       1.0  0.9407900000000002  0.87979  0.04319  1.0000
  H   H96       1.0  0.041600000000000005  0.05377  0.05356999999999999  1.0000
  H   H97       1.0  0.47108  0.09037  0.85079  1.0000
  H   H98       1.0  0.40877  0.20257  0.8385499999999999  1.0000
  H   H99       1.0  0.40727  0.25693  0.73718  1.0000
  H   H100      1.0  0.57976  0.08197  0.51372  1.0000
  H   H101      1.0  0.6488  0.9767800000000001  0.5429  1.0000
  H   H102      1.0  0.64491  0.94056  0.64893  1.0000
  H   H103      1.0  0.43997  0.24784  0.62892  1.0000
  H   H104      1.0  0.50085  0.18376  0.54739  1.0000
  H   H105      1.0  0.8058200000000002  0.17004  0.8854999999999998  1.0000
  H   H106      1.0  0.8077600000000001  0.25171  0.97272  1.0000
  H   H107      1.0  0.78266  0.19262  0.07368  1.0000
  H   H108      1.0  0.71742  0.81483  0.08617  1.0000
  H   H109      1.0  0.69268  0.74567  0.9893  1.0000
  H   H110      1.0  0.6943300000000002  0.81826  0.89663  1.0000
  H   H111      1.0  0.76069  0.07499  0.13547  1.0000
  H   H112      1.0  0.74159  0.93867  0.13995  1.0000
  H   H113      1.0  0.86676  0.53333  0.85688  1.0000
  H   H114      1.0  0.8766800000000002  0.49241  0.9608899999999998  1.0000
  H   H115      1.0  0.95038  0.38679  0.98113  1.0000
  H   H116      1.0  0.0939  0.22282  0.74101  1.0000
  H   H117      1.0  0.07645  0.28032  0.64278  1.0000
  H   H118      1.0  0.01301  0.39264  0.63952  1.0000
  H   H119      1.0  0.025289999999999993  0.28723  0.9384899999999999  1.0000
  H   H120      1.0  0.07620000000000002  0.22741999999999998  0.85139  1.0000
  H   H121      1.0  0.64377  0.79408  0.6988899999999999  1.0000
  H   H122      1.0  0.7824800000000001  0.79322  0.8076399999999998  1.0000
  H   H123      1.0  0.44514000000000004  0.8757  0.9649599999999999  1.0000
  H   H124      1.0  0.53754  0.04808  0.9429299999999999  1.0000
  H   H125      1.0  0.85201  0.68197  0.80796  1.0000
  H   H126      1.0  0.7127  0.6849  0.69993  1.0000
  H   H127      1.0  0.05885000000000001  0.62002  0.54354  1.0000
  H   H128      1.0  0.9582900000000001  0.44598  0.55344  1.0000
  C   C1        1.0  0.46899  0.61533  0.692  1.0000
  C   C2        1.0  0.43389  0.6777  0.69953  1.0000
  C   C3        1.0  0.43199  0.70746  0.75544  1.0000
  C   C4        1.0  0.46579  0.67381  0.80345  1.0000
  C   C5        1.0  0.50219  0.61178  0.7918799999999999  1.0000
  C   C6        1.0  0.54188  0.57758  0.83804  1.0000
  C   C7        1.0  0.5412300000000001  0.60277  0.8967799999999999  1.0000
  C   C8        1.0  0.5802700000000001  0.56545  0.94051  1.0000
  C   C9        1.0  0.6180700000000001  0.50667  0.9244999999999999  1.0000
  C   C10       1.0  0.61668  0.48585  0.8655499999999999  1.0000
  C   C11       1.0  0.46674  0.6993  0.86287  1.0000
  C   C12       1.0  0.5015  0.66432  0.90756  1.0000
  C   C13       1.0  0.79317  0.64635  0.57032  1.0000
  C   C14       1.0  0.79528  0.69168  0.52099  1.0000
  C   C15       1.0  0.78328  0.6594  0.46531  1.0000
  C   C16       1.0  0.7676100000000001  0.58128  0.4595599999999999  1.0000
  C   C17       1.0  0.7614600000000001  0.53919  0.51193  1.0000
  C   C18       1.0  0.7386200000000003  0.45897000000000004  0.5094  1.0000
  C   C19       1.0  0.7323400000000001  0.42235  0.45443  1.0000
  C   C20       1.0  0.7166  0.34389  0.45507999999999993  1.0000
  C   C21       1.0  0.70479  0.30613  0.5086  1.0000
  C   C22       1.0  0.7071000000000002  0.34628  0.56084  1.0000
  C   C23       1.0  0.7571000000000001  0.54249  0.40444  1.0000
  C   C24       1.0  0.7435100000000002  0.4667  0.40198  1.0000
  C   C25       1.0  0.8968800000000001  0.98748  0.63235  1.0000
  C   C26       1.0  0.9032499999999999  0.9641799999999999  0.57468  1.0000
  C   C27       1.0  0.94389  0.90521  0.56354  1.0000
  C   C28       1.0  0.97725  0.87003  0.61091  1.0000
  C   C29       1.0  0.96828  0.89736  0.66816  1.0000
  C   C30       1.0  0.001629999999999986  0.86525  0.71777  1.0000
  C   C31       1.0  0.04026999999999996  0.80327  0.71125  1.0000
  C   C32       1.0  0.06736000000000002  0.77186  0.7625  1.0000
  C   C33       1.0  0.056990000000000006  0.80343  0.8166699999999999  1.0000
  C   C34       1.0  0.020799999999999992  0.86582  0.8191999999999999  1.0000
  C   C35       1.0  0.01888000000000001  0.80849  0.6053  1.0000
  C   C36       1.0  0.04797999999999998  0.77572  0.65328  1.0000
  C   C37       1.0  0.67404  0.37989  0.73211  1.0000
  C   C38       1.0  0.68603  0.3124  0.7600299999999999  1.0000
  C   C39       1.0  0.74293  0.27249  0.73412  1.0000
  C   C40       1.0  0.4816  0.42188  0.62413  1.0000
  C   C41       1.0  0.4786900000000001  0.4288  0.55942  1.0000
  C   C42       1.0  0.50595  0.49633  0.53102  1.0000
  C   C43       1.0  0.81929  0.09699  0.76225  1.0000
  C   C44       1.0  0.80883  0.16416  0.73323  1.0000
  C   C45       1.0  0.75249  0.20494  0.75848  1.0000
  C   C46       1.0  0.01896  0.06382  0.87135  1.0000
  C   C47       1.0  0.02233  0.0649  0.93621  1.0000
  C   C48       1.0  0.9931000000000002  0.00058  0.96884  1.0000
  C   C49       1.0  0.5308300000000001  0.88443  0.19199  1.0000
  C   C50       1.0  0.56624  0.82219  0.19958  1.0000
  C   C51       1.0  0.5681  0.79246  0.25551  1.0000
  C   C52       1.0  0.53443  0.82624  0.3035  1.0000
  C   C53       1.0  0.49772  0.88813  0.29184999999999994  1.0000
  C   C54       1.0  0.45826  0.92251  0.33798  1.0000
  C   C55       1.0  0.45878  0.89731  0.39674  1.0000
  C   C56       1.0  0.41981000000000007  0.9347200000000001  0.44045  1.0000
  C   C57       1.0  0.38193000000000005  0.99344  0.4244  1.0000
  C   C58       1.0  0.38334  0.01425  0.36544  1.0000
  C   C59       1.0  0.53334  0.80072  0.36292  1.0000
  C   C60       1.0  0.49853  0.83577  0.40756999999999993  1.0000
  C   C61       1.0  0.20690000000000003  0.85367  0.07043  1.0000
  C   C62       1.0  0.20459  0.8083  0.021079999999999998  1.0000
  C   C63       1.0  0.21666000000000002  0.8406  0.9653999999999998  1.0000
  C   C64       1.0  0.23229000000000005  0.91872  0.95967  1.0000
  C   C65       1.0  0.23863000000000006  0.9608100000000002  0.01205  1.0000
  C   C66       1.0  0.26146  0.04107  0.00944  1.0000
  C   C67       1.0  0.26769000000000004  0.07763  0.95445  1.0000
  C   C68       1.0  0.28339  0.1561  0.9550599999999999  1.0000
  C   C69       1.0  0.29536  0.19394  0.00853  1.0000
  C   C70       1.0  0.29306  0.15381  0.06079  1.0000
  C   C71       1.0  0.2428000000000001  0.9574700000000002  0.9045299999999998  1.0000
  C   C72       1.0  0.25647  0.03327  0.9020199999999999  1.0000
  C   C73       1.0  0.10302000000000003  0.51236  0.1324  1.0000
  C   C74       1.0  0.09685000000000005  0.53573  0.07473  1.0000
  C   C75       1.0  0.056190000000000025  0.59468  0.06355  1.0000
  C   C76       1.0  0.022680000000000058  0.62983  0.11091999999999999  1.0000
  C   C77       1.0  0.03149000000000002  0.60247  0.16816  1.0000
  C   C78       1.0  0.9981400000000001  0.63465  0.21775  1.0000
  C   C79       1.0  0.9594800000000002  0.6966  0.2112  1.0000
  C   C80       1.0  0.93234  0.72802  0.26246  1.0000
  C   C81       1.0  0.9428  0.69653  0.31664999999999993  1.0000
  C   C82       1.0  0.9791400000000001  0.63419  0.31918  1.0000
  C   C83       1.0  0.9811000000000001  0.69139  0.10528999999999998  1.0000
  C   C84       1.0  0.95186  0.72415  0.15324  1.0000
  C   C85       1.0  0.3261900000000001  0.12034000000000002  0.23211  1.0000
  C   C86       1.0  0.3139  0.18777  0.25996  1.0000
  C   C87       1.0  0.25697  0.22752  0.23403  1.0000
  C   C88       1.0  0.51852  0.07885  0.12402  1.0000
  C   C89       1.0  0.52172  0.0715  0.05925999999999999  1.0000
  C   C90       1.0  0.49430000000000013  0.0039  0.03094  1.0000
  C   C91       1.0  0.17971  0.40252  0.26235  1.0000
  C   C92       1.0  0.19081000000000006  0.3356  0.23315999999999995  1.0000
  C   C93       1.0  0.24703  0.29492  0.25849  1.0000
  C   C94       1.0  0.9812  0.43708  0.37129999999999996  1.0000
  C   C95       1.0  0.97785  0.43544  0.4361  1.0000
  C   C96       1.0  0.006900000000000044  0.4995800000000001  0.46887  1.0000
  C   C97       1.0  0.53095  0.38461  0.30798  1.0000
  C   C98       1.0  0.56623  0.32232  0.30041  1.0000
  C   C99       1.0  0.56822  0.29263  0.24449  1.0000
  C   C100      1.0  0.5344000000000001  0.32629  0.19648999999999997  1.0000
  C   C101      1.0  0.4979100000000001  0.38828  0.20807  1.0000
  C   C102      1.0  0.45825  0.42252  0.16193999999999997  1.0000
  C   C103      1.0  0.45878  0.3973  0.1032  1.0000
  C   C104      1.0  0.41969000000000006  0.43461  0.05947999999999999  1.0000
  C   C105      1.0  0.38182000000000005  0.4933600000000001  0.07551  1.0000
  C   C106      1.0  0.38332000000000005  0.51422  0.13445  1.0000
  C   C107      1.0  0.53337  0.30077  0.13708  1.0000
  C   C108      1.0  0.4985  0.33573  0.09240999999999999  1.0000
  C   C109      1.0  0.20676  0.35358  0.42970999999999987  1.0000
  C   C110      1.0  0.20466000000000006  0.30826  0.4790499999999999  1.0000
  C   C111      1.0  0.21672  0.34059  0.53472  1.0000
  C   C112      1.0  0.23238000000000006  0.41871  0.54044  1.0000
  C   C113      1.0  0.23853000000000002  0.46077000000000007  0.4880699999999999  1.0000
  C   C114      1.0  0.26136  0.54101  0.49058  1.0000
  C   C115      1.0  0.26765000000000005  0.57763  0.54555  1.0000
  C   C116      1.0  0.28337  0.65608  0.5449  1.0000
  C   C117      1.0  0.29523  0.69386  0.49138999999999994  1.0000
  C   C118      1.0  0.29292  0.65371  0.43914  1.0000
  C   C119      1.0  0.24293000000000003  0.45751  0.59555  1.0000
  C   C120      1.0  0.25649  0.53329  0.598  1.0000
  C   C121      1.0  0.10318  0.0124  0.36759  1.0000
  C   C122      1.0  0.09691000000000001  0.03575  0.42524999999999996  1.0000
  C   C123      1.0  0.05623  0.0947  0.43641  1.0000
  C   C124      1.0  0.02284  0.12989  0.38903999999999994  1.0000
  C   C125      1.0  0.031730000000000015  0.10255  0.33179999999999993  1.0000
  C   C126      1.0  0.99834  0.13467  0.28221  1.0000
  C   C127      1.0  0.9596  0.1966  0.28876  1.0000
  C   C128      1.0  0.9323900000000002  0.22797999999999996  0.23751  1.0000
  C   C129      1.0  0.94286  0.19649  0.18334  1.0000
  C   C130      1.0  0.9792200000000002  0.13417  0.18076999999999993  1.0000
  C   C131      1.0  0.9812  0.19142  0.39466  1.0000
  C   C132      1.0  0.9519700000000002  0.22417  0.34670999999999996  1.0000
  C   C133      1.0  0.32561  0.61967  0.26762  1.0000
  C   C134      1.0  0.31363  0.68736  0.23990999999999998  1.0000
  C   C135      1.0  0.25702000000000014  0.72735  0.26593  1.0000
  C   C136      1.0  0.5184  0.57808  0.37583999999999995  1.0000
  C   C137      1.0  0.52132  0.57121  0.44055999999999995  1.0000
  C   C138      1.0  0.4941  0.50371  0.46899  1.0000
  C   C139      1.0  0.18069  0.90304  0.23814  1.0000
  C   C140      1.0  0.19091000000000002  0.83559  0.26693  1.0000
  C   C141      1.0  0.24725999999999995  0.79493  0.24156999999999998  1.0000
  C   C142      1.0  0.98097  0.93619  0.12864  1.0000
  C   C143      1.0  0.9776400000000002  0.9351000000000002  0.06377  1.0000
  C   C144      1.0  0.006840000000000032  0.99942  0.03114  1.0000
  C   C145      1.0  0.46912000000000004  0.11551000000000002  0.80796  1.0000
  C   C146      1.0  0.43378  0.17778  0.80044  1.0000
  C   C147      1.0  0.43193000000000004  0.20759  0.7445299999999999  1.0000
  C   C148      1.0  0.46575  0.17396  0.6964999999999999  1.0000
  C   C149      1.0  0.5023  0.11199  0.70808  1.0000
  C   C150      1.0  0.54192  0.07777  0.66192  1.0000
  C   C151      1.0  0.54117  0.10288  0.60315  1.0000
  C   C152      1.0  0.58024  0.06553  0.55945  1.0000
  C   C153      1.0  0.61802  0.00674  0.57548  1.0000
  C   C154      1.0  0.61669  0.98598  0.63444  1.0000
  C   C155      1.0  0.4667  0.19944  0.63707  1.0000
  C   C156      1.0  0.50146  0.16445  0.59237  1.0000
  C   C157      1.0  0.7931  0.14632  0.92955  1.0000
  C   C158      1.0  0.7953800000000002  0.19168  0.97889  1.0000
  C   C159      1.0  0.78333  0.15941  0.03459  1.0000
  C   C160      1.0  0.76774  0.08131  0.04035  1.0000
  C   C161      1.0  0.76141  0.03919  0.98798  1.0000
  C   C162      1.0  0.73858  0.9589599999999999  0.99057  1.0000
  C   C163      1.0  0.7323000000000001  0.9223600000000001  0.04554999999999999  1.0000
  C   C164      1.0  0.71661  0.8439  0.044919999999999995  1.0000
  C   C165      1.0  0.70465  0.80609  0.99143  1.0000
  C   C166      1.0  0.70698  0.84622  0.93918  1.0000
  C   C167      1.0  0.75721  0.04254  0.09548  1.0000
  C   C168      1.0  0.74354  0.96674  0.09799  1.0000
  C   C169      1.0  0.897  0.48754  0.86764  1.0000
  C   C170      1.0  0.9032400000000003  0.46421000000000007  0.92532  1.0000
  C   C171      1.0  0.94388  0.40526  0.9364799999999998  1.0000
  C   C172      1.0  0.9773400000000001  0.37009  0.88911  1.0000
  C   C173      1.0  0.9684700000000003  0.39744  0.83187  1.0000
  C   C174      1.0  0.0017900000000000296  0.36529  0.7822499999999999  1.0000
  C   C175      1.0  0.04035999999999999  0.30331  0.78878  1.0000
  C   C176      1.0  0.06741  0.27188  0.73751  1.0000
  C   C177      1.0  0.05704000000000002  0.30343  0.68332  1.0000
  C   C178      1.0  0.020870000000000003  0.36583  0.68081  1.0000
  C   C179      1.0  0.01893000000000001  0.30855  0.8947199999999998  1.0000
  C   C180      1.0  0.04805000000000001  0.27579  0.84675  1.0000
  C   C181      1.0  0.67413  0.88001  0.76802  1.0000
  C   C182      1.0  0.6859400000000001  0.81245  0.74016  1.0000
  C   C183      1.0  0.7429100000000002  0.77256  0.76597  1.0000
  C   C184      1.0  0.4814899999999999  0.9211399999999998  0.8758199999999999  1.0000
  C   C185      1.0  0.4783900000000001  0.9285900000000001  0.94057  1.0000
  C   C186      1.0  0.50581  0.99623  0.9688499999999999  1.0000
  C   C187      1.0  0.82011  0.59736  0.73759  1.0000
  C   C188      1.0  0.8092900000000001  0.66439  0.7667299999999999  1.0000
  C   C189      1.0  0.75286  0.70515  0.7415299999999999  1.0000
  C   C190      1.0  0.018729999999999997  0.56288  0.6286999999999999  1.0000
  C   C191      1.0  0.022099999999999998  0.56455  0.5638999999999998  1.0000
  C   C192      1.0  0.99304  0.50042  0.53113  1.0000
  N   N1        1.0  0.50188  0.58238  0.7368099999999997  1.0000
  N   N2        1.0  0.57974  0.5202  0.82292  1.0000
  N   N3        1.0  0.77702  0.57197  0.56618  1.0000
  N   N4        1.0  0.7233900000000002  0.42092  0.56152  1.0000
  N   N5        1.0  0.92836  0.95522  0.67845  1.0000
  N   N6        1.0  0.9941700000000001  0.89673  0.7712499999999999  1.0000
  N   N7        1.0  0.49773999999999996  0.9173499999999999  0.23673  1.0000
  N   N8        1.0  0.42022000000000004  0.9798  0.32282  1.0000
  N   N9        1.0  0.22317000000000006  0.9280699999999998  0.06635  1.0000
  N   N10       1.0  0.2768000000000001  0.07919  0.06151  1.0000
  N   N11       1.0  0.07141  0.54461  0.17848999999999998  1.0000
  N   N12       1.0  0.005760000000000016  0.60333  0.27124  1.0000
  N   N13       1.0  0.49808  0.41757  0.26318  1.0000
  N   N14       1.0  0.42038  0.47990000000000005  0.17708  1.0000
  N   N15       1.0  0.22294000000000005  0.42796  0.43382999999999994  1.0000
  N   N16       1.0  0.27661  0.57906  0.43845  1.0000
  N   N17       1.0  0.07160000000000001  0.04465  0.32148  1.0000
  N   N18       1.0  0.005870000000000001  0.10328  0.22871  1.0000
  N   N19       1.0  0.50225  0.08267  0.76317  1.0000
  N   N20       1.0  0.57994  0.02047  0.67706  1.0000
  N   N21       1.0  0.7769200000000002  0.07192  0.93368  1.0000
  N   N22       1.0  0.72319  0.9208499999999998  0.9384899999999999  1.0000
  N   N23       1.0  0.9285700000000001  0.4552899999999999  0.8215699999999999  1.0000
  N   N24       1.0  0.99426  0.39669  0.72878  1.0000
  O   O1        1.0  0.60153  0.40371  0.75409  1.0000
  O   O2        1.0  0.7370600000000002  0.40824  0.6889399999999999  1.0000
  O   O3        1.0  0.54601  0.48279  0.65044  1.0000
  O   O4        1.0  0.42345  0.36198  0.64858  1.0000
  O   O5        1.0  0.7531300000000001  0.06827  0.8043399999999999  1.0000
  O   O6        1.0  0.89362  0.07338  0.74263  1.0000
  O   O7        1.0  0.94444  0.00409  0.8490799999999998  1.0000
  O   O8        1.0  0.08604000000000003  0.11598  0.84276  1.0000
  O   O9        1.0  0.39943  0.09737  0.25401  1.0000
  O   O10       1.0  0.26263  0.09118  0.18931  1.0000
  O   O11       1.0  0.45396000000000003  0.01819  0.15047  1.0000
  O   O12       1.0  0.57646  0.13892  0.14838  1.0000
  O   O13       1.0  0.24526000000000003  0.4313  0.3046  1.0000
  O   O14       1.0  0.10501  0.42564  0.24262999999999998  1.0000
  O   O15       1.0  0.05594999999999998  0.49679999999999996  0.34918  1.0000
  O   O16       1.0  0.91386  0.38534  0.34257  1.0000
  O   O17       1.0  0.39877  0.59642  0.24583  1.0000
  O   O18       1.0  0.26193  0.59043  0.31032  1.0000
  O   O19       1.0  0.45405  0.51716  0.34953  1.0000
  O   O20       1.0  0.57653  0.638  0.35139999999999993  1.0000
  O   O21       1.0  0.24738000000000002  0.9322900000000001  0.19643999999999998  1.0000
  O   O22       1.0  0.10602000000000004  0.9264200000000001  0.25759  1.0000
  O   O23       1.0  0.055600000000000004  0.99587  0.15092  1.0000
  O   O24       1.0  0.91382  0.8841  0.15723  1.0000
  O   O25       1.0  0.60137  0.90351  0.7459699999999998  1.0000
  O   O26       1.0  0.73746  0.90888  0.81094  1.0000
  O   O27       1.0  0.54595  0.98181  0.84934  1.0000
  O   O28       1.0  0.42356000000000005  0.86102  0.8515499999999999  1.0000
  O   O29       1.0  0.75528  0.56919  0.69489  1.0000
  O   O30       1.0  0.89383  0.57347  0.75763  1.0000
  O   O31       1.0  0.944  0.50316  0.65082  1.0000
  O   O32       1.0  0.08609000000000001  0.61465  0.65745  1.0000
