data_image0
_chemical_formula_structural       Cu12H80W4C100S12Br4N20
_chemical_formula_sum              "Cu12 H80 W4 C100 S12 Br4 N20"
_cell_length_a       15.01847
_cell_length_b       15.01891
_cell_length_c       17.82023
_cell_angle_alpha    85.38625
_cell_angle_beta     85.39100000000002
_cell_angle_gamma    89.15797

_space_group_name_H-M_alt    "P 1"
_space_group_IT_number       1

loop_
  _space_group_symop_operation_xyz
  'x, y, z'

loop_
  _atom_site_type_symbol
  _atom_site_label
  _atom_site_symmetry_multiplicity
  _atom_site_fract_x
  _atom_site_fract_y
  _atom_site_fract_z
  _atom_site_occupancy
  Cu  Cu1       1.0  0.91138  0.7272299999999998  0.029079999999999998  1.0000
  Cu  Cu2       1.0  0.78192  0.6870499999999998  0.85447  1.0000
  Cu  Cu3       1.0  0.69519  0.8788399999999997  0.98148  1.0000
  Cu  Cu4       1.0  0.27276  0.08863999999999997  0.47093999999999997  1.0000
  Cu  Cu5       1.0  0.31298  0.21812999999999988  0.64546  1.0000
  Cu  Cu6       1.0  0.12122999999999999  0.30475999999999986  0.51843  1.0000
  Cu  Cu7       1.0  0.08861  0.2727499999999999  0.97093  1.0000
  Cu  Cu8       1.0  0.21806  0.3128799999999999  0.1455  1.0000
  Cu  Cu9       1.0  0.30473  0.12115999999999998  0.01846  1.0000
  Cu  Cu10      1.0  0.7272600000000001  0.91137  0.52898  1.0000
  Cu  Cu11      1.0  0.68685  0.78181  0.35458  1.0000
  Cu  Cu12      1.0  0.87889  0.6951999999999998  0.48162  1.0000
  H   H1        1.0  0.07105  0.60738  0.06367  1.0000
  H   H2        1.0  0.12661999999999998  0.5263299999999997  0.17777  1.0000
  H   H3        1.0  0.91078  0.6480199999999998  0.31005  1.0000
  H   H4        1.0  0.86257  0.7228099999999998  0.18998  1.0000
  H   H5        1.0  0.19118000000000004  0.5419  0.30083  1.0000
  H   H6        1.0  0.22382999999999997  0.4417199999999999  0.41462  1.0000
  H   H7        1.0  0.95589  0.40049999999999997  0.47611000000000003  1.0000
  H   H8        1.0  0.91079  0.50125  0.36582  1.0000
  H   H9        1.0  0.35544  0.08339000000000002  0.76925  1.0000
  H   H10       1.0  0.27375  0.9743699999999997  0.86075  1.0000
  H   H11       1.0  0.029350000000000008  0.07293999999999999  0.76979  1.0000
  H   H12       1.0  0.12071999999999998  0.17636  0.68044  1.0000
  H   H13       1.0  0.19667999999999997  0.8459899999999998  0.87772  1.0000
  H   H14       1.0  0.10350000000000005  0.7372999999999997  0.9608299999999999  1.0000
  H   H15       1.0  0.88772  0.9138899999999999  0.9687499999999999  1.0000
  H   H16       1.0  0.9715899999999998  0.02938  0.88817  1.0000
  H   H17       1.0  0.71353  0.6581  0.70074  1.0000
  H   H18       1.0  0.60122  0.56033  0.65645  1.0000
  H   H19       1.0  0.59608  0.4084599999999999  0.87423  1.0000
  H   H20       1.0  0.71153  0.51262  0.9092900000000002  1.0000
  H   H21       1.0  0.39258  0.9289399999999998  0.43631  1.0000
  H   H22       1.0  0.47363  0.8733399999999998  0.3222  1.0000
  H   H23       1.0  0.35202  0.08926  0.18991  1.0000
  H   H24       1.0  0.27725  0.13743  0.31004  1.0000
  H   H25       1.0  0.45808  0.8088299999999998  0.1992  1.0000
  H   H26       1.0  0.55827  0.77616  0.08539  1.0000
  H   H27       1.0  0.5995  0.04415  0.02387  1.0000
  H   H28       1.0  0.49873  0.08925  0.13419  1.0000
  H   H29       1.0  0.91662  0.64449  0.73074  1.0000
  H   H30       1.0  0.02563  0.72621  0.6393  1.0000
  H   H31       1.0  0.92709  0.97064  0.7302  1.0000
  H   H32       1.0  0.82366  0.87931  0.81953  1.0000
  H   H33       1.0  0.15402000000000005  0.8032899999999998  0.62227  1.0000
  H   H34       1.0  0.26267  0.8965299999999998  0.53916  1.0000
  H   H35       1.0  0.08612999999999998  0.11230999999999995  0.53125  1.0000
  H   H36       1.0  0.97062  0.02842  0.61182  1.0000
  H   H37       1.0  0.34185  0.28654  0.79927  1.0000
  H   H38       1.0  0.43966  0.3987699999999999  0.84358  1.0000
  H   H39       1.0  0.5915  0.4039400000000001  0.6258  1.0000
  H   H40       1.0  0.48733000000000004  0.2885399999999999  0.59072  1.0000
  H   H41       1.0  0.92893  0.39258  0.93629  1.0000
  H   H42       1.0  0.8733700000000001  0.47364999999999996  0.8222  1.0000
  H   H43       1.0  0.08927999999999998  0.3519799999999999  0.68995  1.0000
  H   H44       1.0  0.1374400000000001  0.2772  0.81002  1.0000
  H   H45       1.0  0.80883  0.4581099999999999  0.69915  1.0000
  H   H46       1.0  0.77623  0.55832  0.58536  1.0000
  H   H47       1.0  0.04413  0.59952  0.52389  1.0000
  H   H48       1.0  0.08925000000000002  0.49873999999999985  0.63416  1.0000
  H   H49       1.0  0.64453  0.91665  0.23071000000000003  1.0000
  H   H50       1.0  0.72623  0.025659999999999995  0.13923  1.0000
  H   H51       1.0  0.97057  0.92708  0.23023  1.0000
  H   H52       1.0  0.87916  0.8236499999999998  0.31956  1.0000
  H   H53       1.0  0.80333  0.15402  0.12228000000000001  1.0000
  H   H54       1.0  0.89652  0.2626999999999999  0.03919  1.0000
  H   H55       1.0  0.11227  0.08607  0.0313  1.0000
  H   H56       1.0  0.02838  0.97061  0.11186  1.0000
  H   H57       1.0  0.28647  0.34188  0.29926  1.0000
  H   H58       1.0  0.39877  0.43962  0.34354  1.0000
  H   H59       1.0  0.40387  0.5915  0.12574  1.0000
  H   H60       1.0  0.28843  0.48734  0.0907  1.0000
  H   H61       1.0  0.60744  0.071  0.56371  1.0000
  H   H62       1.0  0.52634  0.12666  0.67779  1.0000
  H   H63       1.0  0.64799  0.9107199999999998  0.81008  1.0000
  H   H64       1.0  0.72275  0.8625999999999998  0.68992  1.0000
  H   H65       1.0  0.54191  0.19115999999999994  0.80081  1.0000
  H   H66       1.0  0.44172  0.22382000000000002  0.9145999999999999  1.0000
  H   H67       1.0  0.40049  0.95582  0.9761200000000001  1.0000
  H   H68       1.0  0.50128  0.9107199999999998  0.86581  1.0000
  H   H69       1.0  0.08343000000000002  0.35545  0.26926  1.0000
  H   H70       1.0  0.97441  0.27377  0.36071  1.0000
  H   H71       1.0  0.07289  0.02934  0.26981  1.0000
  H   H72       1.0  0.17634000000000002  0.12064999999999995  0.18048  1.0000
  H   H73       1.0  0.84597  0.19669999999999996  0.37772  1.0000
  H   H74       1.0  0.73731  0.10346  0.46082999999999996  1.0000
  H   H75       1.0  0.91383  0.8876699999999997  0.4687700000000001  1.0000
  H   H76       1.0  0.029340000000000005  0.9715499999999998  0.38819  1.0000
  H   H77       1.0  0.65812  0.7134299999999998  0.20077  1.0000
  H   H78       1.0  0.56036  0.6012199999999998  0.1564  1.0000
  H   H79       1.0  0.40844  0.59602  0.3742  1.0000
  H   H80       1.0  0.5126700000000002  0.7114099999999998  0.40927  1.0000
  W   W1        1.0  0.7422399999999999  0.70711  0.9989600000000001  1.0000
  W   W2        1.0  0.29286000000000006  0.2577  0.50105  1.0000
  W   W3        1.0  0.25771  0.29287  0.00103  1.0000
  W   W4        1.0  0.70707  0.74226  0.49897  1.0000
  C   C1        1.0  0.03789  0.61578  0.11925  1.0000
  C   C2        1.0  0.06901  0.57086  0.18343  1.0000
  C   C3        1.0  0.022570000000000003  0.57998  0.25395  1.0000
  C   C4        1.0  0.94741  0.63656  0.25641  1.0000
  C   C5        1.0  0.92115  0.6793399999999996  0.18992  1.0000
  C   C6        1.0  0.04760000000000001  0.52803  0.32266  1.0000
  C   C7        1.0  0.13684000000000002  0.5116699999999997  0.33773  1.0000
  C   C8        1.0  0.1554  0.45669  0.40113  1.0000
  C   C9        1.0  0.005190000000000004  0.4340499999999999  0.43566  1.0000
  C   C10       1.0  0.98098  0.4895599999999999  0.37445  1.0000
  C   C11       1.0  0.28322  0.07776999999999999  0.77029  1.0000
  C   C12       1.0  0.23724999999999996  0.01606  0.82064  1.0000
  C   C13       1.0  0.14375000000000004  0.01232  0.82222  1.0000
  C   C14       1.0  0.10155000000000002  0.07254000000000001  0.77167  1.0000
  C   C15       1.0  0.15222  0.1311  0.72171  1.0000
  C   C16       1.0  0.09216  0.9475399999999998  0.87424  1.0000
  C   C17       1.0  0.12880999999999998  0.8640299999999997  0.89723  1.0000
  C   C18       1.0  0.07686000000000003  0.8028499999999997  0.94343  1.0000
  C   C19       1.0  0.95662  0.9009099999999998  0.9481799999999999  1.0000
  C   C20       1.0  0.0041000000000000055  0.96548  0.90175  1.0000
  C   C21       1.0  0.68656  0.60183  0.73776  1.0000
  C   C22       1.0  0.62354  0.5462899999999996  0.713  1.0000
  C   C23       1.0  0.58899  0.4746999999999998  0.76192  1.0000
  C   C24       1.0  0.61997  0.46336  0.83445  1.0000
  C   C25       1.0  0.68455  0.5204199999999999  0.85414  1.0000
  C   C26       1.0  0.3842100000000001  0.9620899999999998  0.38072  1.0000
  C   C27       1.0  0.42914  0.93098  0.31654  1.0000
  C   C28       1.0  0.4200100000000001  0.97741  0.24601000000000003  1.0000
  C   C29       1.0  0.36346  0.0526  0.24355000000000002  1.0000
  C   C30       1.0  0.3207  0.07885  0.31005  1.0000
  C   C31       1.0  0.4719700000000001  0.95241  0.17731  1.0000
  C   C32       1.0  0.48833  0.8631599999999998  0.16228  1.0000
  C   C33       1.0  0.54331  0.8446099999999997  0.09888  1.0000
  C   C34       1.0  0.56594  0.99485  0.06433  1.0000
  C   C35       1.0  0.51043  0.01906  0.12555  1.0000
  C   C36       1.0  0.9222300000000002  0.71673  0.72973  1.0000
  C   C37       1.0  0.98392  0.76272  0.67938  1.0000
  C   C38       1.0  0.98764  0.85623  0.67777  1.0000
  C   C39       1.0  0.92748  0.89843  0.72835  1.0000
  C   C40       1.0  0.8689199999999999  0.84776  0.7783  1.0000
  C   C41       1.0  0.05244000000000001  0.9078399999999998  0.62577  1.0000
  C   C42       1.0  0.13594  0.8711699999999998  0.60278  1.0000
  C   C43       1.0  0.19711000000000004  0.92312  0.55657  1.0000
  C   C44       1.0  0.09908  0.04339  0.55181  1.0000
  C   C45       1.0  0.03450999999999999  0.9959  0.59824  1.0000
  C   C46       1.0  0.39816  0.31349  0.76228  1.0000
  C   C47       1.0  0.45372  0.37651999999999997  0.78701  1.0000
  C   C48       1.0  0.52525  0.4111  0.73805  1.0000
  C   C49       1.0  0.5366  0.3800399999999999  0.66555  1.0000
  C   C50       1.0  0.4795400000000001  0.31545  0.64589  1.0000
  C   C51       1.0  0.9621100000000002  0.3842  0.88072  1.0000
  C   C52       1.0  0.9309900000000002  0.42914  0.81654  1.0000
  C   C53       1.0  0.97743  0.4199999999999998  0.74603  1.0000
  C   C54       1.0  0.05262  0.3634499999999999  0.74357  1.0000
  C   C55       1.0  0.07886000000000003  0.32067  0.81006  1.0000
  C   C56       1.0  0.95243  0.47197999999999996  0.67734  1.0000
  C   C57       1.0  0.86319  0.4883599999999998  0.66227  1.0000
  C   C58       1.0  0.84465  0.54332  0.59886  1.0000
  C   C59       1.0  0.9948600000000001  0.56594  0.56434  1.0000
  C   C60       1.0  0.01905  0.5104399999999998  0.62556  1.0000
  C   C61       1.0  0.71674  0.9222399999999997  0.22968000000000002  1.0000
  C   C62       1.0  0.76272  0.98395  0.17933  1.0000
  C   C63       1.0  0.85621  0.9877  0.17777  1.0000
  C   C64       1.0  0.89837  0.9274799999999997  0.22833000000000003  1.0000
  C   C65       1.0  0.8476900000000002  0.8689199999999998  0.27829  1.0000
  C   C66       1.0  0.90782  0.052459999999999986  0.12575  1.0000
  C   C67       1.0  0.87119  0.13598  0.10277  1.0000
  C   C68       1.0  0.92316  0.19714999999999994  0.056589999999999994  1.0000
  C   C69       1.0  0.04337  0.09906999999999998  0.05185  1.0000
  C   C70       1.0  0.99588  0.034509999999999985  0.09828  1.0000
  C   C71       1.0  0.31343  0.3981299999999999  0.26222  1.0000
  C   C72       1.0  0.37645  0.45367  0.28698  1.0000
  C   C73       1.0  0.41096  0.52527  0.23809  1.0000
  C   C74       1.0  0.38  0.53661  0.16553  1.0000
  C   C75       1.0  0.3154400000000001  0.47954999999999987  0.14584  1.0000
  C   C76       1.0  0.61577  0.03788999999999999  0.61931  1.0000
  C   C77       1.0  0.57082  0.06901999999999996  0.68348  1.0000
  C   C78       1.0  0.57996  0.022580000000000003  0.754  1.0000
  C   C79       1.0  0.63653  0.94741  0.75646  1.0000
  C   C80       1.0  0.67928  0.92117  0.68996  1.0000
  C   C81       1.0  0.5279999999999998  0.04757999999999997  0.8227  1.0000
  C   C82       1.0  0.51166  0.13683  0.83774  1.0000
  C   C83       1.0  0.4566700000000001  0.15537  0.90113  1.0000
  C   C84       1.0  0.43404  0.0051199999999999805  0.9356600000000002  1.0000
  C   C85       1.0  0.48955999999999994  0.9809200000000001  0.87446  1.0000
  C   C86       1.0  0.07778  0.28322999999999987  0.27026  1.0000
  C   C87       1.0  0.016089999999999997  0.23724999999999988  0.32062  1.0000
  C   C88       1.0  0.012359999999999996  0.14374  0.32224  1.0000
  C   C89       1.0  0.07251  0.10153999999999999  0.27166  1.0000
  C   C90       1.0  0.13109  0.1522  0.22171  1.0000
  C   C91       1.0  0.94754  0.09214  0.37423  1.0000
  C   C92       1.0  0.86405  0.12883  0.39722  1.0000
  C   C93       1.0  0.80288  0.07688  0.44343  1.0000
  C   C94       1.0  0.90089  0.9565899999999998  0.44819  1.0000
  C   C95       1.0  0.96546  0.0040799999999999986  0.40177  1.0000
  C   C96       1.0  0.6018  0.6864499999999998  0.23772000000000001  1.0000
  C   C97       1.0  0.54623  0.62345  0.21298  1.0000
  C   C98       1.0  0.4747  0.58886  0.26195  1.0000
  C   C99       1.0  0.46334  0.61994  0.33444  1.0000
  C   C100      1.0  0.52043  0.68448  0.35411  1.0000
  S   S1        1.0  0.85141  0.61564  0.9606900000000002  1.0000
  S   S2        1.0  0.6550199999999999  0.7616599999999998  0.9114000000000001  1.0000
  S   S3        1.0  0.78076  0.80572  0.07551  1.0000
  S   S4        1.0  0.38431999999999994  0.14855  0.53935  1.0000
  S   S5        1.0  0.23832  0.34493  0.5886  1.0000
  S   S6        1.0  0.19424000000000002  0.21926  0.42446  1.0000
  S   S7        1.0  0.14857  0.38435  0.03934  1.0000
  S   S8        1.0  0.34495  0.23831999999999998  0.08858  1.0000
  S   S9        1.0  0.21920999999999996  0.19426  0.92446  1.0000
  S   S10       1.0  0.61564  0.8514799999999999  0.4607  1.0000
  S   S11       1.0  0.7616700000000001  0.65512  0.41137  1.0000
  S   S12       1.0  0.8056300000000001  0.7808799999999998  0.57554  1.0000
  Br  Br1       1.0  0.74798  0.01994999999999999  0.9191200000000002  1.0000
  Br  Br2       1.0  0.98002  0.25196  0.58091  1.0000
  Br  Br3       1.0  0.2519599999999999  0.98002  0.08089  1.0000
  Br  Br4       1.0  0.02008  0.74808  0.41909  1.0000
  N   N1        1.0  0.96464  0.66933  0.12151  1.0000
  N   N2        1.0  0.09115000000000001  0.41636  0.44882  1.0000
  N   N3        1.0  0.24233  0.13463  0.72083  1.0000
  N   N4        1.0  0.99134  0.8197899999999999  0.9685900000000001  1.0000
  N   N5        1.0  0.71819  0.5890699999999999  0.80682  1.0000
  N   N6        1.0  0.33070999999999995  0.035359999999999996  0.37846  1.0000
  N   N7        1.0  0.5836000000000002  0.9088799999999998  0.05118  1.0000
  N   N8        1.0  0.8653700000000001  0.75764  0.77918  1.0000
  N   N9        1.0  0.1802  0.008649999999999998  0.53142  1.0000
  N   N10       1.0  0.41089  0.28183  0.69323  1.0000
  N   N11       1.0  0.035359999999999996  0.33066  0.87847  1.0000
  N   N12       1.0  0.9089000000000002  0.58362  0.55117  1.0000
  N   N13       1.0  0.75758  0.86539  0.27918  1.0000
  N   N14       1.0  0.008670000000000002  0.18019999999999994  0.03143  1.0000
  N   N15       1.0  0.28179  0.4109  0.19317  1.0000
  N   N16       1.0  0.6692900000000002  0.9646399999999998  0.62155  1.0000
  N   N17       1.0  0.41635  0.09108999999999999  0.9488099999999999  1.0000
  N   N18       1.0  0.13466  0.24230999999999994  0.22083  1.0000
  N   N19       1.0  0.81977  0.9913399999999999  0.4685599999999999  1.0000
  N   N20       1.0  0.5891  0.7180699999999998  0.30678  1.0000
