data_image0
_chemical_formula_structural       Zn18H36C108O72
_chemical_formula_sum              "Zn18 H36 C108 O72"
_cell_length_a       20.60509
_cell_length_b       20.60559
_cell_length_c       20.60555
_cell_angle_alpha    109.47228999999999
_cell_angle_beta     109.46900999999998
_cell_angle_gamma    109.46945

_symmetry_space_group_name_H-M    'P 1'
_symmetry_Int_Tables_number       1

loop_
  _symmetry_equiv_pos_as_xyz
  'x,y,z'

loop_
  _atom_site_type_symbol
  _atom_site_label
  _atom_site_symmetry_multiplicity
  _atom_site_fract_x
  _atom_site_fract_y
  _atom_site_fract_z
  _atom_site_occupancy
  Zn  Zn1       1.0  0.07480000000000005  0.14631000000000002  0.5495900000000001  1.0000
  Zn  Zn2       1.0  0.5558100000000001  0.0558  0.50001  1.0000
  Zn  Zn3       1.0  0.47477  0.07145999999999991  0.92522  1.0000
  Zn  Zn4       1.0  0.92852  0.40328  0.85372  1.0000
  Zn  Zn5       1.0  0.85373  0.9285199999999999  0.40329  1.0000
  Zn  Zn6       1.0  0.52527  0.45043  0.59672  1.0000
  Zn  Zn7       1.0  0.40329  0.85371  0.92852  1.0000
  Zn  Zn8       1.0  0.54958  0.07479  0.1463  1.0000
  Zn  Zn9       1.0  0.44416  0.9441499999999999  0.5  1.0000
  Zn  Zn10      1.0  0.45043999999999995  0.5967199999999999  0.52527  1.0000
  Zn  Zn11      1.0  0.1463  0.54958  0.0748  1.0000
  Zn  Zn12      1.0  0.50001  0.55583  0.05582  1.0000
  Zn  Zn13      1.0  0.59671  0.52525  0.45043  1.0000
  Zn  Zn14      1.0  0.05580000000000001  0.50001  0.55581  1.0000
  Zn  Zn15      1.0  0.92522  0.47477999999999987  0.07146  1.0000
  Zn  Zn16      1.0  0.94416  0.5  0.44416  1.0000
  Zn  Zn17      1.0  0.5  0.44414999999999993  0.94415  1.0000
  Zn  Zn18      1.0  0.07145999999999998  0.9252199999999999  0.47478  1.0000
  H   H1        1.0  0.74362  0.53644  0.06262  1.0000
  H   H2        1.0  0.71433  0.7437899999999998  0.48024  1.0000
  H   H3        1.0  0.73654  0.25625  0.97062  1.0000
  H   H4        1.0  0.5261500000000002  0.46356  0.20713  1.0000
  H   H5        1.0  0.22375  0.75488  0.74225  1.0000
  H   H6        1.0  0.48023999999999994  0.71433  0.74381  1.0000
  H   H7        1.0  0.2341099999999999  0.5197499999999999  0.26356  1.0000
  H   H8        1.0  0.97062  0.73655  0.25624  1.0000
  H   H9        1.0  0.93738  0.47382  0.68098  1.0000
  H   H10       1.0  0.47382  0.68097  0.93739  1.0000
  H   H11       1.0  0.51975  0.26358000000000004  0.23412000000000002  1.0000
  H   H12       1.0  0.53644  0.06262  0.74363  1.0000
  H   H13       1.0  0.4815599999999999  0.25779  0.01262  1.0000
  H   H14       1.0  0.51849  0.53111  0.77629  1.0000
  H   H15       1.0  0.02938  0.28555  0.76582  1.0000
  H   H16       1.0  0.9873800000000001  0.24512  0.46895  1.0000
  H   H17       1.0  0.24511000000000005  0.46895  0.98738  1.0000
  H   H18       1.0  0.25778  0.012619999999999982  0.48156  1.0000
  H   H19       1.0  0.25625999999999993  0.9706199999999999  0.73656  1.0000
  H   H20       1.0  0.76583  0.02936999999999996  0.28557  1.0000
  H   H21       1.0  0.31901  0.79281  0.25633  1.0000
  H   H22       1.0  0.28556  0.76582  0.02938  1.0000
  H   H23       1.0  0.79282  0.25633  0.31901  1.0000
  H   H24       1.0  0.7437899999999998  0.48024  0.71432  1.0000
  H   H25       1.0  0.26358  0.23413  0.51976  1.0000
  H   H26       1.0  0.53111  0.7762799999999999  0.5185  1.0000
  H   H27       1.0  0.06262999999999992  0.74363  0.53645  1.0000
  H   H28       1.0  0.25634000000000007  0.31901999999999997  0.79283  1.0000
  H   H29       1.0  0.4689499999999999  0.9873699999999999  0.24512  1.0000
  H   H30       1.0  0.012619999999999994  0.48155  0.25778  1.0000
  H   H31       1.0  0.46356  0.20713999999999996  0.52615  1.0000
  H   H32       1.0  0.20714000000000002  0.52615  0.46355  1.0000
  H   H33       1.0  0.68098  0.93738  0.47382  1.0000
  H   H34       1.0  0.75489  0.74226  0.22377  1.0000
  H   H35       1.0  0.7422500000000001  0.22375  0.75489  1.0000
  H   H36       1.0  0.77628  0.5185  0.53111  1.0000
  C   C1        1.0  0.68352  0.77733  0.48612000000000005  1.0000
  C   C2        1.0  0.8676100000000001  0.74826  0.24687000000000003  1.0000
  C   C3        1.0  0.78456  0.71169  0.20449  1.0000
  C   C4        1.0  0.65115  0.59399  0.09414  1.0000
  C   C5        1.0  0.7398599999999997  0.6353599999999999  0.13826  1.0000
  C   C6        1.0  0.39847000000000005  0.89553  0.26014  1.0000
  C   C7        1.0  0.89553  0.26013  0.39847  1.0000
  C   C8        1.0  0.2289  0.52305  0.36744  1.0000
  C   C9        1.0  0.59607  0.11378  0.77845  1.0000
  C   C10       1.0  0.34885999999999995  0.44306999999999996  0.94292  1.0000
  C   C11       1.0  0.63535  0.13825  0.73985  1.0000
  C   C12       1.0  0.13122999999999996  0.9018899999999999  0.58876  1.0000
  C   C13       1.0  0.19744  0.51391  0.29125  1.0000
  C   C14       1.0  0.08632000000000001  0.49345  0.17277  1.0000
  C   C15       1.0  0.92714  0.21541999999999997  0.41999  1.0000
  C   C16       1.0  0.49868  0.25178  0.11936  1.0000
  C   C17       1.0  0.29416000000000003  0.77108  0.13848  1.0000
  C   C18       1.0  0.4574899999999999  0.7705799999999999  0.86878  1.0000
  C   C19       1.0  0.32067  0.9135399999999999  0.82724  1.0000
  C   C20       1.0  0.22154999999999997  0.3354  0.81766  1.0000
  C   C21       1.0  0.20449000000000006  0.7845500000000001  0.71169  1.0000
  C   C22       1.0  0.77059  0.86877  0.45749  1.0000
  C   C23       1.0  0.28831000000000007  0.07285  0.49284  1.0000
  C   C24       1.0  0.2601399999999999  0.39847  0.89554  1.0000
  C   C25       1.0  0.49346  0.17278  0.08632  1.0000
  C   C26       1.0  0.51771  0.40394  0.18233  1.0000
  C   C27       1.0  0.40593  0.05708  0.50007  1.0000
  C   C28       1.0  0.51391  0.29126  0.19744  1.0000
  C   C29       1.0  0.4822599999999999  0.6646199999999999  0.88622  1.0000
  C   C30       1.0  0.50007  0.40594  0.05709  1.0000
  C   C31       1.0  0.55698  0.90583  0.49986  1.0000
  C   C32       1.0  0.94292  0.34886  0.44306  1.0000
  C   C33       1.0  0.8272299999999999  0.32066  0.91355  1.0000
  C   C34       1.0  0.91371  0.08643  0.40713  1.0000
  C   C35       1.0  0.74826  0.24685999999999994  0.86761  1.0000
  C   C36       1.0  0.13825999999999997  0.73985  0.63536  1.0000
  C   C37       1.0  0.44306  0.94291  0.34887  1.0000
  C   C38       1.0  0.75313  0.50139  0.62069  1.0000
  C   C39       1.0  0.2154199999999999  0.41999  0.92715  1.0000
  C   C40       1.0  0.29126  0.19745  0.51392  1.0000
  C   C41       1.0  0.71168  0.20447999999999994  0.78455  1.0000
  C   C42       1.0  0.11936000000000002  0.49867  0.25177  1.0000
  C   C43       1.0  0.70881  0.22266999999999998  0.90626  1.0000
  C   C44       1.0  0.49284  0.28832  0.07285  1.0000
  C   C45       1.0  0.17277  0.08631999999999998  0.49346  1.0000
  C   C46       1.0  0.48610999999999993  0.68352  0.77734  1.0000
  C   C47       1.0  0.49706999999999996  0.60155  0.86172  1.0000
  C   C48       1.0  0.07285000000000004  0.49284  0.28831  1.0000
  C   C49       1.0  0.58874  0.1312200000000001  0.90189  1.0000
  C   C50       1.0  0.4998600000000001  0.55698  0.9058300000000001  1.0000
  C   C51       1.0  0.8687700000000003  0.45749  0.7706000000000001  1.0000
  C   C52       1.0  0.22938999999999998  0.68687  0.09816  1.0000
  C   C53       1.0  0.05709  0.50007  0.40594  1.0000
  C   C54       1.0  0.77109  0.13847  0.29416  1.0000
  C   C55       1.0  0.70583  0.84435  0.47694000000000003  1.0000
  C   C56       1.0  0.59399  0.09411999999999991  0.65114  1.0000
  C   C57       1.0  0.8443500000000005  0.47694  0.70583  1.0000
  C   C58       1.0  0.09412999999999987  0.6511399999999999  0.59399  1.0000
  C   C59       1.0  0.11378999999999999  0.77845  0.59608  1.0000
  C   C60       1.0  0.5928300000000001  0.67939  0.50664  1.0000
  C   C61       1.0  0.10446  0.50289  0.36461  1.0000
  C   C62       1.0  0.54248  0.41135999999999995  0.3131  1.0000
  C   C63       1.0  0.08642999999999999  0.40712  0.9137  1.0000
  C   C64       1.0  0.31644  0.80253  0.09373  1.0000
  C   C65       1.0  0.9135499999999999  0.82724  0.32067  1.0000
  C   C66       1.0  0.58004  0.79551  0.50718  1.0000
  C   C67       1.0  0.8615200000000002  0.63261  0.15565  1.0000
  C   C68       1.0  0.8176499999999999  0.22154  0.33539  1.0000
  C   C69       1.0  0.8617  0.49705999999999995  0.60155  1.0000
  C   C70       1.0  0.7955099999999999  0.50718  0.58003  1.0000
  C   C71       1.0  0.40393999999999997  0.18233000000000002  0.51771  1.0000
  C   C72       1.0  0.90582  0.49986  0.55698  1.0000
  C   C73       1.0  0.18234  0.51771  0.40394  1.0000
  C   C74       1.0  0.40713  0.9137  0.08643000000000002  1.0000
  C   C75       1.0  0.13237000000000002  0.3793  0.88065  1.0000
  C   C76       1.0  0.09816999999999991  0.22938999999999998  0.68688  1.0000
  C   C77       1.0  0.88065  0.13237  0.3793  1.0000
  C   C78       1.0  0.7773199999999999  0.48610999999999993  0.68351  1.0000
  C   C79       1.0  0.5013899999999999  0.6206899999999999  0.75314  1.0000
  C   C80       1.0  0.8862100000000002  0.48225999999999997  0.66462  1.0000
  C   C81       1.0  0.15566  0.86153  0.63262  1.0000
  C   C82       1.0  0.7784499999999999  0.59607  0.11378  1.0000
  C   C83       1.0  0.90189  0.5887499999999998  0.13122  1.0000
  C   C84       1.0  0.25177  0.11936  0.49868  1.0000
  C   C85       1.0  0.8025399999999999  0.09373  0.31644  1.0000
  C   C86       1.0  0.6015499999999999  0.8617099999999999  0.49706999999999996  1.0000
  C   C87       1.0  0.24687  0.8676  0.74827  1.0000
  C   C88       1.0  0.41135999999999995  0.3131  0.54248  1.0000
  C   C89       1.0  0.52305  0.36745  0.2289  1.0000
  C   C90       1.0  0.50718  0.58003  0.79552  1.0000
  C   C91       1.0  0.36461  0.10444999999999995  0.50289  1.0000
  C   C92       1.0  0.66463  0.88622  0.48226  1.0000
  C   C93       1.0  0.90626  0.70882  0.22267  1.0000
  C   C94       1.0  0.41999  0.92714  0.21542000000000003  1.0000
  C   C95       1.0  0.6868699999999999  0.09815  0.22939  1.0000
  C   C96       1.0  0.6326  0.15565  0.86153  1.0000
  C   C97       1.0  0.22267999999999993  0.9062599999999998  0.70883  1.0000
  C   C98       1.0  0.36745  0.22889999999999996  0.52306  1.0000
  C   C99       1.0  0.3131  0.54247  0.41134  1.0000
  C   C100      1.0  0.50289  0.36460999999999993  0.10445  1.0000
  C   C101      1.0  0.37929999999999997  0.8806399999999999  0.13237000000000002  1.0000
  C   C102      1.0  0.47694000000000003  0.70583  0.84436  1.0000
  C   C103      1.0  0.09372999999999994  0.31644  0.80254  1.0000
  C   C104      1.0  0.6207  0.75314  0.50139  1.0000
  C   C105      1.0  0.3354  0.81764  0.22154  1.0000
  C   C106      1.0  0.50664  0.59282  0.6794  1.0000
  C   C107      1.0  0.6793900000000002  0.50664  0.59282  1.0000
  C   C108      1.0  0.13848999999999997  0.29416000000000003  0.77109  1.0000
  O   O1        1.0  0.63606  0.48987  0.62306  1.0000
  O   O2        1.0  0.8091700000000001  0.83354  0.45200000000000007  1.0000
  O   O3        1.0  0.47117000000000003  0.08705999999999997  0.50062  1.0000
  O   O4        1.0  0.6166  0.6259499999999999  0.12429  1.0000
  O   O5        1.0  0.19085000000000002  0.64275  0.02439  1.0000
  O   O6        1.0  0.50777  0.009410000000000007  0.38344  1.0000
  O   O7        1.0  0.4591  0.9875499999999999  0.12458000000000001  1.0000
  O   O8        1.0  0.21701999999999996  0.6612799999999999  0.14589  1.0000
  O   O9        1.0  0.14591999999999994  0.21704  0.66129  1.0000
  O   O10       1.0  0.9870999999999999  0.8537299999999999  0.36398  1.0000
  O   O11       1.0  0.52877  0.029409999999999978  0.61584  1.0000
  O   O12       1.0  0.52837  0.54071  0.66564  1.0000
  O   O13       1.0  0.64276  0.024380000000000006  0.19084  1.0000
  O   O14       1.0  0.07116999999999996  0.8541899999999999  0.51541  1.0000
  O   O15       1.0  0.012889999999999988  0.37690000000000007  0.86662  1.0000
  O   O16       1.0  0.4847000000000001  0.33874  0.55576  1.0000
  O   O17       1.0  0.50166  0.49226  0.87568  1.0000
  O   O18       1.0  0.12427999999999995  0.6165899999999999  0.62594  1.0000
  O   O19       1.0  0.48986999999999997  0.62305  0.63606  1.0000
  O   O20       1.0  0.54797  0.38166  0.35719  1.0000
  O   O21       1.0  0.4994  0.58643  0.9705599999999999  1.0000
  O   O22       1.0  0.024410000000000005  0.19083999999999998  0.64276  1.0000
  O   O23       1.0  0.012479999999999984  0.47158999999999995  0.13708  1.0000
  O   O24       1.0  0.83354  0.45199999999999996  0.80917  1.0000
  O   O25       1.0  0.3739499999999999  0.9905299999999999  0.49818000000000007  1.0000
  O   O26       1.0  0.36398000000000014  0.9871  0.85374  1.0000
  O   O27       1.0  0.97564  0.61845  0.1664  1.0000
  O   O28       1.0  0.12458000000000005  0.4591100000000001  0.9875500000000001  1.0000
  O   O29       1.0  0.55577  0.4847  0.33874  1.0000
  O   O30       1.0  0.35718  0.54794  0.38163  1.0000
  O   O31       1.0  0.85417  0.51538  0.07117000000000001  1.0000
  O   O32       1.0  0.5103100000000002  0.14631  0.1334  1.0000
  O   O33       1.0  0.47159000000000006  0.13709  0.01247  1.0000
  O   O34       1.0  0.38166  0.3572  0.54798  1.0000
  O   O35       1.0  0.6230500000000001  0.63605  0.48984999999999995  1.0000
  O   O36       1.0  0.4982100000000001  0.3739600000000002  0.9905400000000001  1.0000
  O   O37       1.0  0.87534  0.8628499999999999  0.33453  1.0000
  O   O38       1.0  0.45198999999999995  0.80916  0.83356  1.0000
  O   O39       1.0  0.4136399999999999  0.9130099999999999  0.38417  1.0000
  O   O40       1.0  0.37691  0.86662  0.0129  1.0000
  O   O41       1.0  0.54075  0.66564  0.5284  1.0000
  O   O42       1.0  0.33874000000000004  0.55576  0.48469000000000007  1.0000
  O   O43       1.0  0.33454  0.87534  0.86286  1.0000
  O   O44       1.0  0.87567  0.50165  0.49227  1.0000
  O   O45       1.0  0.99055  0.4982  0.37396  1.0000
  O   O46       1.0  0.7829699999999999  0.92883  0.44421  1.0000
  O   O47       1.0  0.50062  0.47117  0.08705  1.0000
  O   O48       1.0  0.51539  0.07115999999999992  0.85418  1.0000
  O   O49       1.0  0.6612799999999999  0.14588  0.21702  1.0000
  O   O50       1.0  0.6184399999999999  0.16642000000000007  0.97565  1.0000
  O   O51       1.0  0.1334  0.5103  0.1463  1.0000
  O   O52       1.0  0.86663  0.012889999999999995  0.3769  1.0000
  O   O53       1.0  0.58644  0.9705499999999999  0.49939  1.0000
  O   O54       1.0  0.02941000000000006  0.6158400000000002  0.5287800000000001  1.0000
  O   O55       1.0  0.38417  0.41364  0.91302  1.0000
  O   O56       1.0  0.8628499999999999  0.3345300000000001  0.87534  1.0000
  O   O57       1.0  0.38342  0.50778  0.00941  1.0000
  O   O58       1.0  0.4441999999999999  0.7829499999999999  0.92884  1.0000
  O   O59       1.0  0.98755  0.12457999999999994  0.45913  1.0000
  O   O60       1.0  0.009410000000000007  0.38343  0.50777  1.0000
  O   O61       1.0  0.9288299999999999  0.44421  0.78297  1.0000
  O   O62       1.0  0.6656199999999999  0.5283699999999999  0.54073  1.0000
  O   O63       1.0  0.62595  0.12426000000000002  0.61659  1.0000
  O   O64       1.0  0.08706  0.50062  0.47117  1.0000
  O   O65       1.0  0.9130199999999999  0.38417  0.41365  1.0000
  O   O66       1.0  0.49227  0.87568  0.50166  1.0000
  O   O67       1.0  0.85373  0.36398  0.9870999999999999  1.0000
  O   O68       1.0  0.13708  0.012479999999999969  0.47158  1.0000
  O   O69       1.0  0.97055  0.49939999999999996  0.58644  1.0000
  O   O70       1.0  0.6158499999999999  0.5287799999999999  0.02941  1.0000
  O   O71       1.0  0.16641999999999996  0.9756599999999999  0.61847  1.0000
  O   O72       1.0  0.14631000000000002  0.13342000000000004  0.5103200000000001  1.0000
