data_image0
_chemical_formula_structural       La4H100C112N8O32
_chemical_formula_sum              "La4 H100 C112 N8 O32"
_cell_length_a       9.1474
_cell_length_b       16.95025
_cell_length_c       31.22553
_cell_angle_alpha    85.21555000000001
_cell_angle_beta     81.67801
_cell_angle_gamma    74.30122

_symmetry_space_group_name_H-M    'P 1'
_symmetry_Int_Tables_number       1

loop_
  _symmetry_equiv_pos_as_xyz
  'x,y,z'

loop_
  _atom_site_type_symbol
  _atom_site_label
  _atom_site_symmetry_multiplicity
  _atom_site_fract_x
  _atom_site_fract_y
  _atom_site_fract_z
  _atom_site_occupancy
  La  La1       1.0  0.36380999999999986  0.12518  0.8789900000000003  1.0000
  La  La2       1.0  0.36884000000000006  0.37471  0.62104  1.0000
  La  La3       1.0  0.6362000000000001  0.87482  0.12101000000000003  1.0000
  La  La4       1.0  0.6311799999999997  0.62529  0.37896  1.0000
  H   H1        1.0  0.63165  0.82356  0.43001  1.0000
  H   H2        1.0  0.08569000000000004  0.9411699999999998  0.67049  1.0000
  H   H3        1.0  0.7046699999999999  0.79014  0.6138300000000002  1.0000
  H   H4        1.0  0.7523599999999999  0.64806  0.66555  1.0000
  H   H5        1.0  0.5826399999999999  0.71097  0.6915700000000002  1.0000
  H   H6        1.0  0.9686899999999998  0.93854  0.7625500000000002  1.0000
  H   H7        1.0  0.14021  0.86271  0.7491100000000003  1.0000
  H   H8        1.0  0.59967  0.99196  0.7285600000000002  1.0000
  H   H9        1.0  0.7785499999999999  0.007429999999999976  0.7342100000000003  1.0000
  H   H10       1.0  0.68056  0.9588399999999999  0.7769600000000002  1.0000
  H   H11       1.0  0.47347999999999996  0.82058  0.70457  1.0000
  H   H12       1.0  0.4949899999999999  0.91882  0.68691  1.0000
  H   H13       1.0  0.48032  0.89059  0.74264  1.0000
  H   H14       1.0  0.027349999999999982  0.60059  0.67758  1.0000
  H   H15       1.0  0.13760000000000003  0.65708  0.6434500000000001  1.0000
  H   H16       1.0  0.9614699999999998  0.65107  0.6294200000000002  1.0000
  H   H17       1.0  0.25272999999999984  0.78663  0.7073000000000002  1.0000
  H   H18       1.0  0.24260999999999988  0.75445  0.65571  1.0000
  H   H19       1.0  0.2407500000000001  0.68627  0.70152  1.0000
  H   H20       1.0  0.1521299999999999  0.99714  0.7766900000000002  1.0000
  H   H21       1.0  0.38638999999999973  0.17642  0.7196300000000002  1.0000
  H   H22       1.0  0.19890999999999992  0.04667999999999997  0.6378100000000002  1.0000
  H   H23       1.0  0.45061  0.59573  0.5145200000000002  1.0000
  H   H24       1.0  0.6412  0.78889  0.54293  1.0000
  H   H25       1.0  0.5385599999999997  0.61451  0.6443200000000002  1.0000
  H   H26       1.0  0.87954  0.67287  0.07018000000000003  1.0000
  H   H27       1.0  0.6985899999999997  0.55855  0.8295600000000002  1.0000
  H   H28       1.0  0.10935999999999985  0.70935  0.8861700000000002  1.0000
  H   H29       1.0  0.06585999999999999  0.85178  0.83453  1.0000
  H   H30       1.0  0.9850700000000001  0.78886  0.80853  1.0000
  H   H31       1.0  0.6693599999999998  0.56142  0.7375200000000002  1.0000
  H   H32       1.0  0.7515799999999999  0.63718  0.75105  1.0000
  H   H33       1.0  0.3201099999999999  0.50806  0.7714  1.0000
  H   H34       1.0  0.5201500000000002  0.49228  0.7659100000000002  1.0000
  H   H35       1.0  0.41629000000000005  0.54116  0.7231100000000003  1.0000
  H   H36       1.0  0.99866  0.67937  0.79534  1.0000
  H   H37       1.0  0.10088999999999987  0.5811  0.8130800000000002  1.0000
  H   H38       1.0  0.11374999999999987  0.60934  0.7573500000000002  1.0000
  H   H39       1.0  0.30535  0.89927  0.82235  1.0000
  H   H40       1.0  0.4384499999999999  0.84288  0.85652  1.0000
  H   H41       1.0  0.2423300000000001  0.8491  0.87059  1.0000
  H   H42       1.0  0.7465299999999998  0.71335  0.7928100000000002  1.0000
  H   H43       1.0  0.6530199999999999  0.74558  0.8443900000000002  1.0000
  H   H44       1.0  0.62793  0.81366  0.7985300000000002  1.0000
  H   H45       1.0  0.9248099999999998  0.50273  0.72323  1.0000
  H   H46       1.0  0.28298  0.32322  0.77997  1.0000
  H   H47       1.0  0.8856700000000002  0.45355999999999996  0.8620700000000002  1.0000
  H   H48       1.0  0.5626299999999999  0.9038099999999999  0.9856600000000002  1.0000
  H   H49       1.0  0.9741999999999997  0.71026  0.9570600000000002  1.0000
  H   H50       1.0  0.7977499999999998  0.8853700000000001  0.85587  1.0000
  H   H51       1.0  0.3683699999999999  0.17643999999999999  0.5699900000000002  1.0000
  H   H52       1.0  0.91432  0.05884  0.3295  1.0000
  H   H53       1.0  0.29533999999999977  0.20986  0.38617  1.0000
  H   H54       1.0  0.24765999999999985  0.35195  0.3344400000000001  1.0000
  H   H55       1.0  0.4173699999999999  0.28902999999999995  0.3084300000000001  1.0000
  H   H56       1.0  0.03131999999999999  0.06146000000000001  0.23744  1.0000
  H   H57       1.0  0.8598000000000001  0.13729  0.25089  1.0000
  H   H58       1.0  0.4003499999999999  0.008040000000000002  0.27143  1.0000
  H   H59       1.0  0.2214700000000001  0.9925699999999998  0.26579000000000014  1.0000
  H   H60       1.0  0.31944999999999996  0.04116  0.22304000000000004  1.0000
  H   H61       1.0  0.5265399999999999  0.17942  0.29543000000000014  1.0000
  H   H62       1.0  0.5050299999999999  0.08117999999999999  0.31308  1.0000
  H   H63       1.0  0.5196999999999999  0.10941  0.2573600000000001  1.0000
  H   H64       1.0  0.97266  0.39941  0.3224200000000001  1.0000
  H   H65       1.0  0.8624099999999998  0.34292  0.35654000000000013  1.0000
  H   H66       1.0  0.03854  0.34893  0.37058  1.0000
  H   H67       1.0  0.7472899999999999  0.21337  0.2927000000000001  1.0000
  H   H68       1.0  0.7574  0.24555999999999992  0.3442900000000001  1.0000
  H   H69       1.0  0.7592699999999994  0.31373  0.2984700000000001  1.0000
  H   H70       1.0  0.8478899999999999  0.0028700000000000006  0.2233  1.0000
  H   H71       1.0  0.61363  0.82358  0.28037  1.0000
  H   H72       1.0  0.8010999999999999  0.9533300000000001  0.36219  1.0000
  H   H73       1.0  0.5494000000000001  0.40427  0.48548  1.0000
  H   H74       1.0  0.3588100000000001  0.21110999999999996  0.4570700000000001  1.0000
  H   H75       1.0  0.4614599999999999  0.38549  0.3556800000000001  1.0000
  H   H76       1.0  0.12046999999999988  0.32713  0.9298200000000002  1.0000
  H   H77       1.0  0.30143000000000003  0.44145  0.17043000000000005  1.0000
  H   H78       1.0  0.8906599999999999  0.29065  0.11383000000000003  1.0000
  H   H79       1.0  0.9341599999999998  0.14822  0.16547000000000006  1.0000
  H   H80       1.0  0.014950000000000008  0.21114  0.19147  1.0000
  H   H81       1.0  0.33065  0.43858  0.26248  1.0000
  H   H82       1.0  0.2484399999999998  0.36282  0.24895000000000006  1.0000
  H   H83       1.0  0.67991  0.49194  0.2286  1.0000
  H   H84       1.0  0.47985999999999984  0.50772  0.23409000000000005  1.0000
  H   H85       1.0  0.5837199999999999  0.45884  0.27689  1.0000
  H   H86       1.0  0.001359999999999974  0.32064  0.20466000000000006  1.0000
  H   H87       1.0  0.8991199999999999  0.4189  0.18691  1.0000
  H   H88       1.0  0.88626  0.39067  0.24265  1.0000
  H   H89       1.0  0.69466  0.10073  0.17765  1.0000
  H   H90       1.0  0.56157  0.15712  0.14347  1.0000
  H   H91       1.0  0.7576800000000001  0.1509  0.1294  1.0000
  H   H92       1.0  0.2534799999999999  0.28665  0.20719000000000007  1.0000
  H   H93       1.0  0.34700000000000003  0.25442  0.15561000000000005  1.0000
  H   H94       1.0  0.3720800000000001  0.18634  0.20147  1.0000
  H   H95       1.0  0.07520000000000002  0.49727000000000005  0.27677  1.0000
  H   H96       1.0  0.71703  0.67678  0.22003  1.0000
  H   H97       1.0  0.11434999999999994  0.54644  0.13793  1.0000
  H   H98       1.0  0.43739  0.09619  0.014330000000000004  1.0000
  H   H99       1.0  0.02581  0.28974  0.04293000000000002  1.0000
  H   H100      1.0  0.20226  0.11464000000000002  0.14413000000000006  1.0000
  C   C1        1.0  0.68628  0.71233  0.6690700000000002  1.0000
  C   C2        1.0  0.7780999999999997  0.76078  0.6870800000000002  1.0000
  C   C3        1.0  0.7013599999999999  0.8353  0.7067800000000002  1.0000
  C   C4        1.0  0.7877  0.88176  0.7222400000000002  1.0000
  C   C5        1.0  0.94854  0.85185  0.71879  1.0000
  C   C6        1.0  0.025799999999999976  0.77906  0.69752  1.0000
  C   C7        1.0  0.9393999999999998  0.7335699999999999  0.6811100000000002  1.0000
  C   C8        1.0  0.03895999999999986  0.90242  0.7357600000000002  1.0000
  C   C9        1.0  0.7080999999999998  0.9637700000000001  0.7414400000000002  1.0000
  C   C10       1.0  0.52927  0.86737  0.71049  1.0000
  C   C11       1.0  0.020129999999999936  0.657  0.6567700000000002  1.0000
  C   C12       1.0  0.19866999999999999  0.75051  0.69034  1.0000
  C   C13       1.0  0.16408999999999985  0.013239999999999981  0.7064400000000002  1.0000
  C   C14       1.0  0.19232999999999986  0.029049999999999986  0.7476500000000003  1.0000
  C   C15       1.0  0.2742799999999999  0.08623999999999998  0.7519400000000003  1.0000
  C   C16       1.0  0.32551999999999987  0.13100999999999996  0.7159500000000002  1.0000
  C   C17       1.0  0.2954899999999998  0.11627999999999997  0.6750100000000002  1.0000
  C   C18       1.0  0.21868999999999988  0.05719999999999999  0.6701200000000003  1.0000
  C   C19       1.0  0.3087699999999998  0.09888999999999999  0.7955800000000002  1.0000
  C   C20       1.0  0.4349499999999999  0.52592  0.59607  1.0000
  C   C21       1.0  0.48731000000000013  0.60027  0.5810300000000003  1.0000
  C   C22       1.0  0.48919999999999997  0.62787  0.53752  1.0000
  C   C23       1.0  0.5470899999999997  0.69592  0.52422  1.0000
  C   C24       1.0  0.5968799999999997  0.73634  0.5543  1.0000
  C   C25       1.0  0.59399  0.70903  0.59818  1.0000
  C   C26       1.0  0.5403899999999998  0.63932  0.6111100000000003  1.0000
  C   C27       1.0  0.56486  0.72509  0.4776700000000001  1.0000
  C   C28       1.0  0.34168  0.16526999999999997  0.6363  1.0000
  C   C29       1.0  0.06778000000000002  0.78751  0.83103  1.0000
  C   C30       1.0  0.22595999999999994  0.73906  0.81304  1.0000
  C   C31       1.0  0.24344999999999994  0.6645399999999999  0.7933500000000002  1.0000
  C   C32       1.0  0.39168  0.61806  0.77791  1.0000
  C   C33       1.0  0.5190999999999997  0.64799  0.7813500000000002  1.0000
  C   C34       1.0  0.50231  0.72078  0.80261  1.0000
  C   C35       1.0  0.35406  0.76629  0.8190000000000002  1.0000
  C   C36       1.0  0.6769299999999997  0.59746  0.7643400000000002  1.0000
  C   C37       1.0  0.41327999999999965  0.53611  0.75864  1.0000
  C   C38       1.0  0.10723  0.63253  0.78953  1.0000
  C   C39       1.0  0.33398  0.84297  0.84324  1.0000
  C   C40       1.0  0.6393899999999999  0.74942  0.8097600000000003  1.0000
  C   C41       1.0  0.8841899999999999  0.4865  0.79343  1.0000
  C   C42       1.0  0.9686799999999998  0.47064  0.7521800000000002  1.0000
  C   C43       1.0  0.11227999999999999  0.41346  0.74778  1.0000
  C   C44       1.0  0.1730399999999999  0.36871  0.7837500000000002  1.0000
  C   C45       1.0  0.08841999999999985  0.38388  0.8247600000000003  1.0000
  C   C46       1.0  0.9474499999999998  0.44282999999999995  0.8297200000000002  1.0000
  C   C47       1.0  0.20314000000000004  0.40122  0.70416  1.0000
  C   C48       1.0  0.5575399999999999  0.97396  0.9040700000000003  1.0000
  C   C49       1.0  0.6696499999999999  0.89957  0.9191400000000002  1.0000
  C   C50       1.0  0.6562899999999997  0.87183  0.9626500000000002  1.0000
  C   C51       1.0  0.7688799999999999  0.80347  0.97585  1.0000
  C   C52       1.0  0.88877  0.76304  0.9457600000000003  1.0000
  C   C53       1.0  0.9021599999999996  0.79069  0.9019200000000003  1.0000
  C   C54       1.0  0.79157  0.86052  0.88907  1.0000
  C   C55       1.0  0.7687200000000001  0.77371  0.02235  1.0000
  C   C56       1.0  0.1467499999999999  0.336  0.8635800000000002  1.0000
  C   C57       1.0  0.3137299999999998  0.28767  0.3309300000000001  1.0000
  C   C58       1.0  0.22192000000000003  0.23922000000000002  0.31292  1.0000
  C   C59       1.0  0.2986599999999999  0.1647  0.2932200000000001  1.0000
  C   C60       1.0  0.21230999999999992  0.11824  0.2777600000000001  1.0000
  C   C61       1.0  0.05147000000000003  0.14815  0.2812  1.0000
  C   C62       1.0  0.97421  0.22094  0.30247  1.0000
  C   C63       1.0  0.060610000000000004  0.26643  0.31888  1.0000
  C   C64       1.0  0.96105  0.09759  0.26423  1.0000
  C   C65       1.0  0.29191999999999996  0.03622999999999999  0.2585600000000001  1.0000
  C   C66       1.0  0.47074  0.13263  0.28951  1.0000
  C   C67       1.0  0.9798899999999999  0.343  0.34323  1.0000
  C   C68       1.0  0.8013499999999999  0.24949000000000002  0.30966  1.0000
  C   C69       1.0  0.8359299999999996  0.9867600000000001  0.29356  1.0000
  C   C70       1.0  0.8076900000000001  0.9709499999999999  0.25235  1.0000
  C   C71       1.0  0.72573  0.91377  0.24806000000000006  1.0000
  C   C72       1.0  0.6744899999999994  0.86899  0.28404  1.0000
  C   C73       1.0  0.7045300000000001  0.88372  0.32499  1.0000
  C   C74       1.0  0.78133  0.9428  0.32988000000000006  1.0000
  C   C75       1.0  0.69125  0.90111  0.20441  1.0000
  C   C76       1.0  0.5650699999999997  0.47408  0.40392  1.0000
  C   C77       1.0  0.51271  0.39973  0.41896  1.0000
  C   C78       1.0  0.5108099999999999  0.37213  0.4624800000000001  1.0000
  C   C79       1.0  0.45291999999999993  0.30408  0.47577000000000014  1.0000
  C   C80       1.0  0.40313000000000004  0.26366  0.44569000000000003  1.0000
  C   C81       1.0  0.40603  0.29097  0.40181  1.0000
  C   C82       1.0  0.45961999999999986  0.36068  0.3888900000000001  1.0000
  C   C83       1.0  0.43516  0.27491  0.52233  1.0000
  C   C84       1.0  0.6583299999999999  0.83473  0.36370000000000013  1.0000
  C   C85       1.0  0.93224  0.21249  0.16896000000000005  1.0000
  C   C86       1.0  0.77405  0.26094  0.18695  1.0000
  C   C87       1.0  0.75656  0.33546  0.20665000000000006  1.0000
  C   C88       1.0  0.6083299999999999  0.38194  0.22209000000000007  1.0000
  C   C89       1.0  0.4809199999999999  0.35202  0.21865  1.0000
  C   C90       1.0  0.4976999999999999  0.27922  0.19739000000000007  1.0000
  C   C91       1.0  0.6459499999999999  0.23371  0.181  1.0000
  C   C92       1.0  0.32309  0.40254  0.23565  1.0000
  C   C93       1.0  0.58674  0.46389  0.24135000000000006  1.0000
  C   C94       1.0  0.89279  0.36747  0.21047000000000005  1.0000
  C   C95       1.0  0.66603  0.15703  0.15675000000000006  1.0000
  C   C96       1.0  0.36062  0.25058  0.19024000000000005  1.0000
  C   C97       1.0  0.11582  0.5135  0.20656000000000005  1.0000
  C   C98       1.0  0.03133999999999995  0.52936  0.24781  1.0000
  C   C99       1.0  0.88774  0.58654  0.25222  1.0000
  C   C100      1.0  0.8269799999999999  0.63129  0.21625  1.0000
  C   C101      1.0  0.91159  0.61613  0.17524  1.0000
  C   C102      1.0  0.05255999999999994  0.5571700000000002  0.17028  1.0000
  C   C103      1.0  0.79688  0.59878  0.29584  1.0000
  C   C104      1.0  0.44247999999999993  0.02604  0.09593000000000003  1.0000
  C   C105      1.0  0.3303699999999999  0.10043  0.08085  1.0000
  C   C106      1.0  0.34372  0.12817  0.03735  1.0000
  C   C107      1.0  0.23112999999999997  0.19653  0.02415000000000001  1.0000
  C   C108      1.0  0.11124  0.23697  0.05424000000000001  1.0000
  C   C109      1.0  0.09785  0.20931  0.09807000000000003  1.0000
  C   C110      1.0  0.20845  0.13949  0.11093000000000003  1.0000
  C   C111      1.0  0.23128999999999986  0.22628999999999996  0.9776500000000002  1.0000
  C   C112      1.0  0.85326  0.664  0.13642  1.0000
  N   N1        1.0  0.08258999999999983  0.95809  0.7010800000000003  1.0000
  N   N2        1.0  0.64358  0.75031  0.62721  1.0000
  N   N3        1.0  0.7421099999999998  0.5416399999999999  0.79895  1.0000
  N   N4        1.0  0.021800000000000014  0.7495199999999999  0.8728700000000003  1.0000
  N   N5        1.0  0.91743  0.04191  0.29892  1.0000
  N   N6        1.0  0.35644000000000003  0.24969  0.37278  1.0000
  N   N7        1.0  0.25790999999999986  0.45837  0.20105  1.0000
  N   N8        1.0  0.9782099999999999  0.25048  0.12712  1.0000
  O   O1        1.0  0.22941999999999996  0.07554  0.8298400000000001  1.0000
  O   O2        1.0  0.4164199999999999  0.13211  0.7986900000000002  1.0000
  O   O3        1.0  0.4886900000000001  0.48302  0.62943  1.0000
  O   O4        1.0  0.34067999999999987  0.50399  0.5759800000000003  1.0000
  O   O5        1.0  0.5405200000000001  0.68229  0.4485600000000001  1.0000
  O   O6        1.0  0.6078699999999999  0.79073  0.4695200000000001  1.0000
  O   O7        1.0  0.3781099999999999  0.23083  0.6406800000000002  1.0000
  O   O8        1.0  0.33942  0.13732  0.59912  1.0000
  O   O9        1.0  0.1345  0.4243  0.66982  1.0000
  O   O10       1.0  0.3475599999999999  0.36876999999999993  0.7012600000000002  1.0000
  O   O11       1.0  0.6004499999999997  0.016509999999999993  0.8704900000000002  1.0000
  O   O12       1.0  0.4216799999999999  0.99625  0.9242900000000002  1.0000
  O   O13       1.0  0.6750399999999999  0.81776  0.051440000000000013  1.0000
  O   O14       1.0  0.8654599999999999  0.70639  0.0304  1.0000
  O   O15       1.0  0.25202999999999987  0.26988  0.8593800000000003  1.0000
  O   O16       1.0  0.08195999999999996  0.36567999999999995  0.9006000000000002  1.0000
  O   O17       1.0  0.7705899999999999  0.92446  0.17015000000000005  1.0000
  O   O18       1.0  0.5836000000000001  0.86789  0.20131000000000004  1.0000
  O   O19       1.0  0.5113299999999998  0.5169800000000001  0.37057  1.0000
  O   O20       1.0  0.65934  0.49601  0.42401  1.0000
  O   O21       1.0  0.45949  0.31771  0.55143  1.0000
  O   O22       1.0  0.3921499999999999  0.20928  0.53047  1.0000
  O   O23       1.0  0.6218999999999999  0.76917  0.35931000000000013  1.0000
  O   O24       1.0  0.6605900000000001  0.86268  0.4008700000000001  1.0000
  O   O25       1.0  0.8655099999999999  0.5757  0.3301800000000001  1.0000
  O   O26       1.0  0.65245  0.63123  0.29874000000000006  1.0000
  O   O27       1.0  0.39955999999999997  0.98349  0.12951000000000004  1.0000
  O   O28       1.0  0.57833  0.0037599999999999995  0.07571  1.0000
  O   O29       1.0  0.32497999999999994  0.18224  0.9485600000000002  1.0000
  O   O30       1.0  0.1345499999999999  0.29361  0.9696000000000002  1.0000
  O   O31       1.0  0.7479899999999999  0.73012  0.14062000000000005  1.0000
  O   O32       1.0  0.9180600000000001  0.63432  0.09939000000000003  1.0000
