data_image0
_chemical_formula_structural       Zn8H124C212O32
_chemical_formula_sum              "Zn8 H124 C212 O32"
_cell_length_a       7.05241
_cell_length_b       28.505320000000005
_cell_length_c       31.575400000000002
_cell_angle_alpha    89.92991
_cell_angle_beta     90.01291
_cell_angle_gamma    90.13267999999998

_symmetry_space_group_name_H-M    'P 1'
_symmetry_Int_Tables_number       1

loop_
  _symmetry_equiv_pos_as_xyz
  'x,y,z'

loop_
  _atom_site_type_symbol
  _atom_site_label
  _atom_site_symmetry_multiplicity
  _atom_site_fract_x
  _atom_site_fract_y
  _atom_site_fract_z
  _atom_site_occupancy
  Zn  Zn1       1.0  0.97503  0.03195  0.75908  1.0000
  Zn  Zn2       1.0  0.73703  0.46754  0.72236  1.0000
  Zn  Zn3       1.0  0.97551  0.96798  0.24127000000000007  1.0000
  Zn  Zn4       1.0  0.73802  0.53234  0.27773  1.0000
  Zn  Zn5       1.0  0.0321  0.4679200000000001  0.2593000000000001  1.0000
  Zn  Zn6       1.0  0.26358  0.03429  0.22202  1.0000
  Zn  Zn7       1.0  0.02461  0.5333  0.7408  1.0000
  Zn  Zn8       1.0  0.26317  0.9663200000000002  0.77809  1.0000
  H   H1        1.0  0.44532  0.02611  0.3197100000000001  1.0000
  H   H2        1.0  0.9526  0.10554  0.35623  1.0000
  H   H3        1.0  0.14829  0.15067000000000003  0.40722  1.0000
  H   H4        1.0  0.64209  0.07138  0.36947  1.0000
  H   H5        1.0  0.20269  0.18041  0.4825100000000001  1.0000
  H   H6        1.0  0.40481  0.13365  0.52886  1.0000
  H   H7        1.0  0.0805  0.17981  0.63662  1.0000
  H   H8        1.0  0.8713900000000001  0.22415  0.58971  1.0000
  H   H9        1.0  0.64093  0.13987  0.5784700000000002  1.0000
  H   H10       1.0  0.8593100000000001  0.10527  0.63119  1.0000
  H   H11       1.0  0.3884  0.07531  0.71345  1.0000
  H   H12       1.0  0.16744000000000006  0.10896  0.66102  1.0000
  H   H13       1.0  0.8547500000000001  0.24918  0.41308  1.0000
  H   H14       1.0  0.0523  0.29972  0.36786000000000013  1.0000
  H   H15       1.0  0.41208  0.33096  0.47439000000000003  1.0000
  H   H16       1.0  0.21689  0.27967  0.51913  1.0000
  H   H17       1.0  0.91805  0.13518  0.48482  1.0000
  H   H18       1.0  0.7177200000000001  0.08696  0.4386600000000001  1.0000
  H   H19       1.0  0.36779  0.20728  0.41203  1.0000
  H   H20       1.0  0.56283  0.2543  0.4595800000000001  1.0000
  H   H21       1.0  0.90671  0.33161  0.51165  1.0000
  H   H22       1.0  0.69919  0.38128  0.55445  1.0000
  H   H23       1.0  0.3754  0.2592  0.59126  1.0000
  H   H24       1.0  0.57422  0.21098  0.5461200000000003  1.0000
  H   H25       1.0  0.94344  0.3560900000000001  0.64304  1.0000
  H   H26       1.0  0.14991  0.3087  0.59674  1.0000
  H   H27       1.0  0.60623  0.40774  0.6156700000000003  1.0000
  H   H28       1.0  0.39105  0.45726  0.65912  1.0000
  H   H29       1.0  0.31049  0.44443  0.32374  1.0000
  H   H30       1.0  0.11747  0.38989  0.36799  1.0000
  H   H31       1.0  0.62958  0.31995  0.40724  1.0000
  H   H32       1.0  0.81892  0.37168  0.3597500000000001  1.0000
  H   H33       1.0  0.44177  0.9739  0.6815  1.0000
  H   H34       1.0  0.9517400000000001  0.89359  0.64358  1.0000
  H   H35       1.0  0.15011  0.84927  0.59277  1.0000
  H   H36       1.0  0.6413300000000001  0.92925  0.63205  1.0000
  H   H37       1.0  0.20407  0.82075  0.51844  1.0000
  H   H38       1.0  0.4065  0.86735  0.4717800000000001  1.0000
  H   H39       1.0  0.08098999999999999  0.82034  0.3643300000000001  1.0000
  H   H40       1.0  0.8716  0.7762  0.41154  1.0000
  H   H41       1.0  0.64223  0.86033  0.4221000000000001  1.0000
  H   H42       1.0  0.8610700000000001  0.89422  0.36890000000000006  1.0000
  H   H43       1.0  0.3898  0.92376  0.2867300000000001  1.0000
  H   H44       1.0  0.16831  0.8910800000000002  0.33969  1.0000
  H   H45       1.0  0.8564  0.75105  0.58799  1.0000
  H   H46       1.0  0.05333  0.70003  0.63279  1.0000
  H   H47       1.0  0.41237  0.67  0.52599  1.0000
  H   H48       1.0  0.21786  0.72176  0.48170000000000013  1.0000
  H   H49       1.0  0.9197400000000002  0.8656400000000002  0.5161300000000001  1.0000
  H   H50       1.0  0.7195  0.9138  0.56221  1.0000
  H   H51       1.0  0.37007  0.79308  0.5891800000000003  1.0000
  H   H52       1.0  0.5654  0.74615  0.54179  1.0000
  H   H53       1.0  0.90905  0.66932  0.4897200000000001  1.0000
  H   H54       1.0  0.70222  0.61919  0.4469300000000001  1.0000
  H   H55       1.0  0.37670000000000003  0.74061  0.41001  1.0000
  H   H56       1.0  0.5748100000000002  0.7893  0.4552500000000001  1.0000
  H   H57       1.0  0.94655  0.6422  0.3585100000000001  1.0000
  H   H58       1.0  0.15132  0.69011  0.4049600000000001  1.0000
  H   H59       1.0  0.61224  0.59314  0.38522  1.0000
  H   H60       1.0  0.39901  0.54305  0.34158  1.0000
  H   H61       1.0  0.30989  0.55485  0.67561  1.0000
  H   H62       1.0  0.11711000000000002  0.60936  0.63134  1.0000
  H   H63       1.0  0.62919  0.68061  0.59319  1.0000
  H   H64       1.0  0.81818  0.62906  0.6407400000000002  1.0000
  H   H65       1.0  0.56126  0.47487  0.8191300000000002  1.0000
  H   H66       1.0  0.04961  0.3943  0.8567100000000002  1.0000
  H   H67       1.0  0.85046  0.34961  0.90745  1.0000
  H   H68       1.0  0.36063  0.42978  0.8684100000000002  1.0000
  H   H69       1.0  0.79543  0.32102  0.98174  1.0000
  H   H70       1.0  0.5941300000000002  0.36724  0.028630000000000006  1.0000
  H   H71       1.0  0.91949  0.31965  0.13581  1.0000
  H   H72       1.0  0.12813  0.27594  0.08846  1.0000
  H   H73       1.0  0.35847  0.36005  0.07815  1.0000
  H   H74       1.0  0.13983  0.39349  0.13144  1.0000
  H   H75       1.0  0.61072  0.42171  0.21410000000000007  1.0000
  H   H76       1.0  0.83221  0.3897  0.161  1.0000
  H   H77       1.0  0.14365  0.25128  0.912  1.0000
  H   H78       1.0  0.9469400000000001  0.20029  0.8671100000000003  1.0000
  H   H79       1.0  0.58599  0.16983000000000004  0.9736400000000002  1.0000
  H   H80       1.0  0.78034  0.22158000000000003  0.018060000000000007  1.0000
  H   H81       1.0  0.08023000000000005  0.36569  0.9836500000000002  1.0000
  H   H82       1.0  0.28184  0.41398  0.9376700000000002  1.0000
  H   H83       1.0  0.63023  0.29347  0.91105  1.0000
  H   H84       1.0  0.43382  0.24636  0.95836  1.0000
  H   H85       1.0  0.09107000000000001  0.16921  0.010330000000000004  1.0000
  H   H86       1.0  0.29796  0.11936  0.05325  1.0000
  H   H87       1.0  0.62231  0.24129  0.09011000000000002  1.0000
  H   H88       1.0  0.42431  0.28962  0.044760000000000015  1.0000
  H   H89       1.0  0.05123  0.144  0.14297  1.0000
  H   H90       1.0  0.84697  0.19154  0.09631  1.0000
  H   H91       1.0  0.38868  0.09297  0.11480000000000003  1.0000
  H   H92       1.0  0.60188  0.0431  0.1585  1.0000
  H   H93       1.0  0.6889600000000001  0.05608  0.8230000000000002  1.0000
  H   H94       1.0  0.88221  0.11064  0.8671300000000002  1.0000
  H   H95       1.0  0.36964  0.17983000000000002  0.90705  1.0000
  H   H96       1.0  0.17992000000000002  0.12808  0.8598600000000002  1.0000
  H   H97       1.0  0.55713  0.5278  0.18288  1.0000
  H   H98       1.0  0.05247  0.6038000000000001  0.14132000000000006  1.0000
  H   H99       1.0  0.85504  0.64799  0.09014  1.0000
  H   H100      1.0  0.35817  0.57322  0.13410000000000002  1.0000
  H   H101      1.0  0.3588200000000001  0.6329  0.9247  1.0000
  H   H102      1.0  0.1387  0.60297  0.8694300000000003  1.0000
  H   H103      1.0  0.6096  0.58145  0.7849400000000002  1.0000
  H   H104      1.0  0.83046  0.61348  0.8393  1.0000
  H   H105      1.0  0.14328  0.74981  0.08875000000000002  1.0000
  H   H106      1.0  0.94489  0.8007700000000001  0.13371  1.0000
  H   H107      1.0  0.58995  0.83212  0.02644000000000001  1.0000
  H   H108      1.0  0.78668  0.78105  0.9817900000000003  1.0000
  H   H109      1.0  0.05731  0.63943  0.024190000000000007  1.0000
  H   H110      1.0  0.2592  0.58998  0.06926  1.0000
  H   H111      1.0  0.65621  0.7045  0.08216000000000002  1.0000
  H   H112      1.0  0.45737  0.75254  0.03620000000000002  1.0000
  H   H113      1.0  0.12454  0.83228  0.99748  1.0000
  H   H114      1.0  0.33097  0.88117  0.9527600000000003  1.0000
  H   H115      1.0  0.5805700000000001  0.7565  0.8995200000000001  1.0000
  H   H116      1.0  0.38131  0.70828  0.9457100000000003  1.0000
  H   H117      1.0  0.04955  0.85367  0.8558900000000003  1.0000
  H   H118      1.0  0.83778  0.80496  0.90043  1.0000
  H   H119      1.0  0.39298  0.9074200000000001  0.8859300000000002  1.0000
  H   H120      1.0  0.6115700000000001  0.95767  0.84343  1.0000
  H   H121      1.0  0.68886  0.94613  0.17602  1.0000
  H   H122      1.0  0.88264  0.89115  0.13257  1.0000
  H   H123      1.0  0.37066000000000004  0.82083  0.09300000000000003  1.0000
  H   H124      1.0  0.18025000000000002  0.8729  0.13979000000000005  1.0000
  C   C1        1.0  0.38101  0.05356000000000001  0.33878  1.0000
  C   C2        1.0  0.18629  0.06328  0.3345300000000001  1.0000
  C   C3        1.0  0.10362  0.09838  0.3595600000000001  1.0000
  C   C4        1.0  0.21418  0.12373000000000003  0.38786000000000004  1.0000
  C   C5        1.0  0.41015  0.11471000000000003  0.3920400000000001  1.0000
  C   C6        1.0  0.49087000000000003  0.07884  0.3673800000000001  1.0000
  C   C7        1.0  0.06564  0.03763  0.30394  1.0000
  C   C8        1.0  0.01658  0.20526  0.5319100000000002  1.0000
  C   C9        1.0  0.17125000000000004  0.17955000000000004  0.5161500000000002  1.0000
  C   C10       1.0  0.2884  0.15343  0.54269  1.0000
  C   C11       1.0  0.25888  0.15274  0.5867700000000002  1.0000
  C   C12       1.0  0.10495  0.17862  0.6026  1.0000
  C   C13       1.0  0.98665  0.20428  0.5757600000000003  1.0000
  C   C14       1.0  0.38812  0.12837  0.61627  1.0000
  C   C15       1.0  0.5841700000000001  0.12572  0.60784  1.0000
  C   C16       1.0  0.7076000000000001  0.1066  0.63746  1.0000
  C   C17       1.0  0.63863  0.08947  0.6761900000000002  1.0000
  C   C18       1.0  0.44229  0.08995000000000002  0.68402  1.0000
  C   C19       1.0  0.31898  0.10931  0.6544100000000003  1.0000
  C   C20       1.0  0.7744800000000001  0.07144  0.70791  1.0000
  C   C21       1.0  0.01688  0.26127  0.4701500000000001  1.0000
  C   C22       1.0  0.97499  0.26732  0.42707  1.0000
  C   C23       1.0  0.08682  0.29608  0.40132  1.0000
  C   C24       1.0  0.24602  0.31956  0.41765  1.0000
  C   C25       1.0  0.29058  0.31292  0.46059  1.0000
  C   C26       1.0  0.17827000000000004  0.28418  0.48612  1.0000
  C   C27       1.0  0.88883  0.23296  0.50084  1.0000
  C   C28       1.0  0.76034  0.19929  0.4750900000000001  1.0000
  C   C29       1.0  0.79902  0.15159  0.4687900000000001  1.0000
  C   C30       1.0  0.68535  0.12407  0.44229  1.0000
  C   C31       1.0  0.52794  0.14312000000000005  0.4210100000000001  1.0000
  C   C32       1.0  0.48706  0.19077  0.42803000000000013  1.0000
  C   C33       1.0  0.5999  0.21780000000000002  0.4547  1.0000
  C   C34       1.0  0.6844400000000002  0.4443500000000001  0.31188  1.0000
  C   C35       1.0  0.75991  0.26688  0.5259600000000002  1.0000
  C   C36       1.0  0.79092  0.31531  0.52899  1.0000
  C   C37       1.0  0.67336  0.34363  0.55381  1.0000
  C   C38       1.0  0.52046  0.32466  0.57684  1.0000
  C   C39       1.0  0.48973000000000005  0.27595  0.57366  1.0000
  C   C40       1.0  0.60514  0.24818  0.5483900000000002  1.0000
  C   C41       1.0  0.08829  0.3673  0.6367000000000003  1.0000
  C   C42       1.0  0.20586  0.34058  0.6109800000000002  1.0000
  C   C43       1.0  0.39494  0.35431  0.6029500000000002  1.0000
  C   C44       1.0  0.46016  0.39673  0.62072  1.0000
  C   C45       1.0  0.34213  0.42415  0.64581  1.0000
  C   C46       1.0  0.15536  0.40937  0.6543500000000002  1.0000
  C   C47       1.0  0.03156  0.4381  0.68173  1.0000
  C   C48       1.0  0.37728  0.41621  0.34133  1.0000
  C   C49       1.0  0.27109  0.38588  0.36627  1.0000
  C   C50       1.0  0.36051  0.35093000000000013  0.39038  1.0000
  C   C51       1.0  0.55941  0.34672  0.3883600000000001  1.0000
  C   C52       1.0  0.66553  0.3757  0.3619300000000001  1.0000
  C   C53       1.0  0.57546  0.411  0.33852  1.0000
  C   C54       1.0  0.37848000000000004  0.94643  0.66218  1.0000
  C   C55       1.0  0.18363000000000002  0.9363100000000001  0.66593  1.0000
  C   C56       1.0  0.10273  0.90113  0.64059  1.0000
  C   C57       1.0  0.21485  0.8762  0.61242  1.0000
  C   C58       1.0  0.41085  0.88564  0.60872  1.0000
  C   C59       1.0  0.49007000000000006  0.9215100000000002  0.6337200000000002  1.0000
  C   C60       1.0  0.06053  0.96145  0.6963100000000002  1.0000
  C   C61       1.0  0.01759  0.79553  0.4691600000000001  1.0000
  C   C62       1.0  0.17254000000000005  0.8214  0.4848  1.0000
  C   C63       1.0  0.28981  0.8474  0.4581000000000001  1.0000
  C   C64       1.0  0.2599  0.84775  0.41404000000000013  1.0000
  C   C65       1.0  0.10558  0.82175  0.39834000000000014  1.0000
  C   C66       1.0  0.9872  0.79622  0.42533  1.0000
  C   C67       1.0  0.38936  0.87179  0.38435  1.0000
  C   C68       1.0  0.58562  0.87426  0.39264  1.0000
  C   C69       1.0  0.70919  0.89292  0.36276  1.0000
  C   C70       1.0  0.63997  0.9096600000000001  0.32395  1.0000
  C   C71       1.0  0.44349  0.90934  0.31625  1.0000
  C   C72       1.0  0.32  0.89053  0.34614  1.0000
  C   C73       1.0  0.77519  0.92754  0.2920100000000001  1.0000
  C   C74       1.0  0.01844  0.73957  0.5308600000000002  1.0000
  C   C75       1.0  0.97639  0.73308  0.57387  1.0000
  C   C76       1.0  0.08771000000000002  0.70403  0.59936  1.0000
  C   C77       1.0  0.2462  0.6807  0.58277  1.0000
  C   C78       1.0  0.29118  0.68787  0.53993  1.0000
  C   C79       1.0  0.17945000000000003  0.7169  0.51469  1.0000
  C   C80       1.0  0.8902300000000001  0.76785  0.5003300000000002  1.0000
  C   C81       1.0  0.7622800000000001  0.8014200000000001  0.5261  1.0000
  C   C82       1.0  0.8007900000000002  0.84919  0.53224  1.0000
  C   C83       1.0  0.68711  0.87665  0.55867  1.0000
  C   C84       1.0  0.52976  0.8574300000000001  0.57995  1.0000
  C   C85       1.0  0.48921000000000003  0.80969  0.57311  1.0000
  C   C86       1.0  0.60214  0.78273  0.5465600000000003  1.0000
  C   C87       1.0  0.68349  0.55632  0.68825  1.0000
  C   C88       1.0  0.76124  0.73372  0.4753400000000001  1.0000
  C   C89       1.0  0.79298  0.68536  0.47236  1.0000
  C   C90       1.0  0.67589  0.65679  0.44757  1.0000
  C   C91       1.0  0.52284  0.6754900000000001  0.42453000000000013  1.0000
  C   C92       1.0  0.49118  0.72412  0.42768  1.0000
  C   C93       1.0  0.6060900000000001  0.75215  0.45297  1.0000
  C   C94       1.0  0.09194000000000001  0.63152  0.36474  1.0000
  C   C95       1.0  0.20861  0.65858  0.3904900000000001  1.0000
  C   C96       1.0  0.3984  0.64555  0.39831  1.0000
  C   C97       1.0  0.4655  0.60354  0.3802700000000001  1.0000
  C   C98       1.0  0.34836000000000006  0.57582  0.3551  1.0000
  C   C99       1.0  0.1606  0.5898400000000003  0.34681  1.0000
  C   C100      1.0  0.03761  0.56089  0.3192100000000001  1.0000
  C   C101      1.0  0.37644000000000005  0.58334  0.65823  1.0000
  C   C102      1.0  0.27054  0.61366  0.63333  1.0000
  C   C103      1.0  0.36023  0.64904  0.6096800000000002  1.0000
  C   C104      1.0  0.559  0.6536000000000002  0.61185  1.0000
  C   C105      1.0  0.6649  0.62472  0.63826  1.0000
  C   C106      1.0  0.5743300000000001  0.58912  0.6613300000000002  1.0000
  C   C107      1.0  0.62382  0.44719  0.8383  1.0000
  C   C108      1.0  0.81829  0.43697  0.83442  1.0000
  C   C109      1.0  0.8987000000000003  0.40173  0.85972  1.0000
  C   C110      1.0  0.7862700000000002  0.37668  0.88789  1.0000
  C   C111      1.0  0.59044  0.38608000000000003  0.8915500000000002  1.0000
  C   C112      1.0  0.51181  0.42214  0.8667  1.0000
  C   C113      1.0  0.94156  0.46189  0.8038200000000002  1.0000
  C   C114      1.0  0.98194  0.29544  0.030880000000000008  1.0000
  C   C115      1.0  0.82737  0.32142  0.015370000000000003  1.0000
  C   C116      1.0  0.71063  0.34722  0.04219000000000001  1.0000
  C   C117      1.0  0.74047  0.34724999999999995  0.08625000000000002  1.0000
  C   C118      1.0  0.89471  0.32125  0.10181  1.0000
  C   C119      1.0  0.01262  0.29594  0.07472  1.0000
  C   C120      1.0  0.6112  0.37095  0.11608  1.0000
  C   C121      1.0  0.41503  0.37356  0.10775  1.0000
  C   C122      1.0  0.29155  0.39193  0.13770000000000004  1.0000
  C   C123      1.0  0.36086000000000007  0.40817  0.17664000000000005  1.0000
  C   C124      1.0  0.55719  0.40761  0.18446000000000007  1.0000
  C   C125      1.0  0.68057  0.38917  0.15449000000000004  1.0000
  C   C126      1.0  0.22668  0.42629  0.20854000000000006  1.0000
  C   C127      1.0  0.98083  0.23961  0.9690600000000003  1.0000
  C   C128      1.0  0.023350000000000003  0.23322  0.9260700000000002  1.0000
  C   C129      1.0  0.91203  0.2042  0.9005000000000002  1.0000
  C   C130      1.0  0.7528400000000001  0.18079  0.9169500000000003  1.0000
  C   C131      1.0  0.7075300000000001  0.18781000000000006  0.9597800000000002  1.0000
  C   C132      1.0  0.81933  0.21681  0.98511  1.0000
  C   C133      1.0  0.10903  0.2679  0.9996700000000001  1.0000
  C   C134      1.0  0.23738  0.3015500000000001  0.9738900000000003  1.0000
  C   C135      1.0  0.1992  0.34929  0.9676600000000002  1.0000
  C   C136      1.0  0.31349  0.37683  0.94128  1.0000
  C   C137      1.0  0.4709  0.3577000000000001  0.92015  1.0000
  C   C138      1.0  0.51099  0.30997  0.9270200000000002  1.0000
  C   C139      1.0  0.39751  0.28293  0.95354  1.0000
  C   C140      1.0  0.31573  0.05547  0.8117  1.0000
  C   C141      1.0  0.23808  0.23384  0.0247  1.0000
  C   C142      1.0  0.20685  0.18541  0.027730000000000008  1.0000
  C   C143      1.0  0.32405  0.157  0.05262  1.0000
  C   C144      1.0  0.47664  0.1759  0.07579  1.0000
  C   C145      1.0  0.50804  0.22459000000000004  0.07248  1.0000
  C   C146      1.0  0.3931  0.25244  0.04709  1.0000
  C   C147      1.0  0.9064600000000003  0.13288  0.13646  1.0000
  C   C148      1.0  0.79  0.15973  0.11054000000000003  1.0000
  C   C149      1.0  0.6009700000000001  0.14618  0.10224  1.0000
  C   C150      1.0  0.53485  0.10381  0.12006  1.0000
  C   C151      1.0  0.65199  0.07621000000000001  0.14534000000000005  1.0000
  C   C152      1.0  0.8388700000000001  0.09077  0.15411  1.0000
  C   C153      1.0  0.96332  0.06212  0.18162000000000006  1.0000
  C   C154      1.0  0.62233  0.0841  0.8408200000000002  1.0000
  C   C155      1.0  0.7285  0.11451  0.8656200000000002  1.0000
  C   C156      1.0  0.63882  0.14924  0.88986  1.0000
  C   C157      1.0  0.43977  0.15318  0.8880700000000002  1.0000
  C   C158      1.0  0.33348  0.12412  0.86181  1.0000
  C   C159      1.0  0.42394  0.08897000000000001  0.8383300000000002  1.0000
  C   C160      1.0  0.62189  0.55455  0.16294  1.0000
  C   C161      1.0  0.81812  0.56336  0.16571000000000005  1.0000
  C   C162      1.0  0.9004  0.59729  0.13916  1.0000
  C   C163      1.0  0.78891  0.62224  0.11086000000000001  1.0000
  C   C164      1.0  0.5912900000000001  0.6145  0.10849000000000003  1.0000
  C   C165      1.0  0.51047  0.57985  0.13469  1.0000
  C   C166      1.0  0.94116  0.53836  0.19622000000000003  1.0000
  C   C167      1.0  0.9866  0.70482  0.9725000000000003  1.0000
  C   C168      1.0  0.80661  0.68507  0.9812400000000002  1.0000
  C   C169      1.0  0.6968000000000002  0.6618  0.9577700000000002  1.0000
  C   C170      1.0  0.73398  0.64887  0.9153800000000002  1.0000
  C   C171      1.0  0.9198  0.66613  0.90766  1.0000
  C   C172      1.0  0.02769  0.69002  0.9309800000000003  1.0000
  C   C173      1.0  0.60819  0.62645  0.8851500000000002  1.0000
  C   C174      1.0  0.41314  0.62199  0.8939600000000002  1.0000
  C   C175      1.0  0.2906  0.60502  0.86324  1.0000
  C   C176      1.0  0.36016000000000004  0.59104  0.8235700000000002  1.0000
  C   C177      1.0  0.55626  0.5934  0.81534  1.0000
  C   C178      1.0  0.67865  0.6113600000000001  0.8458  1.0000
  C   C179      1.0  0.22482  0.57364  0.79138  1.0000
  C   C180      1.0  0.98181  0.76194  0.03175  1.0000
  C   C181      1.0  0.0233  0.76806  0.07481  1.0000
  C   C182      1.0  0.91161  0.79697  0.10021  1.0000
  C   C183      1.0  0.75373  0.8204600000000002  0.08335000000000002  1.0000
  C   C184      1.0  0.71002  0.8137900000000001  0.04040000000000001  1.0000
  C   C185      1.0  0.82212  0.78493  0.01509  1.0000
  C   C186      1.0  0.11015  0.73354  0.002000000000000001  1.0000
  C   C187      1.0  0.23958  0.70039  0.02767  1.0000
  C   C188      1.0  0.18734  0.65408  0.03722  1.0000
  C   C189      1.0  0.30182  0.62604  0.06295000000000002  1.0000
  C   C190      1.0  0.47281000000000006  0.6432400000000001  0.07999  1.0000
  C   C191      1.0  0.52631  0.68941  0.06945000000000003  1.0000
  C   C192      1.0  0.4119  0.71714  0.043720000000000016  1.0000
  C   C193      1.0  0.31563  0.9457  0.18751000000000007  1.0000
  C   C194      1.0  0.23405  0.7664  0.9745100000000002  1.0000
  C   C195      1.0  0.22299  0.81536  0.9759200000000002  1.0000
  C   C196      1.0  0.33934  0.84316  0.9502000000000003  1.0000
  C   C197      1.0  0.47164  0.82295  0.9223400000000003  1.0000
  C   C198      1.0  0.48138  0.77366  0.92084  1.0000
  C   C199      1.0  0.36503  0.74613  0.9464700000000003  1.0000
  C   C200      1.0  0.90599  0.8653  0.8627300000000002  1.0000
  C   C201      1.0  0.78578  0.8379  0.8874600000000002  1.0000
  C   C202      1.0  0.5990500000000001  0.85251  0.8963700000000002  1.0000
  C   C203      1.0  0.53784  0.89601  0.88016  1.0000
  C   C204      1.0  0.65807  0.92388  0.8557300000000002  1.0000
  C   C205      1.0  0.8433900000000001  0.9085800000000003  0.84664  1.0000
  C   C206      1.0  0.97075  0.93765  0.8200500000000002  1.0000
  C   C207      1.0  0.62253  0.91779  0.15844000000000005  1.0000
  C   C208      1.0  0.72889  0.88717  0.13402000000000006  1.0000
  C   C209      1.0  0.63928  0.8520600000000002  0.11013  1.0000
  C   C210      1.0  0.44026  0.84782  0.11177  1.0000
  C   C211      1.0  0.33381  0.87702  0.13774  1.0000
  C   C212      1.0  0.42428  0.91248  0.16093000000000005  1.0000
  O   O1        1.0  0.86744  0.41955  0.6917600000000003  1.0000
  O   O2        1.0  0.89153  0.03816  0.3042100000000001  1.0000
  O   O3        1.0  0.71253  0.05015000000000001  0.7416  1.0000
  O   O4        1.0  0.95208  0.07619  0.70232  1.0000
  O   O5        1.0  0.84904  0.43343000000000004  0.29867  1.0000
  O   O6        1.0  0.59902  0.48371  0.3043900000000001  1.0000
  O   O7        1.0  0.16276  0.011800000000000001  0.27486  1.0000
  O   O8        1.0  0.08516  0.47847000000000006  0.6938400000000002  1.0000
  O   O9        1.0  0.87128  0.57849  0.3101100000000001  1.0000
  O   O10       1.0  0.8866  0.95985  0.69588  1.0000
  O   O11       1.0  0.71257  0.94783  0.2579900000000001  1.0000
  O   O12       1.0  0.95309  0.92383  0.29779  1.0000
  O   O13       1.0  0.8467900000000002  0.5683700000000003  0.70179  1.0000
  O   O14       1.0  0.60044  0.51653  0.69567  1.0000
  O   O15       1.0  0.15619  0.9879  0.72533  1.0000
  O   O16       1.0  0.0951  0.52136  0.30606  1.0000
  O   O17       1.0  0.12611  0.08115  0.19175  1.0000
  O   O18       1.0  0.1154  0.45988  0.8040300000000002  1.0000
  O   O19       1.0  0.29201  0.44561000000000006  0.24283  1.0000
  O   O20       1.0  0.04857  0.42392  0.20245000000000005  1.0000
  O   O21       1.0  0.15173  0.0667  0.7982300000000002  1.0000
  O   O22       1.0  0.40021  0.01601  0.8043700000000003  1.0000
  O   O23       1.0  0.84634  0.48844  0.77491  1.0000
  O   O24       1.0  0.91282  0.02153  0.19374000000000005  1.0000
  O   O25       1.0  0.13414  0.91895  0.8101300000000002  1.0000
  O   O26       1.0  0.11514  0.54025  0.19587  1.0000
  O   O27       1.0  0.28722  0.55465  0.75675  1.0000
  O   O28       1.0  0.04718  0.57623  0.79786  1.0000
  O   O29       1.0  0.15374  0.93361  0.20176  1.0000
  O   O30       1.0  0.39844  0.9857800000000002  0.19381  1.0000
  O   O31       1.0  0.84666  0.51175  0.22524000000000005  1.0000
  O   O32       1.0  0.92191  0.97843  0.8082100000000002  1.0000
