data_image0
_chemical_formula_structural       Zn8H88C144N16O32
_chemical_formula_sum              "Zn8 H88 C144 N16 O32"
_cell_length_a       7.26277
_cell_length_b       17.70705
_cell_length_c       27.9425
_cell_angle_alpha    89.99635000000002
_cell_angle_beta     90.0
_cell_angle_gamma    90.0

_space_group_name_H-M_alt    "P 1"
_space_group_IT_number       1

loop_
  _space_group_symop_operation_xyz
  'x, y, z'

loop_
  _atom_site_type_symbol
  _atom_site_label
  _atom_site_symmetry_multiplicity
  _atom_site_fract_x
  _atom_site_fract_y
  _atom_site_fract_z
  _atom_site_occupancy
  Zn  Zn1       1.0  0.34713  0.22118  0.10069  1.0000
  Zn  Zn2       1.0  0.16079  0.77857  0.60071  1.0000
  Zn  Zn3       1.0  0.83921  0.27856  0.60071  1.0000
  Zn  Zn4       1.0  0.65287  0.72118  0.10069  1.0000
  Zn  Zn5       1.0  0.16079  0.72143  0.3993  1.0000
  Zn  Zn6       1.0  0.34713  0.27882  0.8993099999999998  1.0000
  Zn  Zn7       1.0  0.65287  0.77882  0.8993099999999998  1.0000
  Zn  Zn8       1.0  0.83921  0.22143  0.3993  1.0000
  H   H1        1.0  0.3528  0.25538  0.35007  1.0000
  H   H2        1.0  0.43434999999999996  0.30719  0.19043  1.0000
  H   H3        1.0  0.43038999999999994  0.27618  0.27659  1.0000
  H   H4        1.0  0.20349999999999996  0.0284  0.30438  1.0000
  H   H5        1.0  0.19447  0.9911900000000001  0.38798999999999995  1.0000
  H   H6        1.0  0.34996  0.20834  0.43296999999999997  1.0000
  H   H7        1.0  0.35896  0.96218  0.45249  1.0000
  H   H8        1.0  0.11877  0.18078  0.48398  1.0000
  H   H9        1.0  0.12291  0.00506  0.5901399999999998  1.0000
  H   H10       1.0  0.14195999999999998  0.06941  0.23932  1.0000
  H   H11       1.0  0.16623  0.10739  0.15552  1.0000
  H   H12       1.0  0.14624  0.74453  0.85023  1.0000
  H   H13       1.0  0.06946  0.69201  0.6904099999999999  1.0000
  H   H14       1.0  0.06864  0.72368  0.77646  1.0000
  H   H15       1.0  0.29803  0.9712099999999999  0.80425  1.0000
  H   H16       1.0  0.30783  0.00852  0.8878199999999998  1.0000
  H   H17       1.0  0.14931  0.7919  0.9330099999999998  1.0000
  H   H18       1.0  0.14232  0.03878  0.9521799999999999  1.0000
  H   H19       1.0  0.37743  0.81914  0.98412  1.0000
  H   H20       1.0  0.37399  0.99438  0.09019  1.0000
  H   H21       1.0  0.35719  0.93064  0.73949  1.0000
  H   H22       1.0  0.33742  0.89208  0.65584  1.0000
  H   H23       1.0  0.85375  0.24452999999999997  0.85023  1.0000
  H   H24       1.0  0.93053  0.19201  0.6904099999999999  1.0000
  H   H25       1.0  0.93136  0.22368  0.77646  1.0000
  H   H26       1.0  0.70196  0.47121  0.80425  1.0000
  H   H27       1.0  0.69216  0.50852  0.8878199999999998  1.0000
  H   H28       1.0  0.8506899999999997  0.2919  0.9330099999999998  1.0000
  H   H29       1.0  0.8576799999999998  0.53878  0.9521799999999999  1.0000
  H   H30       1.0  0.62256  0.31914  0.98412  1.0000
  H   H31       1.0  0.62601  0.49438  0.09019  1.0000
  H   H32       1.0  0.6428  0.43064  0.73949  1.0000
  H   H33       1.0  0.6625699999999999  0.39208  0.65584  1.0000
  H   H34       1.0  0.6472  0.75538  0.35007  1.0000
  H   H35       1.0  0.56565  0.80719  0.19043  1.0000
  H   H36       1.0  0.5695999999999999  0.77618  0.27659  1.0000
  H   H37       1.0  0.79649  0.52841  0.30438  1.0000
  H   H38       1.0  0.80553  0.49119  0.38798999999999995  1.0000
  H   H39       1.0  0.65004  0.70834  0.43296999999999997  1.0000
  H   H40       1.0  0.64104  0.46218  0.45249  1.0000
  H   H41       1.0  0.88123  0.68078  0.48398  1.0000
  H   H42       1.0  0.87708  0.50506  0.5901399999999998  1.0000
  H   H43       1.0  0.85803  0.56941  0.23932  1.0000
  H   H44       1.0  0.83377  0.60739  0.15552  1.0000
  H   H45       1.0  0.14624  0.75546  0.14976999999999996  1.0000
  H   H46       1.0  0.06946  0.80799  0.30959  1.0000
  H   H47       1.0  0.06864  0.77632  0.22354999999999997  1.0000
  H   H48       1.0  0.29803  0.52879  0.19575  1.0000
  H   H49       1.0  0.30783  0.49148  0.11218  1.0000
  H   H50       1.0  0.14931  0.7081  0.06699  1.0000
  H   H51       1.0  0.14232  0.4612200000000001  0.04782  1.0000
  H   H52       1.0  0.37743  0.68086  0.01588  1.0000
  H   H53       1.0  0.37399  0.50562  0.9098099999999998  1.0000
  H   H54       1.0  0.35719  0.56936  0.26051  1.0000
  H   H55       1.0  0.33742  0.60792  0.34416  1.0000
  H   H56       1.0  0.3528  0.24462  0.64993  1.0000
  H   H57       1.0  0.43434999999999996  0.19281  0.80958  1.0000
  H   H58       1.0  0.43038999999999994  0.22381  0.7234099999999999  1.0000
  H   H59       1.0  0.20349999999999996  0.47159000000000006  0.69562  1.0000
  H   H60       1.0  0.19447  0.50881  0.61201  1.0000
  H   H61       1.0  0.34996  0.29165  0.56703  1.0000
  H   H62       1.0  0.35896  0.53782  0.54751  1.0000
  H   H63       1.0  0.11877  0.31921  0.51602  1.0000
  H   H64       1.0  0.12291  0.49494  0.40987  1.0000
  H   H65       1.0  0.14197  0.43059  0.76068  1.0000
  H   H66       1.0  0.16623  0.39261  0.8444799999999998  1.0000
  H   H67       1.0  0.6472  0.74462  0.64993  1.0000
  H   H68       1.0  0.56565  0.69281  0.80958  1.0000
  H   H69       1.0  0.5695999999999999  0.72381  0.7234099999999999  1.0000
  H   H70       1.0  0.79649  0.9715900000000001  0.69562  1.0000
  H   H71       1.0  0.80553  0.00881  0.61201  1.0000
  H   H72       1.0  0.65004  0.79166  0.56703  1.0000
  H   H73       1.0  0.64104  0.03782  0.54751  1.0000
  H   H74       1.0  0.88123  0.81921  0.51602  1.0000
  H   H75       1.0  0.87708  0.9949399999999999  0.40987  1.0000
  H   H76       1.0  0.85803  0.9305900000000001  0.76068  1.0000
  H   H77       1.0  0.83377  0.89261  0.8444799999999998  1.0000
  H   H78       1.0  0.85375  0.25546  0.14976999999999996  1.0000
  H   H79       1.0  0.93053  0.30799  0.30959  1.0000
  H   H80       1.0  0.93136  0.27632  0.22354999999999997  1.0000
  H   H81       1.0  0.70196  0.02879  0.19575  1.0000
  H   H82       1.0  0.69216  0.9914799999999999  0.11218  1.0000
  H   H83       1.0  0.8506899999999997  0.2081  0.06699  1.0000
  H   H84       1.0  0.8576799999999998  0.9612200000000001  0.04782  1.0000
  H   H85       1.0  0.62256  0.18086  0.01588  1.0000
  H   H86       1.0  0.62601  0.00562  0.9098099999999998  1.0000
  H   H87       1.0  0.6428  0.06936  0.26051  1.0000
  H   H88       1.0  0.6625699999999999  0.10792  0.34416  1.0000
  C   C1        1.0  0.3193  0.19632  0.35627  1.0000
  C   C2        1.0  0.3713  0.25545  0.20362  1.0000
  C   C3        1.0  0.36462  0.23783999999999997  0.25148  1.0000
  C   C4        1.0  0.28386  0.1693  0.26773  1.0000
  C   C5        1.0  0.2812  0.14658  0.31724  1.0000
  C   C6        1.0  0.23654999999999995  0.07101  0.33101  1.0000
  C   C7        1.0  0.23382  0.04829  0.37769  1.0000
  C   C8        1.0  0.31657999999999986  0.17198  0.40292  1.0000
  C   C9        1.0  0.2456  0.075  0.463  1.0000
  C   C10       1.0  0.29134  0.00143  0.47670999999999997  1.0000
  C   C11       1.0  0.16045  0.12442  0.49504  1.0000
  C   C12       1.0  0.1165  0.09908  0.54114  1.0000
  C   C13       1.0  0.16033  0.02526  0.55478  1.0000
  C   C14       1.0  0.28386  0.89559  0.53626  1.0000
  C   C15       1.0  0.24719  0.97636  0.52268  1.0000
  C   C16       1.0  0.00877  0.14813  0.57466  1.0000
  C   C17       1.0  0.21048  0.12229  0.23098  1.0000
  C   C18       1.0  0.22018  0.1433  0.18375999999999998  1.0000
  C   C19       1.0  0.18  0.80362  0.85631  1.0000
  C   C20       1.0  0.13144  0.74394  0.70363  1.0000
  C   C21       1.0  0.1355  0.76189  0.75145  1.0000
  C   C22       1.0  0.21565999999999994  0.83054  0.76778  1.0000
  C   C23       1.0  0.21806  0.85329  0.81723  1.0000
  C   C24       1.0  0.26407  0.92878  0.83091  1.0000
  C   C25       1.0  0.26698  0.95163  0.87753  1.0000
  C   C26       1.0  0.18268999999999994  0.82816  0.90291  1.0000
  C   C27       1.0  0.25292  0.92538  0.96282  1.0000
  C   C28       1.0  0.20901  0.9992099999999999  0.9764299999999998  1.0000
  C   C29       1.0  0.33604  0.87559  0.99497  1.0000
  C   C30       1.0  0.37892  0.90049  0.04117  1.0000
  C   C31       1.0  0.33725  0.97445  0.054749999999999986  1.0000
  C   C32       1.0  0.21922  0.10459  0.0364  1.0000
  C   C33       1.0  0.25346  0.0239  0.02248  1.0000
  C   C34       1.0  0.48339  0.85051  0.07469999999999999  1.0000
  C   C35       1.0  0.28967  0.87757  0.7311299999999997  1.0000
  C   C36       1.0  0.28259  0.85621  0.68399  1.0000
  C   C37       1.0  0.82  0.30362  0.85631  1.0000
  C   C38       1.0  0.86855  0.24394  0.70363  1.0000
  C   C39       1.0  0.8645  0.26189  0.75145  1.0000
  C   C40       1.0  0.78434  0.33054  0.76778  1.0000
  C   C41       1.0  0.78193  0.35329  0.81723  1.0000
  C   C42       1.0  0.73592  0.42878  0.83091  1.0000
  C   C43       1.0  0.73302  0.45163  0.87753  1.0000
  C   C44       1.0  0.8173  0.32816  0.90291  1.0000
  C   C45       1.0  0.74708  0.42538  0.96282  1.0000
  C   C46       1.0  0.79099  0.49921  0.9764299999999998  1.0000
  C   C47       1.0  0.6639599999999999  0.37559  0.99497  1.0000
  C   C48       1.0  0.62107  0.40049  0.04117  1.0000
  C   C49       1.0  0.66275  0.47445  0.054749999999999986  1.0000
  C   C50       1.0  0.7807799999999999  0.60459  0.0364  1.0000
  C   C51       1.0  0.74654  0.5239  0.02248  1.0000
  C   C52       1.0  0.5166  0.35051  0.07469999999999999  1.0000
  C   C53       1.0  0.7103299999999998  0.37757  0.7311299999999997  1.0000
  C   C54       1.0  0.71741  0.35621  0.68399  1.0000
  C   C55       1.0  0.68069  0.69632  0.35627  1.0000
  C   C56       1.0  0.62869  0.75545  0.20362  1.0000
  C   C57       1.0  0.63537  0.73784  0.25148  1.0000
  C   C58       1.0  0.71613  0.6693  0.26773  1.0000
  C   C59       1.0  0.71879  0.64658  0.31724  1.0000
  C   C60       1.0  0.76344  0.57101  0.33101  1.0000
  C   C61       1.0  0.76618  0.54829  0.37769  1.0000
  C   C62       1.0  0.68341  0.67198  0.40292  1.0000
  C   C63       1.0  0.75439  0.575  0.463  1.0000
  C   C64       1.0  0.70865  0.50143  0.47670999999999997  1.0000
  C   C65       1.0  0.83955  0.62442  0.49504  1.0000
  C   C66       1.0  0.8835  0.59908  0.54114  1.0000
  C   C67       1.0  0.83967  0.52526  0.55478  1.0000
  C   C68       1.0  0.71614  0.39559  0.53626  1.0000
  C   C69       1.0  0.7528  0.47636  0.52268  1.0000
  C   C70       1.0  0.99123  0.64814  0.57466  1.0000
  C   C71       1.0  0.78952  0.62229  0.23098  1.0000
  C   C72       1.0  0.7798099999999999  0.6433  0.18375999999999998  1.0000
  C   C73       1.0  0.18  0.69638  0.14369  1.0000
  C   C74       1.0  0.13144  0.75606  0.29637  1.0000
  C   C75       1.0  0.1355  0.73811  0.24855  1.0000
  C   C76       1.0  0.21565999999999994  0.66946  0.23222  1.0000
  C   C77       1.0  0.21806  0.64671  0.18276999999999996  1.0000
  C   C78       1.0  0.26407  0.57122  0.16908999999999996  1.0000
  C   C79       1.0  0.26698  0.54836  0.12247  1.0000
  C   C80       1.0  0.18268999999999994  0.67184  0.09709  1.0000
  C   C81       1.0  0.25292  0.57462  0.03717999999999999  1.0000
  C   C82       1.0  0.20901  0.50079  0.02357  1.0000
  C   C83       1.0  0.33604  0.6244  0.005029999999999998  1.0000
  C   C84       1.0  0.37892  0.59951  0.95883  1.0000
  C   C85       1.0  0.33725  0.52555  0.94525  1.0000
  C   C86       1.0  0.21922  0.39541  0.9636  1.0000
  C   C87       1.0  0.25346  0.4761  0.97752  1.0000
  C   C88       1.0  0.48339  0.64949  0.9253  1.0000
  C   C89       1.0  0.28967  0.62243  0.26887  1.0000
  C   C90       1.0  0.28259  0.64379  0.31601  1.0000
  C   C91       1.0  0.3193  0.30368  0.64373  1.0000
  C   C92       1.0  0.3713  0.24454999999999996  0.7963799999999998  1.0000
  C   C93       1.0  0.36462  0.26215  0.7485199999999997  1.0000
  C   C94       1.0  0.28386  0.3307  0.73227  1.0000
  C   C95       1.0  0.2812  0.35342  0.68276  1.0000
  C   C96       1.0  0.23654999999999995  0.42899  0.66899  1.0000
  C   C97       1.0  0.23382  0.45171  0.6223099999999999  1.0000
  C   C98       1.0  0.31657999999999986  0.32802  0.59708  1.0000
  C   C99       1.0  0.2456  0.425  0.53701  1.0000
  C   C100      1.0  0.29134  0.49857  0.52329  1.0000
  C   C101      1.0  0.16045  0.37557  0.50496  1.0000
  C   C102      1.0  0.1165  0.40092  0.4588599999999999  1.0000
  C   C103      1.0  0.16033  0.47473999999999994  0.44522  1.0000
  C   C104      1.0  0.28386  0.60441  0.46374  1.0000
  C   C105      1.0  0.24719  0.52364  0.47732  1.0000
  C   C106      1.0  0.00877  0.35186  0.42534  1.0000
  C   C107      1.0  0.21048  0.37771  0.76902  1.0000
  C   C108      1.0  0.22018  0.35669  0.81624  1.0000
  C   C109      1.0  0.68069  0.80368  0.64373  1.0000
  C   C110      1.0  0.62869  0.74455  0.7963799999999998  1.0000
  C   C111      1.0  0.63537  0.76215  0.7485199999999997  1.0000
  C   C112      1.0  0.71613  0.8307  0.73227  1.0000
  C   C113      1.0  0.71879  0.85342  0.68276  1.0000
  C   C114      1.0  0.76344  0.9289899999999999  0.66899  1.0000
  C   C115      1.0  0.76618  0.95171  0.6223099999999999  1.0000
  C   C116      1.0  0.68341  0.82802  0.59708  1.0000
  C   C117      1.0  0.75439  0.9250000000000002  0.53701  1.0000
  C   C118      1.0  0.70865  0.9985700000000001  0.52329  1.0000
  C   C119      1.0  0.83955  0.87557  0.50496  1.0000
  C   C120      1.0  0.8835  0.90092  0.4588599999999999  1.0000
  C   C121      1.0  0.83967  0.97474  0.44522  1.0000
  C   C122      1.0  0.71614  0.10441  0.46374  1.0000
  C   C123      1.0  0.7528  0.02364  0.47732  1.0000
  C   C124      1.0  0.99123  0.85186  0.42534  1.0000
  C   C125      1.0  0.78952  0.87771  0.76902  1.0000
  C   C126      1.0  0.7798099999999999  0.85669  0.81624  1.0000
  C   C127      1.0  0.82  0.19638  0.14369  1.0000
  C   C128      1.0  0.86855  0.25605  0.29637  1.0000
  C   C129      1.0  0.8645  0.23811  0.24855  1.0000
  C   C130      1.0  0.78434  0.16946  0.23222  1.0000
  C   C131      1.0  0.78193  0.14671  0.18276999999999996  1.0000
  C   C132      1.0  0.73592  0.07122  0.16908999999999996  1.0000
  C   C133      1.0  0.73302  0.04836  0.12247  1.0000
  C   C134      1.0  0.8173  0.17184  0.09709  1.0000
  C   C135      1.0  0.74708  0.07462  0.03717999999999999  1.0000
  C   C136      1.0  0.79099  0.00079  0.02357  1.0000
  C   C137      1.0  0.6639599999999999  0.12440000000000001  0.005029999999999998  1.0000
  C   C138      1.0  0.62107  0.09951  0.95883  1.0000
  C   C139      1.0  0.66275  0.02555  0.94525  1.0000
  C   C140      1.0  0.7807799999999999  0.89541  0.9636  1.0000
  C   C141      1.0  0.74654  0.9761  0.97752  1.0000
  C   C142      1.0  0.5166  0.14949  0.9253  1.0000
  C   C143      1.0  0.7103299999999998  0.12242999999999998  0.26887  1.0000
  C   C144      1.0  0.71741  0.14379  0.31601  1.0000
  N   N1        1.0  0.29760999999999993  0.20951  0.16893  1.0000
  N   N2        1.0  0.27385  0.09817  0.41440999999999995  1.0000
  N   N3        1.0  0.20684  0.78971  0.6690899999999999  1.0000
  N   N4        1.0  0.22522  0.90205  0.9142799999999999  1.0000
  N   N5        1.0  0.79316  0.28971  0.6690899999999999  1.0000
  N   N6        1.0  0.77477  0.40205  0.9142799999999999  1.0000
  N   N7        1.0  0.70239  0.70951  0.16893  1.0000
  N   N8        1.0  0.72615  0.59817  0.41440999999999995  1.0000
  N   N9        1.0  0.20684  0.71029  0.33092  1.0000
  N   N10       1.0  0.22522  0.59794  0.08572  1.0000
  N   N11       1.0  0.29760999999999993  0.29048  0.83107  1.0000
  N   N12       1.0  0.27385  0.40182  0.5856  1.0000
  N   N13       1.0  0.70239  0.79048  0.83107  1.0000
  N   N14       1.0  0.72615  0.90182  0.5856  1.0000
  N   N15       1.0  0.79316  0.21029  0.33092  1.0000
  N   N16       1.0  0.77477  0.09794  0.08572  1.0000
  O   O1        1.0  0.99768  0.21915  0.56164  1.0000
  O   O2        1.0  0.21345  0.87848  0.57832  1.0000
  O   O3        1.0  0.36981  0.85225  0.50969  1.0000
  O   O4        1.0  0.9352  0.12189  0.61156  1.0000
  O   O5        1.0  0.50281  0.78078  0.05968  1.0000
  O   O6        1.0  0.29445  0.12144000000000002  0.07793999999999998  1.0000
  O   O7        1.0  0.13025  0.1479  0.01047  1.0000
  O   O8        1.0  0.54745  0.87474  0.1133  1.0000
  O   O9        1.0  0.49719  0.28078  0.05968  1.0000
  O   O10       1.0  0.70555  0.62144  0.07793999999999998  1.0000
  O   O11       1.0  0.86974  0.6479  0.01047  1.0000
  O   O12       1.0  0.45255  0.37474  0.1133  1.0000
  O   O13       1.0  0.00231  0.71915  0.56164  1.0000
  O   O14       1.0  0.78654  0.37848  0.57832  1.0000
  O   O15       1.0  0.6301899999999999  0.35225  0.50969  1.0000
  O   O16       1.0  0.0648  0.62189  0.61156  1.0000
  O   O17       1.0  0.50281  0.71922  0.94032  1.0000
  O   O18       1.0  0.29445  0.37855  0.9220599999999999  1.0000
  O   O19       1.0  0.13025  0.3521  0.98953  1.0000
  O   O20       1.0  0.54745  0.62526  0.8867  1.0000
  O   O21       1.0  0.99768  0.28085  0.43836  1.0000
  O   O22       1.0  0.21345  0.62152  0.42168  1.0000
  O   O23       1.0  0.36981  0.64775  0.49031  1.0000
  O   O24       1.0  0.93519  0.37811  0.38845  1.0000
  O   O25       1.0  0.00231  0.78085  0.43836  1.0000
  O   O26       1.0  0.78654  0.12152000000000002  0.42168  1.0000
  O   O27       1.0  0.6301899999999999  0.14775  0.49031  1.0000
  O   O28       1.0  0.0648  0.87811  0.38845  1.0000
  O   O29       1.0  0.49719  0.21922  0.94032  1.0000
  O   O30       1.0  0.70555  0.87856  0.9220599999999999  1.0000
  O   O31       1.0  0.86974  0.8521  0.98953  1.0000
  O   O32       1.0  0.45255  0.12526  0.8867  1.0000
