data_image0
_chemical_formula_structural       Co6H92C148S6N8O38
_chemical_formula_sum              "Co6 H92 C148 S6 N8 O38"
_cell_length_a       14.08049
_cell_length_b       14.49154
_cell_length_c       21.46999
_cell_angle_alpha    91.10476
_cell_angle_beta     93.91152000000001
_cell_angle_gamma    116.84841

_symmetry_space_group_name_H-M    'P 1'
_symmetry_Int_Tables_number       1

loop_
  _symmetry_equiv_pos_as_xyz
  'x,y,z'

loop_
  _atom_site_type_symbol
  _atom_site_label
  _atom_site_symmetry_multiplicity
  _atom_site_fract_x
  _atom_site_fract_y
  _atom_site_fract_z
  _atom_site_occupancy
  Co  Co1       1.0  0.06464  0.22443  0.1102  1.0000
  Co  Co2       1.0  0.2785  0.44571  0.398  1.0000
  Co  Co3       1.0  0.21785999999999997  0.27723  0.27516  1.0000
  Co  Co4       1.0  0.9353500000000001  0.77555  0.88981  1.0000
  Co  Co5       1.0  0.72136  0.55406  0.60195  1.0000
  Co  Co6       1.0  0.7819499999999999  0.7225099999999998  0.7249  1.0000
  H   H1        1.0  0.9564700000000002  0.04213999999999998  0.01976  1.0000
  H   H2        1.0  0.85827  4.000000000000247e-05  0.91447  1.0000
  H   H3        1.0  0.84375  0.29106  0.93307  1.0000
  H   H4        1.0  0.9456900000000001  0.32189  0.03686  1.0000
  H   H5        1.0  0.71984  0.95028  0.85302  1.0000
  H   H6        1.0  0.61011  0.05372  0.69092  1.0000
  H   H7        1.0  0.82948  0.27878  0.8326499999999999  1.0000
  H   H8        1.0  0.87076  0.52033  0.70032  1.0000
  H   H9        1.0  0.8772000000000001  0.38003  0.76027  1.0000
  H   H10       1.0  0.56344  0.17568  0.67118  1.0000
  H   H11       1.0  0.5726700000000001  0.32453  0.61287  1.0000
  H   H12       1.0  0.45119  0.89782  0.803  1.0000
  H   H13       1.0  0.21163  0.66066  0.67537  1.0000
  H   H14       1.0  0.5478399999999998  0.7744299999999997  0.65138  1.0000
  H   H15       1.0  0.9808699999999999  0.6157599999999999  0.81281  1.0000
  H   H16       1.0  0.12967999999999996  0.6100799999999998  0.76144  1.0000
  H   H17       1.0  0.3112999999999999  0.9386699999999998  0.80712  1.0000
  H   H18       1.0  0.15484000000000006  0.9299199999999999  0.85866  1.0000
  H   H19       1.0  0.46629999999999994  0.56855  0.4849  1.0000
  H   H20       1.0  0.5122399999999998  0.6724  0.58372  1.0000
  H   H21       1.0  0.1754999999999999  0.58249  0.59123  1.0000
  H   H22       1.0  0.1443800000000001  0.48299  0.49041  1.0000
  H   H23       1.0  0.11192999999999995  0.9957899999999997  0.30347  1.0000
  H   H24       1.0  0.04370000000000004  0.80921  0.33126  1.0000
  H   H25       1.0  0.86854  0.7109  0.15001  1.0000
  H   H26       1.0  0.9332899999999998  0.8964699999999998  0.12432  1.0000
  H   H27       1.0  0.8128299999999999  0.67995  0.36078999999999994  1.0000
  H   H28       1.0  0.62456  0.61335  0.38876  1.0000
  H   H29       1.0  0.51382  0.39889  0.22814  1.0000
  H   H30       1.0  0.7020099999999999  0.4660999999999999  0.19864  1.0000
  H   H31       1.0  0.032990000000000096  0.65896  0.54635  1.0000
  H   H32       1.0  0.21957  0.76796  0.51699  1.0000
  H   H33       1.0  0.27680999999999994  0.97872  0.6757399999999999  1.0000
  H   H34       1.0  0.08979999999999994  0.8691999999999998  0.70409  1.0000
  H   H35       1.0  0.34149  0.9507399999999998  0.43778  1.0000
  H   H36       1.0  0.29004  0.06319  0.36957  1.0000
  H   H37       1.0  0.32478  0.26055999999999996  0.52998  1.0000
  H   H38       1.0  0.37516  0.14818  0.59903  1.0000
  H   H39       1.0  0.20327  0.5705  0.0907  1.0000
  H   H40       1.0  0.34801  0.75571  0.09864999999999999  1.0000
  H   H41       1.0  0.5363100000000001  0.6714699999999999  0.23029  1.0000
  H   H42       1.0  0.39168  0.48715  0.22038  1.0000
  H   H43       1.0  0.5452999999999998  0.9181599999999998  0.044  1.0000
  H   H44       1.0  0.62377  0.89159  0.9471299999999998  1.0000
  H   H45       1.0  0.78609  0.75099  0.05387999999999999  1.0000
  H   H46       1.0  0.7068599999999999  0.7747199999999997  0.1512  1.0000
  H   H47       1.0  0.04346000000000002  0.9578799999999998  0.98032  1.0000
  H   H48       1.0  0.14164  0.99992  0.0856  1.0000
  H   H49       1.0  0.15621  0.70892  0.0669  1.0000
  H   H50       1.0  0.05443999999999992  0.6782399999999998  0.9630699999999999  1.0000
  H   H51       1.0  0.28009  0.049669999999999985  0.14703  1.0000
  H   H52       1.0  0.39008999999999994  0.94635  0.30906  1.0000
  H   H53       1.0  0.17063000000000003  0.72119  0.16737  1.0000
  H   H54       1.0  0.12926  0.47965  0.29972  1.0000
  H   H55       1.0  0.12275  0.61999  0.23985999999999996  1.0000
  H   H56       1.0  0.4365999999999999  0.8242699999999997  0.32895  1.0000
  H   H57       1.0  0.42734999999999984  0.6753199999999998  0.38715  1.0000
  H   H58       1.0  0.54879  0.10223  0.19693  1.0000
  H   H59       1.0  0.78838  0.33928  0.32462  1.0000
  H   H60       1.0  0.45217  0.22545  0.34864  1.0000
  H   H61       1.0  0.01911999999999992  0.3842099999999999  0.18716  1.0000
  H   H62       1.0  0.8702999999999999  0.3898999999999999  0.23853  1.0000
  H   H63       1.0  0.6886899999999999  0.06128000000000001  0.19285  1.0000
  H   H64       1.0  0.8451599999999998  0.07007  0.1413  1.0000
  H   H65       1.0  0.53365  0.43159999999999993  0.515  1.0000
  H   H66       1.0  0.48777  0.3277399999999999  0.41619  1.0000
  H   H67       1.0  0.8245  0.4177299999999999  0.4087  1.0000
  H   H68       1.0  0.85561  0.5171399999999999  0.50953  1.0000
  H   H69       1.0  0.88806  0.004360000000000003  0.69647  1.0000
  H   H70       1.0  0.9563500000000001  0.19097  0.66881  1.0000
  H   H71       1.0  0.13142999999999996  0.28898999999999997  0.85012  1.0000
  H   H72       1.0  0.06661999999999996  0.10338999999999995  0.8756699999999998  1.0000
  H   H73       1.0  0.18684  0.31981  0.63926  1.0000
  H   H74       1.0  0.37520999999999993  0.38612999999999986  0.6114499999999999  1.0000
  H   H75       1.0  0.48595  0.60069  0.7720799999999999  1.0000
  H   H76       1.0  0.29755  0.53367  0.8013999999999999  1.0000
  H   H77       1.0  0.96678  0.34092  0.45368  1.0000
  H   H78       1.0  0.7801300000000001  0.23193999999999995  0.48288  1.0000
  H   H79       1.0  0.72305  0.02121  0.32419  1.0000
  H   H80       1.0  0.91005  0.13059  0.29589  1.0000
  H   H81       1.0  0.65864  0.049159999999999995  0.56237  1.0000
  H   H82       1.0  0.7095599999999999  0.9363699999999999  0.63046  1.0000
  H   H83       1.0  0.6747599999999998  0.7390999999999998  0.47007  1.0000
  H   H84       1.0  0.62481  0.8516099999999999  0.40099  1.0000
  H   H85       1.0  0.79659  0.42938  0.9094  1.0000
  H   H86       1.0  0.65188  0.24417  0.9014299999999998  1.0000
  H   H87       1.0  0.46383  0.32835  0.7695599999999999  1.0000
  H   H88       1.0  0.60824  0.51277  0.77969  1.0000
  H   H89       1.0  0.45464  0.08178  0.95605  1.0000
  H   H90       1.0  0.37627  0.10847999999999997  0.05296  1.0000
  H   H91       1.0  0.21399  0.2491  0.94622  1.0000
  H   H92       1.0  0.29303  0.22521999999999995  0.84886  1.0000
  C   C1        1.0  0.9301799999999999  0.09515  0.99842  1.0000
  C   C2        1.0  0.8745900000000001  0.07199999999999998  0.9398099999999999  1.0000
  C   C3        1.0  0.84171  0.14217  0.9135  1.0000
  C   C4        1.0  0.8678100000000001  0.2337  0.9496999999999999  1.0000
  C   C5        1.0  0.92397  0.25147  0.00808  1.0000
  C   C6        1.0  0.78128  0.11909999999999997  0.8515299999999999  1.0000
  C   C7        1.0  0.7216300000000001  0.015930000000000003  0.82809  1.0000
  C   C8        1.0  0.6622899999999998  0.9952899999999998  0.77055  1.0000
  C   C9        1.0  0.65834  0.07373  0.73549  1.0000
  C   C10       1.0  0.71954  0.17747  0.7580099999999999  1.0000
  C   C11       1.0  0.78123  0.19876  0.81553  1.0000
  C   C12       1.0  0.8043500000000001  0.4428399999999999  0.69499  1.0000
  C   C13       1.0  0.80645  0.36344999999999994  0.72923  1.0000
  C   C14       1.0  0.71998  0.26354  0.7219799999999998  1.0000
  C   C15       1.0  0.63402  0.25021  0.67909  1.0000
  C   C16       1.0  0.63834  0.33347999999999994  0.64626  1.0000
  C   C17       1.0  0.5082399999999998  0.8397699999999998  0.72824  1.0000
  C   C18       1.0  0.4291700000000001  0.84442  0.76216  1.0000
  C   C19       1.0  0.3215299999999999  0.7768399999999999  0.74321  1.0000
  C   C20       1.0  0.29544999999999993  0.7097299999999999  0.68988  1.0000
  C   C21       1.0  0.3749799999999999  0.70785  0.6547799999999999  1.0000
  C   C22       1.0  0.4819999999999999  0.7729599999999998  0.6754  1.0000
  C   C23       1.0  0.054919999999999906  0.6860099999999998  0.81003  1.0000
  C   C24       1.0  0.13873999999999997  0.68381  0.7806499999999998  1.0000
  C   C25       1.0  0.23404  0.7753699999999999  0.7780199999999999  1.0000
  C   C26       1.0  0.24005999999999994  0.8651599999999998  0.80779  1.0000
  C   C27       1.0  0.15257999999999977  0.8608599999999997  0.83627  1.0000
  C   C28       1.0  0.4044499999999999  0.5746899999999999  0.50975  1.0000
  C   C29       1.0  0.4291299999999999  0.6333099999999998  0.56548  1.0000
  C   C30       1.0  0.34864  0.64123  0.59699  1.0000
  C   C31       1.0  0.24346  0.58332  0.5696  1.0000
  C   C32       1.0  0.22457999999999995  0.52686  0.5131999999999999  1.0000
  C   C33       1.0  0.06487  0.0683  0.19809  1.0000
  C   C34       1.0  0.02547999999999989  0.9565199999999998  0.21283  1.0000
  C   C35       1.0  0.05742999999999989  0.9322799999999998  0.27105  1.0000
  C   C36       1.0  0.01952000000000002  0.8293  0.28645  1.0000
  C   C37       1.0  0.95052  0.7506299999999999  0.24261999999999997  1.0000
  C   C38       1.0  0.91968  0.7735099999999999  0.18385  1.0000
  C   C39       1.0  0.95669  0.87671  0.16941  1.0000
  C   C40       1.0  0.76727  0.57684  0.27778  1.0000
  C   C41       1.0  0.74723  0.6195499999999999  0.3315  1.0000
  C   C42       1.0  0.6425399999999999  0.5825099999999999  0.3471099999999999  1.0000
  C   C43       1.0  0.55819  0.50259  0.31006  1.0000
  C   C44       1.0  0.5795  0.4611899999999999  0.25628  1.0000
  C   C45       1.0  0.68427  0.49850999999999995  0.23976999999999998  1.0000
  C   C46       1.0  0.44665  0.4619599999999999  0.32893  1.0000
  C   C47       1.0  0.93918  0.69192  0.64276  1.0000
  C   C48       1.0  0.05072000000000001  0.75815  0.62664  1.0000
  C   C49       1.0  0.08692999999999998  0.72933  0.57382  1.0000
  C   C50       1.0  0.18996  0.78984  0.55729  1.0000
  C   C51       1.0  0.25684000000000007  0.8793699999999999  0.59437  1.0000
  C   C52       1.0  0.22247999999999996  0.9095799999999999  0.64715  1.0000
  C   C53       1.0  0.11873999999999998  0.84842  0.66308  1.0000
  C   C54       1.0  0.35917  0.04303  0.52173  1.0000
  C   C55       1.0  0.3356  0.017489999999999995  0.45749999999999996  1.0000
  C   C56       1.0  0.30738  0.07994999999999997  0.41984  1.0000
  C   C57       1.0  0.3028  0.16705999999999993  0.44631999999999994  1.0000
  C   C58       1.0  0.3279  0.19207  0.51081  1.0000
  C   C59       1.0  0.35601  0.13006999999999994  0.54893  1.0000
  C   C60       1.0  0.27469  0.23550999999999997  0.40547999999999995  1.0000
  C   C61       1.0  0.20462  0.40993  0.15173  1.0000
  C   C62       1.0  0.28941  0.51949  0.15637  1.0000
  C   C63       1.0  0.27637  0.5943  0.12112  1.0000
  C   C64       1.0  0.3563499999999999  0.6963099999999998  0.12525  1.0000
  C   C65       1.0  0.44885  0.72285  0.16514  1.0000
  C   C66       1.0  0.46346  0.64906  0.19995  1.0000
  C   C67       1.0  0.38337  0.54721  0.1949  1.0000
  C   C68       1.0  0.62088  0.8465999999999999  0.1022  1.0000
  C   C69       1.0  0.5974  0.8810599999999998  0.04547  1.0000
  C   C70       1.0  0.64127  0.86658  0.99203  1.0000
  C   C71       1.0  0.7085399999999998  0.81883  0.9951699999999999  1.0000
  C   C72       1.0  0.73273  0.78674  0.05279  1.0000
  C   C73       1.0  0.6889199999999999  0.7998499999999997  0.10647  1.0000
  C   C74       1.0  0.75721  0.80457  0.93719  1.0000
  C   C75       1.0  0.06976000000000004  0.90487  0.0016299999999999997  1.0000
  C   C76       1.0  0.12532999999999989  0.9279799999999998  0.06025  1.0000
  C   C77       1.0  0.15822999999999987  0.8577899999999999  0.08653  1.0000
  C   C78       1.0  0.13215999999999997  0.7663  0.05029999999999999  1.0000
  C   C79       1.0  0.07605999999999989  0.7485999999999998  0.9919  1.0000
  C   C80       1.0  0.21869  0.8808499999999999  0.14849999999999997  1.0000
  C   C81       1.0  0.27834  0.98403  0.17194  1.0000
  C   C82       1.0  0.33773999999999993  0.004679999999999995  0.22946  1.0000
  C   C83       1.0  0.34177  0.92628  0.26451  1.0000
  C   C84       1.0  0.28054  0.82252  0.24202  1.0000
  C   C85       1.0  0.21881999999999985  0.8012099999999998  0.1845  1.0000
  C   C86       1.0  0.19566999999999998  0.5571299999999999  0.30505  1.0000
  C   C87       1.0  0.19355999999999993  0.6365599999999998  0.27084  1.0000
  C   C88       1.0  0.28009  0.73645  0.27806  1.0000
  C   C89       1.0  0.36603  0.74973  0.32097  1.0000
  C   C90       1.0  0.36168  0.66642  0.3537699999999999  1.0000
  C   C91       1.0  0.49177  0.16021  0.27175  1.0000
  C   C92       1.0  0.57083  0.15559  0.23779999999999996  1.0000
  C   C93       1.0  0.67847  0.22312999999999997  0.25677  1.0000
  C   C94       1.0  0.7045499999999999  0.2902499999999999  0.31009999999999993  1.0000
  C   C95       1.0  0.62503  0.29214999999999997  0.3452  1.0000
  C   C96       1.0  0.51801  0.22699999999999998  0.3246  1.0000
  C   C97       1.0  0.9450799999999999  0.3139599999999999  0.18995999999999996  1.0000
  C   C98       1.0  0.8612499999999997  0.31615999999999994  0.21932999999999997  1.0000
  C   C99       1.0  0.76595  0.2246  0.22195999999999996  1.0000
  C   C100      1.0  0.75993  0.13481  0.19218  1.0000
  C   C101      1.0  0.84741  0.13910999999999998  0.16371  1.0000
  C   C102      1.0  0.5955  0.4254199999999999  0.49016  1.0000
  C   C103      1.0  0.57086  0.36677  0.43444999999999995  1.0000
  C   C104      1.0  0.65135  0.35882  0.40296999999999994  1.0000
  C   C105      1.0  0.75652  0.4168  0.43035  1.0000
  C   C106      1.0  0.7754100000000002  0.47327  0.48673999999999995  1.0000
  C   C107      1.0  0.93513  0.9316599999999999  0.8018699999999999  1.0000
  C   C108      1.0  0.97449  0.04345999999999997  0.7871499999999999  1.0000
  C   C109      1.0  0.94256  0.06778  0.72895  1.0000
  C   C110      1.0  0.98046  0.1708  0.71361  1.0000
  C   C111      1.0  0.049419999999999985  0.24939999999999998  0.75748  1.0000
  C   C112      1.0  0.08026999999999994  0.22644999999999996  0.81623  1.0000
  C   C113      1.0  0.043259999999999986  0.12321999999999997  0.8305999999999999  1.0000
  C   C114      1.0  0.23249  0.42298  0.72231  1.0000
  C   C115      1.0  0.25244  0.38016999999999995  0.66859  1.0000
  C   C116      1.0  0.3571599999999999  0.4170799999999999  0.65303  1.0000
  C   C117      1.0  0.44156  0.49693999999999994  0.69008  1.0000
  C   C118      1.0  0.42029999999999995  0.5384999999999999  0.74384  1.0000
  C   C119      1.0  0.31551  0.50132  0.76031  1.0000
  C   C120      1.0  0.55311  0.5378  0.67117  1.0000
  C   C121      1.0  0.06067000000000001  0.30786  0.35725  1.0000
  C   C122      1.0  0.9491200000000001  0.24169  0.37334  1.0000
  C   C123      1.0  0.9129  0.27057  0.42615  1.0000
  C   C124      1.0  0.80983  0.21008  0.44261  1.0000
  C   C125      1.0  0.7429500000000001  0.12052999999999998  0.40556  1.0000
  C   C126      1.0  0.7773399999999999  0.09032  0.35279  1.0000
  C   C127      1.0  0.8811  0.15143  0.33689  1.0000
  C   C128      1.0  0.64069  0.95686  0.47828  1.0000
  C   C129      1.0  0.66422  0.9823399999999998  0.54252  1.0000
  C   C130      1.0  0.6923299999999999  0.9197999999999998  0.58017  1.0000
  C   C131      1.0  0.6970499999999998  0.8327899999999998  0.55371  1.0000
  C   C132      1.0  0.6717899999999999  0.8076799999999997  0.48924  1.0000
  C   C133      1.0  0.64377  0.86974  0.4511  1.0000
  C   C134      1.0  0.72547  0.76457  0.5946  1.0000
  C   C135      1.0  0.79536  0.58999  0.84831  1.0000
  C   C136      1.0  0.71055  0.48043  0.8436899999999999  1.0000
  C   C137      1.0  0.72354  0.40558999999999995  0.87895  1.0000
  C   C138      1.0  0.6435699999999999  0.30355999999999994  0.87481  1.0000
  C   C139      1.0  0.55111  0.27701999999999993  0.8348599999999999  1.0000
  C   C140      1.0  0.53659  0.35081  0.8000099999999999  1.0000
  C   C141      1.0  0.6166199999999998  0.4526999999999999  0.80512  1.0000
  C   C142      1.0  0.37901999999999997  0.15332999999999994  0.8978499999999999  1.0000
  C   C143      1.0  0.40254999999999996  0.11889999999999998  0.95459  1.0000
  C   C144      1.0  0.35875  0.13345  0.00804  1.0000
  C   C145      1.0  0.2915  0.18121999999999994  0.004899999999999999  1.0000
  C   C146      1.0  0.26729  0.21329999999999993  0.94729  1.0000
  C   C147      1.0  0.31101  0.20011  0.8935899999999999  1.0000
  C   C148      1.0  0.24281000000000003  0.19546  0.06287  1.0000
  S   S1        1.0  0.9026499999999998  0.6185599999999999  0.26077  1.0000
  S   S2        1.0  0.38637000000000005  0.95804  0.57027  1.0000
  S   S3        1.0  0.55375  0.8515199999999998  0.16837  1.0000
  S   S4        1.0  0.09716999999999995  0.3814099999999999  0.73935  1.0000
  S   S5        1.0  0.61346  0.04191  0.42977  1.0000
  S   S6        1.0  0.44611  0.14835999999999996  0.83165  1.0000
  N   N1        1.0  0.95548  0.18363  0.03255  1.0000
  N   N2        1.0  0.72196  0.42933999999999994  0.65345  1.0000
  N   N3        1.0  0.05995  0.7729199999999999  0.83733  1.0000
  N   N4        1.0  0.3037  0.5231  0.48250999999999994  1.0000
  N   N5        1.0  0.04452999999999999  0.81644  0.96746  1.0000
  N   N6        1.0  0.27806  0.57055  0.34655  1.0000
  N   N7        1.0  0.94005  0.22705  0.16267  1.0000
  N   N8        1.0  0.69625  0.4769799999999999  0.51741  1.0000
  O   O1        1.0  0.6162699999999998  0.8931299999999998  0.74656  1.0000
  O   O2        1.0  0.028989999999999988  0.08677999999999998  0.14609  1.0000
  O   O3        1.0  0.12895  0.13422  0.23981  1.0000
  O   O4        1.0  0.90091  0.55951  0.2041  1.0000
  O   O5        1.0  0.9618199999999999  0.6153099999999999  0.31878  1.0000
  O   O6        1.0  0.37073  0.39317  0.2931599999999999  1.0000
  O   O7        1.0  0.43368  0.50047  0.37988  1.0000
  O   O8        1.0  0.12777  0.38444  0.10908  1.0000
  O   O9        1.0  0.20904999999999996  0.34224999999999994  0.18764  1.0000
  O   O10       1.0  0.50716  0.92231  0.15621  1.0000
  O   O11       1.0  0.62394  0.8662699999999998  0.22518  1.0000
  O   O12       1.0  0.7253  0.82105  0.8849  1.0000
  O   O13       1.0  0.8328599999999998  0.7781499999999998  0.9492999999999999  1.0000
  O   O14       1.0  0.25227  0.20767999999999995  0.34752  1.0000
  O   O15       1.0  0.27734  0.3161699999999999  0.43215  1.0000
  O   O16       1.0  0.41476999999999997  0.89259  0.53103  1.0000
  O   O17       1.0  0.45644  0.018510000000000002  0.62504  1.0000
  O   O18       1.0  0.8805699999999999  0.61573  0.60403  1.0000
  O   O19       1.0  0.9101  0.71304  0.69377  1.0000
  O   O20       1.0  0.38374  0.10685  0.25344  1.0000
  O   O21       1.0  0.97097  0.9132  0.85388  1.0000
  O   O22       1.0  0.8710799999999999  0.8657799999999998  0.76012  1.0000
  O   O23       1.0  0.09899999999999998  0.4405  0.7960399999999999  1.0000
  O   O24       1.0  0.03794999999999997  0.3846399999999999  0.6813599999999999  1.0000
  O   O25       1.0  0.62876  0.60696  0.70689  1.0000
  O   O26       1.0  0.5664  0.49932  0.6203  1.0000
  O   O27       1.0  0.87221  0.61549  0.89095  1.0000
  O   O28       1.0  0.7909299999999999  0.6576499999999997  0.81237  1.0000
  O   O29       1.0  0.49253  0.07745999999999997  0.84381  1.0000
  O   O30       1.0  0.37599  0.13369999999999999  0.77481  1.0000
  O   O31       1.0  0.27464  0.17885999999999994  0.11513999999999999  1.0000
  O   O32       1.0  0.16718  0.2219  0.05076  1.0000
  O   O33       1.0  0.7477900000000001  0.79232  0.65257  1.0000
  O   O34       1.0  0.7231099999999999  0.6840499999999999  0.5679  1.0000
  O   O35       1.0  0.58525  0.10743999999999995  0.46907999999999994  1.0000
  O   O36       1.0  0.5431999999999999  0.9814599999999998  0.37508  1.0000
  O   O37       1.0  0.11926  0.38394  0.39607  1.0000
  O   O38       1.0  0.08981999999999997  0.28692  0.30622  1.0000
