data_image0
_chemical_formula_structural       Rb16Mo16P16H64C40S16N16O80
_chemical_formula_sum              "Rb16 Mo16 P16 H64 C40 S16 N16 O80"
_cell_length_a       8.12702
_cell_length_b       22.25692
_cell_length_c       22.28412
_cell_angle_alpha    90.24491
_cell_angle_beta     90.16567999999998
_cell_angle_gamma    90.39065999999998

_space_group_name_H-M_alt    "P 1"
_space_group_IT_number       1

loop_
  _space_group_symop_operation_xyz
  'x, y, z'

loop_
  _atom_site_type_symbol
  _atom_site_label
  _atom_site_symmetry_multiplicity
  _atom_site_fract_x
  _atom_site_fract_y
  _atom_site_fract_z
  _atom_site_occupancy
  Rb  Rb1       1.0  0.25229  0.56676  0.50593  1.0000
  Rb  Rb2       1.0  0.61572  0.39312  0.30807  1.0000
  Rb  Rb3       1.0  0.25522  0.93141  0.99065  1.0000
  Rb  Rb4       1.0  0.61799  0.10913  0.1927  1.0000
  Rb  Rb5       1.0  0.76189  0.4920399999999999  0.06999  1.0000
  Rb  Rb6       1.0  0.10948  0.6924  0.89127  1.0000
  Rb  Rb7       1.0  0.7613299999999997  0.00994  0.4316300000000001  1.0000
  Rb  Rb8       1.0  0.10849  0.80748  0.60487  1.0000
  Rb  Rb9       1.0  0.74788  0.43323  0.49407  1.0000
  Rb  Rb10      1.0  0.38452999999999987  0.60686  0.69183  1.0000
  Rb  Rb11      1.0  0.7447399999999997  0.06862  0.00933  1.0000
  Rb  Rb12      1.0  0.38207999999999986  0.89091  0.80729  1.0000
  Rb  Rb13      1.0  0.23793  0.50773  0.92975  1.0000
  Rb  Rb14      1.0  0.8909499999999998  0.30753  0.10862  1.0000
  Rb  Rb15      1.0  0.23876  0.9900299999999997  0.56837  1.0000
  Rb  Rb16      1.0  0.8915299999999998  0.19248999999999994  0.39515  1.0000
  Mo  Mo1       1.0  0.20608  0.37002  0.46341000000000004  1.0000
  Mo  Mo2       1.0  0.11295  0.4423  0.36396  1.0000
  Mo  Mo3       1.0  0.20399999999999993  0.12835999999999997  0.03803000000000001  1.0000
  Mo  Mo4       1.0  0.10905  0.05543  0.13769  1.0000
  Mo  Mo5       1.0  0.69694  0.5378  0.86959  1.0000
  Mo  Mo6       1.0  0.60569  0.63696  0.9436100000000001  1.0000
  Mo  Mo7       1.0  0.69621  0.9619599999999999  0.62914  1.0000
  Mo  Mo8       1.0  0.60131  0.86231  0.555  1.0000
  Mo  Mo9       1.0  0.79409  0.62998  0.53656  1.0000
  Mo  Mo10      1.0  0.8871399999999998  0.5577  0.63598  1.0000
  Mo  Mo11      1.0  0.79598  0.87172  0.9619500000000001  1.0000
  Mo  Mo12      1.0  0.891  0.94466  0.86229  1.0000
  Mo  Mo13      1.0  0.3031899999999998  0.46227999999999997  0.13016  1.0000
  Mo  Mo14      1.0  0.39475  0.36323999999999995  0.055720000000000006  1.0000
  Mo  Mo15      1.0  0.30366  0.03801  0.37085000000000007  1.0000
  Mo  Mo16      1.0  0.39868  0.13769  0.44498  1.0000
  P   P1        1.0  0.53219  0.28356  0.4456300000000001  1.0000
  P   P2        1.0  0.26827  0.25185  0.53806  1.0000
  P   P3        1.0  0.53203  0.21826999999999996  0.05766  1.0000
  P   P4        1.0  0.26834  0.24682  0.96416  1.0000
  P   P5        1.0  0.023509999999999993  0.55762  0.78097  1.0000
  P   P6        1.0  0.75875  0.46465999999999996  0.74995  1.0000
  P   P7        1.0  0.02445  0.9422  0.7164400000000001  1.0000
  P   P8        1.0  0.76659  0.03658999999999999  0.74767  1.0000
  P   P9        1.0  0.46786  0.71645  0.55437  1.0000
  P   P10       1.0  0.73176  0.74816  0.46193000000000006  1.0000
  P   P11       1.0  0.46801  0.78188  0.94227  1.0000
  P   P12       1.0  0.7315899999999999  0.75312  0.03567000000000001  1.0000
  P   P13       1.0  0.97674  0.44235  0.21888  1.0000
  P   P14       1.0  0.24148  0.53529  0.24996  1.0000
  P   P15       1.0  0.9756399999999997  0.0578  0.28352  1.0000
  P   P16       1.0  0.23353  0.9633799999999999  0.25222  1.0000
  H   H1        1.0  0.23189  0.34117  0.30958  1.0000
  H   H2        1.0  0.22144  0.38562  0.25295  1.0000
  H   H3        1.0  0.71485  0.3031  0.55079  1.0000
  H   H4        1.0  0.5696999999999998  0.32967  0.60482  1.0000
  H   H5        1.0  0.48720999999999987  0.2627  0.6863600000000001  1.0000
  H   H6        1.0  0.51085  0.13837  0.70643  1.0000
  H   H7        1.0  0.6857  0.17875  0.53225  1.0000
  H   H8        1.0  0.6146299999999998  0.09511  0.60776  1.0000
  H   H9        1.0  0.23627  0.15649  0.19147  1.0000
  H   H10       1.0  0.22379  0.11215999999999997  0.24801  1.0000
  H   H11       1.0  0.71544  0.19769  0.9529100000000001  1.0000
  H   H12       1.0  0.56901  0.17044  0.89895  1.0000
  H   H13       1.0  0.49602  0.23579999999999998  0.8157000000000001  1.0000
  H   H14       1.0  0.52423  0.35998  0.79404  1.0000
  H   H15       1.0  0.67995  0.32261  0.9715300000000002  1.0000
  H   H16       1.0  0.6161799999999997  0.40498  0.8939200000000002  1.0000
  H   H17       1.0  0.7281  0.69045  0.84347  1.0000
  H   H18       1.0  0.71444  0.74761  0.88769  1.0000
  H   H19       1.0  0.20487  0.4529899999999999  0.80092  1.0000
  H   H20       1.0  0.058269999999999975  0.3987199999999999  0.82692  1.0000
  H   H21       1.0  0.98265  0.31575  0.76027  1.0000
  H   H22       1.0  0.013490000000000004  0.29414000000000007  0.6364100000000001  1.0000
  H   H23       1.0  0.17469  0.4712499999999999  0.67642  1.0000
  H   H24       1.0  0.11284  0.39389  0.59295  1.0000
  H   H25       1.0  0.72749  0.80941  0.65599  1.0000
  H   H26       1.0  0.71395  0.75252  0.61126  1.0000
  H   H27       1.0  0.21339  0.04571999999999999  0.69747  1.0000
  H   H28       1.0  0.07206  0.10022  0.6693800000000001  1.0000
  H   H29       1.0  0.99443  0.18390999999999996  0.73465  1.0000
  H   H30       1.0  0.018690000000000002  0.20663999999999993  0.8586500000000002  1.0000
  H   H31       1.0  0.18084999999999996  0.029930000000000002  0.8216600000000001  1.0000
  H   H32       1.0  0.11685999999999999  0.10796999999999998  0.9035900000000001  1.0000
  H   H33       1.0  0.76789  0.6588499999999999  0.69034  1.0000
  H   H34       1.0  0.7788599999999998  0.61435  0.7469400000000003  1.0000
  H   H35       1.0  0.28518  0.69692  0.44921  1.0000
  H   H36       1.0  0.43028  0.67034  0.39517  1.0000
  H   H37       1.0  0.51273  0.7373  0.31361  1.0000
  H   H38       1.0  0.48903  0.86163  0.29351000000000005  1.0000
  H   H39       1.0  0.31429  0.8212799999999999  0.46772  1.0000
  H   H40       1.0  0.3853199999999999  0.9049  0.39224  1.0000
  H   H41       1.0  0.7637899999999997  0.8435399999999998  0.80845  1.0000
  H   H42       1.0  0.77628  0.8878499999999998  0.75188  1.0000
  H   H43       1.0  0.2846  0.80234  0.04706  1.0000
  H   H44       1.0  0.43099  0.82952  0.10101  1.0000
  H   H45       1.0  0.50369  0.76418  0.18423000000000003  1.0000
  H   H46       1.0  0.47577  0.64  0.20584  1.0000
  H   H47       1.0  0.3205099999999999  0.67733  0.02829  1.0000
  H   H48       1.0  0.38396  0.59498  0.10593000000000001  1.0000
  H   H49       1.0  0.27206  0.30985  0.15639  1.0000
  H   H50       1.0  0.28574  0.25261  0.11225  1.0000
  H   H51       1.0  0.7952099999999998  0.54696  0.19902000000000006  1.0000
  H   H52       1.0  0.94168  0.60123  0.17301  1.0000
  H   H53       1.0  0.01743  0.6842299999999999  0.23968000000000003  1.0000
  H   H54       1.0  0.98653  0.7058099999999999  0.3635500000000001  1.0000
  H   H55       1.0  0.82528  0.52872  0.3235  1.0000
  H   H56       1.0  0.88721  0.60606  0.40699  1.0000
  H   H57       1.0  0.27251  0.1906  0.34401  1.0000
  H   H58       1.0  0.28606  0.24749  0.3887300000000001  1.0000
  H   H59       1.0  0.7867  0.9542999999999998  0.3025300000000001  1.0000
  H   H60       1.0  0.92799  0.8997699999999998  0.33060000000000006  1.0000
  H   H61       1.0  0.005349999999999997  0.81606  0.26532  1.0000
  H   H62       1.0  0.9810899999999998  0.79335  0.14131  1.0000
  H   H63       1.0  0.8192299999999998  0.9701099999999998  0.17832  1.0000
  H   H64       1.0  0.88316  0.89205  0.09639  1.0000
  C   C1        1.0  0.4566599999999999  0.29817  0.52273  1.0000
  C   C2        1.0  0.5934399999999997  0.29488  0.571  1.0000
  C   C3        1.0  0.53319  0.22643999999999997  0.65895  1.0000
  C   C4        1.0  0.53771  0.16577999999999998  0.66775  1.0000
  C   C5        1.0  0.6408  0.18446999999999997  0.5774  1.0000
  C   C6        1.0  0.4572999999999999  0.2018  0.98065  1.0000
  C   C7        1.0  0.59382  0.20546  0.93261  1.0000
  C   C8        1.0  0.53952  0.27264999999999995  0.8432900000000002  1.0000
  C   C9        1.0  0.54545  0.33317  0.83366  1.0000
  C   C10       1.0  0.6397  0.31617  0.9257800000000002  1.0000
  C   C11       1.0  0.9474799999999998  0.48039999999999994  0.7957600000000001  1.0000
  C   C12       1.0  0.08355  0.43241999999999997  0.7923400000000002  1.0000
  C   C13       1.0  0.028310000000000012  0.34325  0.7240900000000001  1.0000
  C   C14       1.0  0.0358  0.3337  0.66357  1.0000
  C   C15       1.0  0.13255  0.42558  0.68218  1.0000
  C   C16       1.0  0.9529899999999998  0.01965  0.70134  1.0000
  C   C17       1.0  0.09308  0.06693  0.7046800000000001  1.0000
  C   C18       1.0  0.03785  0.15688999999999997  0.7714900000000001  1.0000
  C   C19       1.0  0.04249  0.16705  0.8319500000000001  1.0000
  C   C20       1.0  0.13949  0.07536999999999999  0.81506  1.0000
  C   C21       1.0  0.54339  0.70183  0.4772600000000001  1.0000
  C   C22       1.0  0.40659  0.70513  0.42899000000000004  1.0000
  C   C23       1.0  0.46676  0.77357  0.34102000000000005  1.0000
  C   C24       1.0  0.4621699999999999  0.8342399999999999  0.33220000000000005  1.0000
  C   C25       1.0  0.3592  0.81554  0.42258  1.0000
  C   C26       1.0  0.5427299999999999  0.79826  0.01928  1.0000
  C   C27       1.0  0.40623  0.79453  0.06732000000000002  1.0000
  C   C28       1.0  0.4603299999999999  0.72732  0.15662  1.0000
  C   C29       1.0  0.45454  0.6668  0.16622  1.0000
  C   C30       1.0  0.36059  0.68379  0.07406  1.0000
  C   C31       1.0  0.05267  0.51958  0.20419000000000004  1.0000
  C   C32       1.0  0.9165199999999998  0.56754  0.2076  1.0000
  C   C33       1.0  0.9717399999999998  0.65671  0.27586000000000005  1.0000
  C   C34       1.0  0.9642199999999997  0.66626  0.33638000000000007  1.0000
  C   C35       1.0  0.8674799999999998  0.5743799999999999  0.31776  1.0000
  C   C36       1.0  0.04710999999999999  0.9803199999999997  0.29862  1.0000
  C   C37       1.0  0.90697  0.9330599999999999  0.29529  1.0000
  C   C38       1.0  0.96199  0.8431  0.22848  1.0000
  C   C39       1.0  0.95733  0.8329399999999999  0.16802000000000003  1.0000
  C   C40       1.0  0.8605399999999997  0.9246599999999999  0.18492  1.0000
  S   S1        1.0  0.35658  0.44884  0.41959  1.0000
  S   S2        1.0  0.0225  0.34591  0.38654  1.0000
  S   S3        1.0  0.3516999999999999  0.04915  0.08193  1.0000
  S   S4        1.0  0.02198  0.15182  0.1149  1.0000
  S   S5        1.0  0.8475999999999998  0.58091  0.9494700000000001  1.0000
  S   S6        1.0  0.5147199999999997  0.61457  0.84711  1.0000
  S   S7        1.0  0.84256  0.91955  0.54892  1.0000
  S   S8        1.0  0.51295  0.88444  0.6515900000000001  1.0000
  S   S9        1.0  0.64347  0.55117  0.58035  1.0000
  S   S10       1.0  0.97757  0.65406  0.6134800000000001  1.0000
  S   S11       1.0  0.6482999999999998  0.9509399999999999  0.9180600000000002  1.0000
  S   S12       1.0  0.97803  0.84826  0.88507  1.0000
  S   S13       1.0  0.15251  0.41915  0.05026  1.0000
  S   S14       1.0  0.48662  0.38575  0.15201000000000003  1.0000
  S   S15       1.0  0.15732  0.08052  0.45108  1.0000
  S   S16       1.0  0.48702  0.11546999999999999  0.3484  1.0000
  N   N1        1.0  0.5987099999999995  0.23727  0.60252  1.0000
  N   N2        1.0  0.6051299999999997  0.14086  0.61654  1.0000
  N   N3        1.0  0.59955  0.26289  0.9007800000000001  1.0000
  N   N4        1.0  0.60831  0.35907  0.88548  1.0000
  N   N5        1.0  0.09011999999999998  0.40059  0.7348400000000002  1.0000
  N   N6        1.0  0.10104  0.38542  0.63872  1.0000
  N   N7        1.0  0.09959  0.09967  0.7618000000000001  1.0000
  N   N8        1.0  0.10637999999999997  0.11583999999999998  0.8578700000000001  1.0000
  N   N9        1.0  0.4013199999999999  0.7627399999999999  0.39746  1.0000
  N   N10       1.0  0.39477  0.85915  0.38342000000000004  1.0000
  N   N11       1.0  0.40049  0.7370899999999999  0.0991  1.0000
  N   N12       1.0  0.3919  0.64089  0.11437  1.0000
  N   N13       1.0  0.90993  0.59938  0.26510000000000006  1.0000
  N   N14       1.0  0.89897  0.61454  0.36122000000000004  1.0000
  N   N15       1.0  0.90038  0.90033  0.23817  1.0000
  N   N16       1.0  0.89358  0.88417  0.1421  1.0000
  O   O1        1.0  0.0861  0.40814  0.51527  1.0000
  O   O2        1.0  0.4071799999999999  0.35926  0.51843  1.0000
  O   O3        1.0  0.14214999999999994  0.28531  0.49669  1.0000
  O   O4        1.0  0.38338  0.30561  0.4069  1.0000
  O   O5        1.0  0.97483  0.48477  0.40341  1.0000
  O   O6        1.0  0.55805  0.21435999999999997  0.43644000000000005  1.0000
  O   O7        1.0  0.29256  0.18727  0.5119  1.0000
  O   O8        1.0  0.27551999999999993  0.3788999999999999  0.29395  1.0000
  O   O9        1.0  0.69079  0.31795  0.43604  1.0000
  O   O10       1.0  0.22511  0.25084  0.60327  1.0000
  O   O11       1.0  0.0843  0.09138  0.9848800000000001  1.0000
  O   O12       1.0  0.40778  0.14041  0.9849400000000001  1.0000
  O   O13       1.0  0.14308  0.21331  0.00613  1.0000
  O   O14       1.0  0.3835099999999999  0.19633999999999993  0.09653000000000002  1.0000
  O   O15       1.0  0.96674  0.013110000000000002  0.09896  1.0000
  O   O16       1.0  0.55803  0.28799  0.0638  1.0000
  O   O17       1.0  0.29156  0.3123099999999999  0.98856  1.0000
  O   O18       1.0  0.2755799999999999  0.11808999999999999  0.20661000000000004  1.0000
  O   O19       1.0  0.6906399999999998  0.18513  0.06959  1.0000
  O   O20       1.0  0.22571  0.24595999999999996  0.8988400000000002  1.0000
  O   O21       1.0  0.57602  0.48483  0.9058100000000001  1.0000
  O   O22       1.0  0.8994  0.48477  0.8571000000000001  1.0000
  O   O23       1.0  0.6340199999999998  0.50596  0.7842700000000001  1.0000
  O   O24       1.0  0.87596  0.5964100000000001  0.8035000000000001  1.0000
  O   O25       1.0  0.46598  0.59687  0.9851  1.0000
  O   O26       1.0  0.04930999999999999  0.56644  0.71178  1.0000
  O   O27       1.0  0.78307  0.49079  0.68559  1.0000
  O   O28       1.0  0.76765  0.7062399999999999  0.8818400000000001  1.0000
  O   O29       1.0  0.18289  0.56728  0.81489  1.0000
  O   O30       1.0  0.7157599999999998  0.39923999999999993  0.74821  1.0000
  O   O31       1.0  0.5753899999999997  0.01513  0.59377  1.0000
  O   O32       1.0  0.9005099999999998  0.01542  0.6404  1.0000
  O   O33       1.0  0.64039  0.9939699999999999  0.7148  1.0000
  O   O34       1.0  0.87456  0.9036  0.69414  1.0000
  O   O35       1.0  0.45918999999999993  0.9004399999999999  0.51292  1.0000
  O   O36       1.0  0.0504  0.93564  0.7858900000000001  1.0000
  O   O37       1.0  0.79149  0.012099999999999998  0.8126100000000002  1.0000
  O   O38       1.0  0.76737  0.79376  0.6178  1.0000
  O   O39       1.0  0.18223  0.93042  0.6826600000000002  1.0000
  O   O40       1.0  0.7251  0.10199  0.74813  1.0000
  O   O41       1.0  0.9143899999999998  0.5919399999999999  0.48474  1.0000
  O   O42       1.0  0.59291  0.64074  0.48157000000000005  1.0000
  O   O43       1.0  0.8579  0.7147099999999998  0.50331  1.0000
  O   O44       1.0  0.6166699999999998  0.6943999999999999  0.5931  1.0000
  O   O45       1.0  0.02526  0.5152  0.59659  1.0000
  O   O46       1.0  0.44198  0.7856399999999998  0.56354  1.0000
  O   O47       1.0  0.7074499999999999  0.8127399999999999  0.4880800000000001  1.0000
  O   O48       1.0  0.72448  0.62108  0.7059800000000002  1.0000
  O   O49       1.0  0.30926  0.68205  0.56395  1.0000
  O   O50       1.0  0.7749  0.7491499999999999  0.39672  1.0000
  O   O51       1.0  0.9158  0.90866  0.0151  1.0000
  O   O52       1.0  0.59221  0.85967  0.015040000000000001  1.0000
  O   O53       1.0  0.85692  0.78679  0.9938500000000001  1.0000
  O   O54       1.0  0.6165199999999998  0.80398  0.9034700000000002  1.0000
  O   O55       1.0  0.03329000000000001  0.98702  0.9009500000000003  1.0000
  O   O56       1.0  0.44222  0.71215  0.9360400000000001  1.0000
  O   O57       1.0  0.70834  0.68763  0.01125  1.0000
  O   O58       1.0  0.72442  0.88193  0.7933  1.0000
  O   O59       1.0  0.30921  0.81489  0.93043  1.0000
  O   O60       1.0  0.7742  0.75396  0.10099  1.0000
  O   O61       1.0  0.4240899999999999  0.5154  0.09416000000000001  1.0000
  O   O62       1.0  0.10072  0.51523  0.14286000000000001  1.0000
  O   O63       1.0  0.36608  0.4939299999999999  0.21567  1.0000
  O   O64       1.0  0.12423  0.40362  0.19622000000000003  1.0000
  O   O65       1.0  0.53369  0.40312999999999993  0.01367  1.0000
  O   O66       1.0  0.9510699999999997  0.43353  0.2881  1.0000
  O   O67       1.0  0.21711  0.50924  0.31436  1.0000
  O   O68       1.0  0.23241999999999996  0.29395999999999994  0.11809000000000003  1.0000
  O   O69       1.0  0.81724  0.4327  0.18504  1.0000
  O   O70       1.0  0.28432  0.60074  0.25167  1.0000
  O   O71       1.0  0.42471  0.9848  0.40606000000000003  1.0000
  O   O72       1.0  0.09945  0.98457  0.35958  1.0000
  O   O73       1.0  0.3597  0.00593  0.28519  1.0000
  O   O74       1.0  0.12551  0.09640999999999998  0.30584000000000006  1.0000
  O   O75       1.0  0.54082  0.09956  0.48704  1.0000
  O   O76       1.0  0.94963  0.06438  0.21407  1.0000
  O   O77       1.0  0.20851000000000003  0.98806  0.18737  1.0000
  O   O78       1.0  0.23267  0.20624999999999993  0.3822  1.0000
  O   O79       1.0  0.81787  0.06957  0.31732  1.0000
  O   O80       1.0  0.27498  0.8979799999999999  0.25143000000000004  1.0000
