data_image0
_chemical_formula_structural       Cd16H64C128N64O32
_chemical_formula_sum              "Cd16 H64 C128 N64 O32"
_cell_length_a       12.49421
_cell_length_b       16.492260000000005
_cell_length_c       21.58913
_cell_angle_alpha    89.95598
_cell_angle_beta     90.97076
_cell_angle_gamma    90.02502

_space_group_name_H-M_alt    "P 1"
_space_group_IT_number       1

loop_
  _space_group_symop_operation_xyz
  'x, y, z'

loop_
  _atom_site_type_symbol
  _atom_site_label
  _atom_site_symmetry_multiplicity
  _atom_site_fract_x
  _atom_site_fract_y
  _atom_site_fract_z
  _atom_site_occupancy
  Cd  Cd1       1.0  0.47023  0.94497  0.73385  1.0000
  Cd  Cd2       1.0  0.23192000000000002  0.8296299999999998  0.69389  1.0000
  Cd  Cd3       1.0  0.73207  0.7935199999999998  0.73261  1.0000
  Cd  Cd4       1.0  0.48092  0.82719  0.20683  1.0000
  Cd  Cd5       1.0  0.029739999999999996  0.44553  0.76706  1.0000
  Cd  Cd6       1.0  0.26764  0.33055  0.80625  1.0000
  Cd  Cd7       1.0  0.76806  0.2941399999999999  0.76711  1.0000
  Cd  Cd8       1.0  0.01971  0.32676  0.29289999999999994  1.0000
  Cd  Cd9       1.0  0.52978  0.055029999999999996  0.26615  1.0000
  Cd  Cd10      1.0  0.7680899999999999  0.17038  0.30611  1.0000
  Cd  Cd11      1.0  0.26793  0.20648  0.26739  1.0000
  Cd  Cd12      1.0  0.51909  0.17281  0.79317  1.0000
  Cd  Cd13      1.0  0.97027  0.55448  0.23294  1.0000
  Cd  Cd14      1.0  0.73236  0.66945  0.19375  1.0000
  Cd  Cd15      1.0  0.23195  0.7058599999999998  0.23288999999999999  1.0000
  Cd  Cd16      1.0  0.9803  0.6732499999999998  0.7071  1.0000
  H   H1        1.0  0.7366800000000001  0.40529  0.62488  1.0000
  H   H2        1.0  0.57746  0.44841  0.56102  1.0000
  H   H3        1.0  0.4782  0.5734099999999998  0.5882099999999999  1.0000
  H   H4        1.0  0.7021800000000001  0.61687  0.7388299999999999  1.0000
  H   H5        1.0  0.38167  0.87646  0.9496599999999998  1.0000
  H   H6        1.0  0.07185  0.78837  0.0031699999999999996  1.0000
  H   H7        1.0  0.0002300000000000002  0.8170299999999998  0.89725  1.0000
  H   H8        1.0  0.11973999999999997  0.87407  0.8172299999999999  1.0000
  H   H9        1.0  0.20593  0.00203  0.7472  1.0000
  H   H10       1.0  0.93837  0.07935  0.63282  1.0000
  H   H11       1.0  0.02138  0.21613  0.62276  1.0000
  H   H12       1.0  0.19748999999999997  0.24421  0.67442  1.0000
  H   H13       1.0  0.7007700000000001  0.23829999999999996  0.54248  1.0000
  H   H14       1.0  0.58694  0.18141  0.45625  1.0000
  H   H15       1.0  0.44095  0.08383  0.47969999999999996  1.0000
  H   H16       1.0  0.52563  0.09662999999999997  0.67325  1.0000
  H   H17       1.0  0.76456  0.90468  0.8761099999999999  1.0000
  H   H18       1.0  0.92403  0.9482599999999998  0.93953  1.0000
  H   H19       1.0  0.02259  0.07350999999999998  0.9121  1.0000
  H   H20       1.0  0.7974  0.11657  0.7619999999999999  1.0000
  H   H21       1.0  0.11634000000000001  0.3765599999999999  0.5500099999999999  1.0000
  H   H22       1.0  0.42700000000000005  0.28904  0.49763  1.0000
  H   H23       1.0  0.49755999999999995  0.3179799999999999  0.6037499999999999  1.0000
  H   H24       1.0  0.3770299999999999  0.37476  0.68319  1.0000
  H   H25       1.0  0.29473  0.50139  0.75263  1.0000
  H   H26       1.0  0.56154  0.58025  0.8670399999999999  1.0000
  H   H27       1.0  0.47753  0.71651  0.87663  1.0000
  H   H28       1.0  0.30128  0.7437  0.82516  1.0000
  H   H29       1.0  0.79764  0.7369999999999998  0.9574199999999999  1.0000
  H   H30       1.0  0.91275  0.68199  0.04376  1.0000
  H   H31       1.0  0.05931  0.5848499999999998  0.02071  1.0000
  H   H32       1.0  0.97401  0.5958699999999998  0.8271399999999998  1.0000
  H   H33       1.0  0.26333  0.5947099999999997  0.37512  1.0000
  H   H34       1.0  0.42255  0.5516  0.43898  1.0000
  H   H35       1.0  0.52181  0.4265899999999999  0.41179  1.0000
  H   H36       1.0  0.29783  0.38313  0.26117  1.0000
  H   H37       1.0  0.61834  0.12354  0.05034  1.0000
  H   H38       1.0  0.92815  0.21164  0.9968299999999999  1.0000
  H   H39       1.0  0.99977  0.18298  0.10274999999999997  1.0000
  H   H40       1.0  0.88026  0.12593  0.18277  1.0000
  H   H41       1.0  0.79407  0.9979699999999999  0.2528  1.0000
  H   H42       1.0  0.06163999999999999  0.92065  0.36717999999999995  1.0000
  H   H43       1.0  0.97862  0.78388  0.37723999999999996  1.0000
  H   H44       1.0  0.80252  0.7558  0.32558  1.0000
  H   H45       1.0  0.29924  0.7617  0.4575199999999999  1.0000
  H   H46       1.0  0.41307  0.8185899999999998  0.54375  1.0000
  H   H47       1.0  0.55906  0.9161799999999998  0.5203  1.0000
  H   H48       1.0  0.47438  0.90337  0.32675  1.0000
  H   H49       1.0  0.23545  0.09531999999999997  0.12388999999999999  1.0000
  H   H50       1.0  0.07598  0.05174  0.06047  1.0000
  H   H51       1.0  0.97742  0.9265  0.0879  1.0000
  H   H52       1.0  0.20261  0.8834399999999999  0.23799999999999996  1.0000
  H   H53       1.0  0.88366  0.62344  0.44999  1.0000
  H   H54       1.0  0.57301  0.7109599999999998  0.5023699999999999  1.0000
  H   H55       1.0  0.50245  0.68203  0.39625  1.0000
  H   H56       1.0  0.62298  0.62524  0.3168099999999999  1.0000
  H   H57       1.0  0.70528  0.49860999999999994  0.24736999999999998  1.0000
  H   H58       1.0  0.43847  0.41976  0.13296  1.0000
  H   H59       1.0  0.52248  0.2835  0.12337  1.0000
  H   H60       1.0  0.6987300000000001  0.25631  0.17484  1.0000
  H   H61       1.0  0.20237  0.263  0.04258  1.0000
  H   H62       1.0  0.08725  0.31802  0.95624  1.0000
  H   H63       1.0  0.9407  0.41515999999999986  0.97929  1.0000
  H   H64       1.0  0.025999999999999995  0.4041299999999999  0.17286  1.0000
  C   C1        1.0  0.82849  0.4866599999999999  0.7191999999999998  1.0000
  C   C2        1.0  0.7295499999999999  0.5099199999999998  0.68442  1.0000
  C   C3        1.0  0.69352  0.46081  0.6353899999999999  1.0000
  C   C4        1.0  0.60393  0.48474  0.60038  1.0000
  C   C5        1.0  0.54819  0.5550399999999998  0.61539  1.0000
  C   C6        1.0  0.58257  0.60365  0.6655299999999998  1.0000
  C   C7        1.0  0.52221  0.67751  0.67955  1.0000
  C   C8        1.0  0.67436  0.58101  0.6995199999999999  1.0000
  C   C9        1.0  0.33478  0.90419  0.8304299999999999  1.0000
  C   C10       1.0  0.25851  0.8777799999999998  0.8785599999999999  1.0000
  C   C11       1.0  0.29804  0.86363  0.93874  1.0000
  C   C12       1.0  0.23073  0.83145  0.98372  1.0000
  C   C13       1.0  0.2712  0.81355  0.04602  1.0000
  C   C14       1.0  0.12319  0.81451  0.96825  1.0000
  C   C15       1.0  0.08346999999999997  0.83025  0.9087199999999999  1.0000
  C   C16       1.0  0.15053  0.8619999999999998  0.86372  1.0000
  C   C17       1.0  0.3139  0.14354  0.74616  1.0000
  C   C18       1.0  0.21138  0.12492999999999999  0.71397  1.0000
  C   C19       1.0  0.16563  0.04770999999999999  0.719  1.0000
  C   C20       1.0  0.06724  0.03126  0.68968  1.0000
  C   C21       1.0  0.013899999999999994  0.9526699999999998  0.69683  1.0000
  C   C22       1.0  0.015000000000000001  0.09255  0.65529  1.0000
  C   C23       1.0  0.06154  0.16909  0.64977  1.0000
  C   C24       1.0  0.15945  0.1854  0.6790599999999999  1.0000
  C   C25       1.0  0.67817  0.21165  0.6652799999999999  1.0000
  C   C26       1.0  0.6181  0.17212  0.6132899999999999  1.0000
  C   C27       1.0  0.63713  0.19511999999999993  0.55178  1.0000
  C   C28       1.0  0.57328  0.1633  0.50395  1.0000
  C   C29       1.0  0.49202  0.10793  0.51663  1.0000
  C   C30       1.0  0.47548  0.08170999999999998  0.57779  1.0000
  C   C31       1.0  0.3922  0.021559999999999992  0.58993  1.0000
  C   C32       1.0  0.53854  0.11476  0.62566  1.0000
  C   C33       1.0  0.67238  0.9865399999999999  0.7812299999999999  1.0000
  C   C34       1.0  0.77088  0.00965  0.81644  1.0000
  C   C35       1.0  0.8072800000000001  0.96042  0.8654  1.0000
  C   C36       1.0  0.8970500000000001  0.9845099999999999  0.9001999999999999  1.0000
  C   C37       1.0  0.95247  0.05499  0.8850999999999998  1.0000
  C   C38       1.0  0.91765  0.10365  0.83506  1.0000
  C   C39       1.0  0.9777  0.17763  0.8209599999999999  1.0000
  C   C40       1.0  0.82573  0.08088  0.8013099999999999  1.0000
  C   C41       1.0  0.16266  0.40438  0.6696  1.0000
  C   C42       1.0  0.23894  0.37809  0.62151  1.0000
  C   C43       1.0  0.19991  0.36388  0.56126  1.0000
  C   C44       1.0  0.26786  0.33193999999999996  0.51653  1.0000
  C   C45       1.0  0.22813  0.3140499999999999  0.45409  1.0000
  C   C46       1.0  0.37534  0.3152199999999999  0.5323399999999999  1.0000
  C   C47       1.0  0.41443  0.33101  0.59194  1.0000
  C   C48       1.0  0.34682  0.36261  0.63664  1.0000
  C   C49       1.0  0.18482  0.6427299999999998  0.75386  1.0000
  C   C50       1.0  0.28776  0.62431  0.7858099999999999  1.0000
  C   C51       1.0  0.33437000000000006  0.5473599999999997  0.78083  1.0000
  C   C52       1.0  0.43296  0.53139  0.81017  1.0000
  C   C53       1.0  0.48643  0.4528699999999999  0.8031899999999998  1.0000
  C   C54       1.0  0.48486  0.5929299999999997  0.8444199999999997  1.0000
  C   C55       1.0  0.43769  0.6692199999999998  0.84975  1.0000
  C   C56       1.0  0.33954  0.6849999999999998  0.82055  1.0000
  C   C57       1.0  0.82012  0.7101599999999999  0.83492  1.0000
  C   C58       1.0  0.88078  0.67101  0.88685  1.0000
  C   C59       1.0  0.8617500000000001  0.6942599999999998  0.9482699999999998  1.0000
  C   C60       1.0  0.9262  0.66335  0.99618  1.0000
  C   C61       1.0  0.007810000000000003  0.6082899999999998  0.98372  1.0000
  C   C62       1.0  0.024290000000000003  0.5817099999999997  0.9226699999999998  1.0000
  C   C63       1.0  0.10787  0.52181  0.91072  1.0000
  C   C64       1.0  0.9608799999999998  0.61413  0.8746599999999999  1.0000
  C   C65       1.0  0.17151  0.51334  0.2808  1.0000
  C   C66       1.0  0.27046  0.49008999999999997  0.31558  1.0000
  C   C67       1.0  0.30649  0.5391899999999997  0.36460999999999993  1.0000
  C   C68       1.0  0.39608  0.51527  0.39962  1.0000
  C   C69       1.0  0.45182  0.4449699999999999  0.38461  1.0000
  C   C70       1.0  0.41743  0.3963599999999999  0.33447  1.0000
  C   C71       1.0  0.47780000000000006  0.32248999999999994  0.32045  1.0000
  C   C72       1.0  0.32565  0.4189999999999999  0.30047999999999997  1.0000
  C   C73       1.0  0.66523  0.09582  0.16956999999999997  1.0000
  C   C74       1.0  0.7415  0.12222  0.12144  1.0000
  C   C75       1.0  0.70197  0.13637  0.061259999999999995  1.0000
  C   C76       1.0  0.76928  0.16855  0.016279999999999996  1.0000
  C   C77       1.0  0.7288  0.18644999999999998  0.9539799999999999  1.0000
  C   C78       1.0  0.8768200000000002  0.1855  0.03175  1.0000
  C   C79       1.0  0.91654  0.16976  0.09128  1.0000
  C   C80       1.0  0.84948  0.138  0.13628  1.0000
  C   C81       1.0  0.68611  0.85647  0.25384  1.0000
  C   C82       1.0  0.78863  0.8750699999999999  0.28603  1.0000
  C   C83       1.0  0.83437  0.9523  0.281  1.0000
  C   C84       1.0  0.9327700000000001  0.9687399999999998  0.31031999999999993  1.0000
  C   C85       1.0  0.98611  0.04732999999999998  0.30316999999999994  1.0000
  C   C86       1.0  0.98501  0.90745  0.34471  1.0000
  C   C87       1.0  0.9384700000000001  0.8309199999999998  0.35023  1.0000
  C   C88       1.0  0.8405499999999999  0.81461  0.32093999999999995  1.0000
  C   C89       1.0  0.32184  0.7883599999999997  0.33471999999999996  1.0000
  C   C90       1.0  0.3819000000000001  0.82788  0.38671  1.0000
  C   C91       1.0  0.36287  0.80489  0.44821999999999995  1.0000
  C   C92       1.0  0.42673  0.8367099999999997  0.49605  1.0000
  C   C93       1.0  0.50799  0.89208  0.48337  1.0000
  C   C94       1.0  0.52453  0.91829  0.42220999999999986  1.0000
  C   C95       1.0  0.60781  0.9784399999999999  0.41006999999999993  1.0000
  C   C96       1.0  0.46147  0.8852399999999998  0.37434  1.0000
  C   C97       1.0  0.32763  0.013459999999999996  0.21877  1.0000
  C   C98       1.0  0.22913  0.99035  0.18356  1.0000
  C   C99       1.0  0.19273000000000004  0.03959  0.1346  1.0000
  C   C100      1.0  0.10296  0.015489999999999999  0.09979999999999999  1.0000
  C   C101      1.0  0.04754  0.94502  0.1149  1.0000
  C   C102      1.0  0.08236  0.89636  0.16493999999999998  1.0000
  C   C103      1.0  0.022300000000000004  0.82237  0.17903999999999998  1.0000
  C   C104      1.0  0.17427000000000004  0.9191199999999998  0.19869  1.0000
  C   C105      1.0  0.83735  0.59563  0.33039999999999997  1.0000
  C   C106      1.0  0.76106  0.62192  0.37848  1.0000
  C   C107      1.0  0.80009  0.6361199999999999  0.43874  1.0000
  C   C108      1.0  0.73215  0.66807  0.48347  1.0000
  C   C109      1.0  0.77188  0.68595  0.5459099999999999  1.0000
  C   C110      1.0  0.62467  0.6847799999999998  0.46765999999999996  1.0000
  C   C111      1.0  0.58558  0.66899  0.40806  1.0000
  C   C112      1.0  0.6531900000000002  0.63739  0.36336  1.0000
  C   C113      1.0  0.81518  0.35726999999999987  0.24613999999999997  1.0000
  C   C114      1.0  0.71225  0.3757  0.21418999999999996  1.0000
  C   C115      1.0  0.66564  0.45264  0.21916999999999998  1.0000
  C   C116      1.0  0.56705  0.46861999999999987  0.18983  1.0000
  C   C117      1.0  0.51358  0.54713  0.19681  1.0000
  C   C118      1.0  0.51515  0.4070699999999999  0.15557999999999997  1.0000
  C   C119      1.0  0.56232  0.3307799999999999  0.15025  1.0000
  C   C120      1.0  0.66047  0.315  0.17945  1.0000
  C   C121      1.0  0.17988999999999997  0.28985  0.16508  1.0000
  C   C122      1.0  0.11923  0.3289999999999999  0.11314  1.0000
  C   C123      1.0  0.13826  0.30575  0.05173  1.0000
  C   C124      1.0  0.07381  0.33666  0.00381  1.0000
  C   C125      1.0  0.9922  0.3917199999999999  0.016279999999999996  1.0000
  C   C126      1.0  0.97572  0.4182899999999999  0.07733  1.0000
  C   C127      1.0  0.8921400000000002  0.4782  0.08928  1.0000
  C   C128      1.0  0.03913  0.38587  0.12534  1.0000
  N   N1        1.0  0.56122  0.74636  0.70633  1.0000
  N   N2        1.0  0.47923  0.7985  0.70773  1.0000
  N   N3        1.0  0.39385000000000003  0.76208  0.68298  1.0000
  N   N4        1.0  0.41742  0.6868499999999997  0.66499  1.0000
  N   N5        1.0  0.36565  0.8399399999999998  0.06998  1.0000
  N   N6        1.0  0.36816  0.8091  0.12700999999999998  1.0000
  N   N7        1.0  0.27897  0.7658099999999998  0.13724  1.0000
  N   N8        1.0  0.21682  0.76765  0.08699  1.0000
  N   N9        1.0  0.06037  0.87813  0.69976  1.0000
  N   N10       1.0  0.98024  0.82526  0.70902  1.0000
  N   N11       1.0  0.88978  0.86664  0.71132  1.0000
  N   N12       1.0  0.9072699999999999  0.9458099999999998  0.70352  1.0000
  N   N13       1.0  0.38898  0.9698  0.63861  1.0000
  N   N14       1.0  0.29819  0.92612  0.6286  1.0000
  N   N15       1.0  0.24962  0.9499699999999998  0.57671  1.0000
  N   N16       1.0  0.30707  0.00953  0.55155  1.0000
  N   N17       1.0  0.93856  0.24637999999999996  0.79405  1.0000
  N   N18       1.0  0.02045  0.2986799999999999  0.79274  1.0000
  N   N19       1.0  0.10583  0.26246  0.81765  1.0000
  N   N20       1.0  0.08239000000000002  0.18718  0.83569  1.0000
  N   N21       1.0  0.13404  0.34056  0.42972  1.0000
  N   N22       1.0  0.13205  0.3096099999999999  0.37278  1.0000
  N   N23       1.0  0.22114999999999999  0.26615  0.36296  1.0000
  N   N24       1.0  0.28281  0.268  0.4134099999999999  1.0000
  N   N25       1.0  0.4396  0.3784399999999999  0.7999699999999997  1.0000
  N   N26       1.0  0.5194999999999999  0.3254499999999999  0.7906299999999999  1.0000
  N   N27       1.0  0.61016  0.36670999999999987  0.7885699999999999  1.0000
  N   N28       1.0  0.59306  0.44585  0.7966599999999999  1.0000
  N   N29       1.0  0.11123999999999999  0.47010999999999986  0.86209  1.0000
  N   N30       1.0  0.20216  0.42664  0.8720499999999998  1.0000
  N   N31       1.0  0.25065  0.4504899999999999  0.92396  1.0000
  N   N32       1.0  0.19302  0.50987  0.9491199999999999  1.0000
  N   N33       1.0  0.43878  0.25364  0.29367  1.0000
  N   N34       1.0  0.52078  0.20151  0.29227  1.0000
  N   N35       1.0  0.60615  0.23793  0.31701999999999997  1.0000
  N   N36       1.0  0.58259  0.3131499999999999  0.3350099999999999  1.0000
  N   N37       1.0  0.63436  0.16006  0.93002  1.0000
  N   N38       1.0  0.63185  0.1909  0.8729899999999999  1.0000
  N   N39       1.0  0.72104  0.23419  0.86276  1.0000
  N   N40       1.0  0.7831899999999999  0.23236  0.9130099999999999  1.0000
  N   N41       1.0  0.93964  0.12186999999999999  0.30024  1.0000
  N   N42       1.0  0.01977  0.17475  0.29098  1.0000
  N   N43       1.0  0.11022999999999998  0.13336  0.28867999999999994  1.0000
  N   N44       1.0  0.09274  0.0542  0.29647999999999997  1.0000
  N   N45       1.0  0.61103  0.030209999999999997  0.36138999999999993  1.0000
  N   N46       1.0  0.70182  0.07389  0.3714  1.0000
  N   N47       1.0  0.75038  0.05003  0.4232899999999999  1.0000
  N   N48       1.0  0.6929399999999999  0.99047  0.44844999999999996  1.0000
  N   N49       1.0  0.06144999999999999  0.7536299999999998  0.20594999999999997  1.0000
  N   N50       1.0  0.97956  0.70133  0.20726  1.0000
  N   N51       1.0  0.89418  0.7375399999999998  0.18235  1.0000
  N   N52       1.0  0.91762  0.81283  0.16430999999999998  1.0000
  N   N53       1.0  0.8659699999999999  0.65944  0.5702799999999999  1.0000
  N   N54       1.0  0.86796  0.6904  0.62722  1.0000
  N   N55       1.0  0.77885  0.73385  0.63704  1.0000
  N   N56       1.0  0.7172  0.732  0.58659  1.0000
  N   N57       1.0  0.5604  0.6215599999999998  0.20003  1.0000
  N   N58       1.0  0.48051  0.67455  0.20937  1.0000
  N   N59       1.0  0.38985  0.6333  0.21142999999999998  1.0000
  N   N60       1.0  0.40695  0.5541499999999998  0.20334  1.0000
  N   N61       1.0  0.88877  0.5298899999999999  0.13790999999999998  1.0000
  N   N62       1.0  0.79785  0.57337  0.12795  1.0000
  N   N63       1.0  0.74936  0.54951  0.07604  1.0000
  N   N64       1.0  0.80699  0.49014  0.050879999999999995  1.0000
  O   O1        1.0  0.9001000000000001  0.53983  0.73141  1.0000
  O   O2        1.0  0.84656  0.4129899999999999  0.73547  1.0000
  O   O3        1.0  0.42921  0.9245299999999997  0.8438499999999998  1.0000
  O   O4        1.0  0.30165999999999993  0.90468  0.7725499999999997  1.0000
  O   O5        1.0  0.38115  0.08755  0.7596999999999998  1.0000
  O   O6        1.0  0.33925  0.21751999999999994  0.7594  1.0000
  O   O7        1.0  0.6469399999999998  0.19901999999999995  0.72166  1.0000
  O   O8        1.0  0.75683  0.25773  0.65568  1.0000
  O   O9        1.0  0.60107  0.039809999999999984  0.76851  1.0000
  O   O10       1.0  0.65472  0.91281  0.7651299999999999  1.0000
  O   O11       1.0  0.0683  0.42447  0.65623  1.0000
  O   O12       1.0  0.19613  0.4050299999999999  0.7275  1.0000
  O   O13       1.0  0.11717  0.58705  0.74049  1.0000
  O   O14       1.0  0.15913  0.71675  0.7406399999999999  1.0000
  O   O15       1.0  0.8519400000000001  0.6987999999999998  0.7784599999999999  1.0000
  O   O16       1.0  0.7403599999999999  0.75485  0.8446199999999999  1.0000
  O   O17       1.0  0.0999  0.4601699999999999  0.26859  1.0000
  O   O18       1.0  0.15345  0.58702  0.26452  1.0000
  O   O19       1.0  0.5708  0.07547  0.15615  1.0000
  O   O20       1.0  0.69835  0.09533  0.22745  1.0000
  O   O21       1.0  0.61886  0.91245  0.2403  1.0000
  O   O22       1.0  0.6607600000000001  0.78249  0.2406  1.0000
  O   O23       1.0  0.35307  0.8009799999999998  0.27834  1.0000
  O   O24       1.0  0.24317  0.74227  0.34432  1.0000
  O   O25       1.0  0.3989400000000001  0.9601899999999998  0.23148999999999997  1.0000
  O   O26       1.0  0.34529000000000004  0.08719999999999997  0.23486999999999994  1.0000
  O   O27       1.0  0.9317100000000001  0.57554  0.34377  1.0000
  O   O28       1.0  0.8038799999999999  0.59497  0.2725  1.0000
  O   O29       1.0  0.88284  0.41296  0.25950999999999996  1.0000
  O   O30       1.0  0.84088  0.28325  0.25936  1.0000
  O   O31       1.0  0.14806999999999998  0.30121  0.22153999999999996  1.0000
  O   O32       1.0  0.25965  0.24514999999999998  0.15538  1.0000
