data_image0
_chemical_formula_structural       Eu8H96C168O60
_chemical_formula_sum              "Eu8 H96 C168 O60"
_cell_length_a       14.83085
_cell_length_b       15.338579999999999
_cell_length_c       23.02347
_cell_angle_alpha    83.72409
_cell_angle_beta     83.28941
_cell_angle_gamma    87.03572

_symmetry_space_group_name_H-M    'P 1'
_symmetry_Int_Tables_number       1

loop_
  _symmetry_equiv_pos_as_xyz
  'x,y,z'

loop_
  _atom_site_type_symbol
  _atom_site_label
  _atom_site_symmetry_multiplicity
  _atom_site_fract_x
  _atom_site_fract_y
  _atom_site_fract_z
  _atom_site_occupancy
  Eu  Eu1       1.0  0.18293999999999996  0.8650399999999997  0.7212700000000001  1.0000
  Eu  Eu2       1.0  0.31541  0.3394899999999999  0.76994  1.0000
  Eu  Eu3       1.0  0.20156000000000002  0.12038  0.75809  1.0000
  Eu  Eu4       1.0  0.28944  0.59771  0.76346  1.0000
  Eu  Eu5       1.0  0.81673  0.13484999999999994  0.27864  1.0000
  Eu  Eu6       1.0  0.6841699999999997  0.66037  0.23004  1.0000
  Eu  Eu7       1.0  0.79759  0.87991  0.24151  1.0000
  Eu  Eu8       1.0  0.7106899999999999  0.40249  0.23651  1.0000
  H   H1        1.0  0.10143999999999999  0.7480099999999997  0.20263000000000003  1.0000
  H   H2        1.0  0.9548899999999999  0.7387399999999997  0.63881  1.0000
  H   H3        1.0  0.08279000000000002  0.5004399999999998  0.71113  1.0000
  H   H4        1.0  0.83107  0.6511599999999999  0.60878  1.0000
  H   H5        1.0  0.9596499999999999  0.41301  0.68173  1.0000
  H   H6        1.0  0.89504  0.57054  0.18116  1.0000
  H   H7        1.0  0.012669999999999997  0.4687799999999999  0.13651  1.0000
  H   H8        1.0  0.96221  0.9242599999999997  0.13126  1.0000
  H   H9        1.0  0.14802000000000004  0.06699999999999998  0.21161  1.0000
  H   H10       1.0  0.27665  0.015989999999999997  0.14066  1.0000
  H   H11       1.0  0.08899000000000001  0.87277  0.061500000000000006  1.0000
  H   H12       1.0  0.56754  0.21265999999999996  0.2166  1.0000
  H   H13       1.0  0.42765000000000003  0.7474699999999997  0.37712000000000007  1.0000
  H   H14       1.0  0.43013  0.27481  0.17027  1.0000
  H   H15       1.0  0.13141  0.1453  0.53676  1.0000
  H   H16       1.0  0.15667999999999999  0.9208099999999996  0.88074  1.0000
  H   H17       1.0  0.46242999999999995  0.19017999999999993  0.00734  1.0000
  H   H18       1.0  0.41895  0.18299999999999997  0.9057800000000001  1.0000
  H   H19       1.0  0.1871499999999999  0.12318999999999998  0.43197  1.0000
  H   H20       1.0  0.13856  0.16529  0.9755400000000001  1.0000
  H   H21       1.0  0.17261  0.99007  0.97209  1.0000
  H   H22       1.0  0.63618  0.5713499999999998  0.79014  1.0000
  H   H23       1.0  0.48899999999999993  0.7035299999999998  0.7037000000000001  1.0000
  H   H24       1.0  0.35261  0.97886  0.59465  1.0000
  H   H25       1.0  0.60118  0.4741099999999999  0.44156  1.0000
  H   H26       1.0  0.7914899999999998  0.73265  0.4405  1.0000
  H   H27       1.0  0.80382  0.6480099999999998  0.35343  1.0000
  H   H28       1.0  0.48932  0.06630999999999994  0.34395  1.0000
  H   H29       1.0  0.18065  0.17724999999999994  0.07728  1.0000
  H   H30       1.0  0.39115  0.8025699999999999  0.5394  1.0000
  H   H31       1.0  0.51865  0.43035  0.66768  1.0000
  H   H32       1.0  0.31914  0.6964399999999997  0.94153  1.0000
  H   H33       1.0  0.41148000000000007  0.9603199999999997  0.49074  1.0000
  H   H34       1.0  0.58639  0.5609399999999998  0.52933  1.0000
  H   H35       1.0  0.6416299999999998  0.6704499999999998  0.65096  1.0000
  H   H36       1.0  0.33407  0.7654999999999997  0.03446  1.0000
  H   H37       1.0  0.3123499999999999  0.8586999999999998  0.41684  1.0000
  H   H38       1.0  0.56319  0.9797199999999998  0.12945  1.0000
  H   H39       1.0  0.42631  0.04143  0.08153  1.0000
  H   H40       1.0  0.67106  0.41905  0.60828  1.0000
  H   H41       1.0  0.6063599999999998  0.9554299999999998  0.30841  1.0000
  H   H42       1.0  0.7888799999999998  0.55329  0.73428  1.0000
  H   H43       1.0  0.16254  0.5807  0.92872  1.0000
  H   H44       1.0  0.2800999999999999  0.3642099999999999  0.0821  1.0000
  H   H45       1.0  0.54403  0.7668399999999997  0.48594  1.0000
  H   H46       1.0  0.31288000000000005  0.3418099999999999  0.9749500000000001  1.0000
  H   H47       1.0  0.22123  0.6432299999999997  0.1585  1.0000
  H   H48       1.0  0.12709  0.60312  0.03545  1.0000
  H   H49       1.0  0.89819  0.25226  0.79754  1.0000
  H   H50       1.0  0.04508000000000001  0.2611999999999999  0.36126  1.0000
  H   H51       1.0  0.9173  0.4994999999999998  0.28883  1.0000
  H   H52       1.0  0.1689  0.34877  0.39129  1.0000
  H   H53       1.0  0.04038000000000002  0.58692  0.31825  1.0000
  H   H54       1.0  0.10626999999999998  0.42831  0.81848  1.0000
  H   H55       1.0  0.98926  0.53086  0.86306  1.0000
  H   H56       1.0  0.03779  0.07561999999999999  0.8688  1.0000
  H   H57       1.0  0.85193  0.9330299999999997  0.7884  1.0000
  H   H58       1.0  0.72328  0.98407  0.85933  1.0000
  H   H59       1.0  0.9110099999999999  0.12721999999999997  0.9385300000000001  1.0000
  H   H60       1.0  0.43264999999999987  0.7871499999999998  0.7834  1.0000
  H   H61       1.0  0.57232  0.25251  0.62288  1.0000
  H   H62       1.0  0.5699  0.7252199999999998  0.82987  1.0000
  H   H63       1.0  0.86866  0.85457  0.46328  1.0000
  H   H64       1.0  0.8433  0.07934  0.11929000000000001  1.0000
  H   H65       1.0  0.53761  0.81003  0.9926  1.0000
  H   H66       1.0  0.58102  0.81686  0.09419  1.0000
  H   H67       1.0  0.8129099999999997  0.87685  0.56804  1.0000
  H   H68       1.0  0.8614899999999999  0.83432  0.024520000000000004  1.0000
  H   H69       1.0  0.82747  0.01006  0.02797  1.0000
  H   H70       1.0  0.36371  0.42837999999999987  0.20984000000000003  1.0000
  H   H71       1.0  0.51095  0.2964199999999999  0.29633  1.0000
  H   H72       1.0  0.64747  0.020909999999999995  0.40527  1.0000
  H   H73       1.0  0.3987  0.5258399999999998  0.55856  1.0000
  H   H74       1.0  0.20855000000000004  0.2672300000000001  0.5595  1.0000
  H   H75       1.0  0.19604999999999997  0.35183  0.6466  1.0000
  H   H76       1.0  0.51066  0.93366  0.65596  1.0000
  H   H77       1.0  0.81944  0.82272  0.9227500000000001  1.0000
  H   H78       1.0  0.6089699999999998  0.19745999999999997  0.46058  1.0000
  H   H79       1.0  0.48144  0.5692699999999999  0.33227  1.0000
  H   H80       1.0  0.6807599999999998  0.3036199999999999  0.05847  1.0000
  H   H81       1.0  0.58859  0.03966  0.50916  1.0000
  H   H82       1.0  0.41351999999999994  0.4391099999999999  0.47076000000000007  1.0000
  H   H83       1.0  0.35835  0.3294799999999999  0.34914  1.0000
  H   H84       1.0  0.66589  0.23454999999999995  0.96555  1.0000
  H   H85       1.0  0.68763  0.14129  0.58314  1.0000
  H   H86       1.0  0.43658  0.02042999999999999  0.87036  1.0000
  H   H87       1.0  0.5731799999999998  0.95871  0.9184500000000001  1.0000
  H   H88       1.0  0.3290600000000001  0.5808599999999998  0.3916700000000001  1.0000
  H   H89       1.0  0.3936  0.04466  0.69154  1.0000
  H   H90       1.0  0.21105000000000002  0.44669  0.26569  1.0000
  H   H91       1.0  0.8370799999999999  0.41974  0.07152  1.0000
  H   H92       1.0  0.71993  0.6357299999999999  0.91775  1.0000
  H   H93       1.0  0.45614999999999994  0.23313  0.5141  1.0000
  H   H94       1.0  0.6866900000000001  0.6583199999999998  0.02477  1.0000
  H   H95       1.0  0.7791699999999998  0.35767999999999983  0.8417300000000001  1.0000
  H   H96       1.0  0.87293  0.39697999999999983  0.96487  1.0000
  C   C1        1.0  0.08328999999999996  0.6865199999999998  0.18838  1.0000
  C   C2        1.0  0.09267  0.6763199999999998  0.7007  1.0000
  C   C3        1.0  0.024639999999999978  0.62457  0.67755  1.0000
  C   C4        1.0  0.95529  0.66752  0.64743  1.0000
  C   C5        1.0  0.027790000000000002  0.5327399999999998  0.68856  1.0000
  C   C6        1.0  0.88704  0.61949  0.63077  1.0000
  C   C7        1.0  0.9601700000000001  0.48394999999999994  0.67185  1.0000
  C   C8        1.0  0.92165  0.72742  0.22093000000000002  1.0000
  C   C9        1.0  0.99135  0.66554  0.19469  1.0000
  C   C10       1.0  0.96612  0.5872  0.17591  1.0000
  C   C11       1.0  0.03178000000000002  0.52991  0.15082  1.0000
  C   C12       1.0  0.97113  0.03136  0.21731  1.0000
  C   C13       1.0  0.047180000000000014  0.9997099999999999  0.17562  1.0000
  C   C14       1.0  0.03076999999999998  0.94494  0.13312  1.0000
  C   C15       1.0  0.13635  0.02473  0.17841  1.0000
  C   C16       1.0  0.20754  0.9967399999999997  0.13914  1.0000
  C   C17       1.0  0.10151999999999997  0.9161899999999997  0.09368  1.0000
  C   C18       1.0  0.6503900000000002  0.05360999999999997  0.2068  1.0000
  C   C19       1.0  0.57199  0.09208  0.17628  1.0000
  C   C20       1.0  0.53531  0.17559999999999995  0.1876  1.0000
  C   C21       1.0  0.58969  0.7785099999999999  0.3138  1.0000
  C   C22       1.0  0.52398  0.84436  0.34028  1.0000
  C   C23       1.0  0.4411  0.8171699999999997  0.37124  1.0000
  C   C24       1.0  0.4592799999999999  0.21025999999999995  0.16184  1.0000
  C   C25       1.0  0.70843  0.5062599999999998  0.33999  1.0000
  C   C26       1.0  0.22496  0.7601699999999999  0.85237  1.0000
  C   C27       1.0  0.43069999999999997  0.75499  0.62461  1.0000
  C   C28       1.0  0.20788999999999988  0.07587  0.63452  1.0000
  C   C29       1.0  0.23861000000000002  0.06320000000000002  0.57222  1.0000
  C   C30       1.0  0.27647  0.17239000000000002  0.93503  1.0000
  C   C31       1.0  0.19219999999999993  0.10467999999999998  0.5262  1.0000
  C   C32       1.0  0.19436  0.88642  0.91476  1.0000
  C   C33       1.0  0.3397700000000001  0.7749199999999998  0.65589  1.0000
  C   C34       1.0  0.32334  0.18327999999999994  0.047280000000000016  1.0000
  C   C35       1.0  0.3920899999999999  0.18396  0.99991  1.0000
  C   C36       1.0  0.36784  0.1795  0.94379  1.0000
  C   C37       1.0  0.22267999999999993  0.09269  0.46815  1.0000
  C   C38       1.0  0.20894999999999997  0.17063999999999996  0.9832200000000001  1.0000
  C   C39       1.0  0.689  0.6507  0.48943000000000003  1.0000
  C   C40       1.0  0.3013099999999999  0.03956999999999997  0.4557400000000001  1.0000
  C   C41       1.0  0.70318  0.5555299999999997  0.39252000000000004  1.0000
  C   C42       1.0  0.20284999999999997  0.9251999999999999  0.96574  1.0000
  C   C43       1.0  0.6441199999999999  0.5377799999999998  0.7505000000000001  1.0000
  C   C44       1.0  0.50149  0.7188699999999998  0.65627  1.0000
  C   C45       1.0  0.47578  0.5228899999999999  0.76175  1.0000
  C   C46       1.0  0.31729  0.010769999999999995  0.55892  1.0000
  C   C47       1.0  0.6418899999999997  0.5309400000000001  0.44219  1.0000
  C   C48       1.0  0.7510999999999999  0.6754899999999996  0.44079  1.0000
  C   C49       1.0  0.75736  0.6281099999999997  0.3921900000000001  1.0000
  C   C50       1.0  0.39493  0.9680299999999998  0.3817900000000001  1.0000
  C   C51       1.0  0.47701999999999994  0.9964199999999999  0.35158  1.0000
  C   C52       1.0  0.23176  0.1771  0.03937  1.0000
  C   C53       1.0  0.44641  0.7733899999999998  0.56315  1.0000
  C   C54       1.0  0.23535000000000006  0.8033199999999998  0.90642  1.0000
  C   C55       1.0  0.60047  0.71683  0.56595  1.0000
  C   C56       1.0  0.57764  0.45864  0.68118  1.0000
  C   C57       1.0  0.28715999999999997  0.7602599999999999  0.9491000000000002  1.0000
  C   C58       1.0  0.25211999999999996  0.8797899999999997  0.00863  1.0000
  C   C59       1.0  0.3496799999999999  0.99953  0.50099  1.0000
  C   C60       1.0  0.56752  0.50408  0.73164  1.0000
  C   C61       1.0  0.63381  0.57868  0.49063000000000007  1.0000
  C   C62       1.0  0.5868100000000003  0.7002699999999997  0.62716  1.0000
  C   C63       1.0  0.42082  0.16092999999999993  0.12408  1.0000
  C   C64       1.0  0.29578  0.7982799999999999  0.00032  1.0000
  C   C65       1.0  0.37676  0.8786699999999997  0.39282  1.0000
  C   C66       1.0  0.25087  0.16821  0.87489  1.0000
  C   C67       1.0  0.25834999999999997  0.44245  0.88299  1.0000
  C   C68       1.0  0.23895000000000002  0.45924999999999977  0.94567  1.0000
  C   C69       1.0  0.53339  0.04417  0.13757  1.0000
  C   C70       1.0  0.4576299999999999  0.07823999999999999  0.11111  1.0000
  C   C71       1.0  0.662  0.45127  0.64848  1.0000
  C   C72       1.0  0.7375799999999999  0.4875799999999998  0.66692  1.0000
  C   C73       1.0  0.5418599999999999  0.9341199999999997  0.33156  1.0000
  C   C74       1.0  0.18975000000000003  0.94303  0.09638000000000001  1.0000
  C   C75       1.0  0.7294  0.5285099999999998  0.71918  1.0000
  C   C76       1.0  0.18696  0.5333  0.96262  1.0000
  C   C77       1.0  0.8896899999999998  0.5283999999999999  0.64453  1.0000
  C   C78       1.0  0.2025  0.4848  0.06425  1.0000
  C   C79       1.0  0.25508  0.4108099999999999  0.048  1.0000
  C   C80       1.0  0.53096  0.7538699999999998  0.53352  1.0000
  C   C81       1.0  0.2728099999999999  0.3985999999999998  0.98893  1.0000
  C   C82       1.0  0.12286000000000001  0.5518199999999998  0.14523  1.0000
  C   C83       1.0  0.14947000000000002  0.6292899999999998  0.16386  1.0000
  C   C84       1.0  0.16764  0.5461999999999998  0.02191  1.0000
  C   C85       1.0  0.9166799999999996  0.31359  0.81184  1.0000
  C   C86       1.0  0.90741  0.3235399999999999  0.29922  1.0000
  C   C87       1.0  0.97538  0.37532  0.32243  1.0000
  C   C88       1.0  0.0447  0.3324099999999999  0.35261  1.0000
  C   C89       1.0  0.9722499999999997  0.46715  0.31143  1.0000
  C   C90       1.0  0.11296000000000002  0.3804399999999999  0.36927  1.0000
  C   C91       1.0  0.039850000000000003  0.5159599999999998  0.32813  1.0000
  C   C92       1.0  0.07686999999999998  0.27091999999999994  0.77896  1.0000
  C   C93       1.0  0.008799999999999994  0.33389999999999986  0.80533  1.0000
  C   C94       1.0  0.03508999999999998  0.41194  0.82388  1.0000
  C   C95       1.0  0.9699599999999998  0.46965999999999997  0.84898  1.0000
  C   C96       1.0  0.028729999999999988  0.9686  0.78274  1.0000
  C   C97       1.0  0.95275  0.00022999999999998396  0.8244500000000001  1.0000
  C   C98       1.0  0.9692099999999999  0.05497999999999999  0.86695  1.0000
  C   C99       1.0  0.86358  0.97527  0.8216200000000001  1.0000
  C   C100      1.0  0.7924  0.003280000000000008  0.86088  1.0000
  C   C101      1.0  0.8984699999999999  0.08376999999999998  0.9063700000000001  1.0000
  C   C102      1.0  0.34981000000000007  0.9454899999999999  0.79218  1.0000
  C   C103      1.0  0.42800000000000005  0.90796  0.82335  1.0000
  C   C104      1.0  0.4648  0.8243399999999997  0.81235  1.0000
  C   C105      1.0  0.41019999999999995  0.22146999999999997  0.6861700000000001  1.0000
  C   C106      1.0  0.47597  0.15564  0.65967  1.0000
  C   C107      1.0  0.55887  0.1828099999999999  0.62874  1.0000
  C   C108      1.0  0.54071  0.7897699999999997  0.83823  1.0000
  C   C109      1.0  0.29147999999999996  0.49358  0.66007  1.0000
  C   C110      1.0  0.77497  0.24017  0.14762  1.0000
  C   C111      1.0  0.56936  0.2450299999999999  0.37539  1.0000
  C   C112      1.0  0.7921699999999998  0.92399  0.36544000000000004  1.0000
  C   C113      1.0  0.76145  0.9366299999999997  0.42777  1.0000
  C   C114      1.0  0.7235400000000001  0.8275  0.06499  1.0000
  C   C115      1.0  0.80785  0.8952  0.4738  1.0000
  C   C116      1.0  0.80566  0.11377999999999999  0.08526  1.0000
  C   C117      1.0  0.66024  0.22501  0.34406  1.0000
  C   C118      1.0  0.6766899999999998  0.8167699999999998  0.95271  1.0000
  C   C119      1.0  0.60795  0.8160999999999998  8e-05  1.0000
  C   C120      1.0  0.63217  0.82046  0.0562  1.0000
  C   C121      1.0  0.77737  0.90727  0.53184  1.0000
  C   C122      1.0  0.7910899999999997  0.82918  0.01682  1.0000
  C   C123      1.0  0.311  0.34924  0.51064  1.0000
  C   C124      1.0  0.69873  0.9604  0.54422  1.0000
  C   C125      1.0  0.29675  0.4443  0.60757  1.0000
  C   C126      1.0  0.7971799999999998  0.07491999999999997  0.0343  1.0000
  C   C127      1.0  0.35583000000000004  0.46197  0.24948000000000006  1.0000
  C   C128      1.0  0.4985200000000001  0.28113  0.34376  1.0000
  C   C129      1.0  0.52419  0.4772399999999999  0.23817  1.0000
  C   C130      1.0  0.68275  0.9890499999999997  0.44104  1.0000
  C   C131      1.0  0.35803  0.46899  0.55791  1.0000
  C   C132      1.0  0.2489  0.3243999999999999  0.55925  1.0000
  C   C133      1.0  0.24257999999999996  0.3717399999999998  0.60787  1.0000
  C   C134      1.0  0.60505  0.03194999999999999  0.61815  1.0000
  C   C135      1.0  0.52294  0.003560000000000003  0.64834  1.0000
  C   C136      1.0  0.76831  0.8228099999999998  0.96064  1.0000
  C   C137      1.0  0.55369  0.2266299999999999  0.43685  1.0000
  C   C138      1.0  0.76462  0.19689  0.09358  1.0000
  C   C139      1.0  0.3995899999999999  0.28312  0.43412  1.0000
  C   C140      1.0  0.42238  0.54109  0.31879  1.0000
  C   C141      1.0  0.7128099999999999  0.23982999999999993  0.05088  1.0000
  C   C142      1.0  0.74788  0.12025999999999999  0.9914  1.0000
  C   C143      1.0  0.6503699999999999  0.0003899999999999911  0.4989600000000001  1.0000
  C   C144      1.0  0.43241000000000007  0.49577  0.2683  1.0000
  C   C145      1.0  0.3661399999999999  0.4212899999999998  0.50945  1.0000
  C   C146      1.0  0.41321  0.2996799999999999  0.37291  1.0000
  C   C147      1.0  0.57905  0.8392199999999997  0.87594  1.0000
  C   C148      1.0  0.7041799999999998  0.20175999999999997  0.9996800000000001  1.0000
  C   C149      1.0  0.62321  0.12131999999999994  0.60715  1.0000
  C   C150      1.0  0.74923  0.83155  0.12511  1.0000
  C   C151      1.0  0.74148  0.55811  0.11692  1.0000
  C   C152      1.0  0.76079  0.5411  0.05429  1.0000
  C   C153      1.0  0.46632  0.9559599999999999  0.86216  1.0000
  C   C154      1.0  0.54201  0.9218999999999999  0.88881  1.0000
  C   C155      1.0  0.33806  0.5485299999999997  0.35153  1.0000
  C   C156      1.0  0.26245  0.51228  0.33308  1.0000
  C   C157      1.0  0.45809999999999995  0.06588  0.66835  1.0000
  C   C158      1.0  0.8102399999999998  0.05696999999999993  0.9036400000000001  1.0000
  C   C159      1.0  0.27058  0.47129999999999994  0.28083  1.0000
  C   C160      1.0  0.8127899999999999  0.46697999999999995  0.0375  1.0000
  C   C161      1.0  0.11031999999999999  0.47153999999999996  0.35547  1.0000
  C   C162      1.0  0.79841  0.5156  0.93575  1.0000
  C   C163      1.0  0.7451199999999998  0.5892999999999998  0.9518700000000001  1.0000
  C   C164      1.0  0.46915000000000007  0.24610999999999997  0.46653000000000006  1.0000
  C   C165      1.0  0.72693  0.60154  0.01091  1.0000
  C   C166      1.0  0.8787299999999998  0.44829999999999975  0.8549  1.0000
  C   C167      1.0  0.85106  0.37116  0.8364200000000002  1.0000
  C   C168      1.0  0.8325199999999997  0.45403  0.97826  1.0000
  O   O1        1.0  0.09487000000000001  0.75839  0.68515  1.0000
  O   O2        1.0  0.14370999999999995  0.63561  0.7367000000000001  1.0000
  O   O3        1.0  0.8374  0.7073799999999998  0.22884000000000002  1.0000
  O   O4        1.0  0.94602  0.8001899999999998  0.23434000000000002  1.0000
  O   O5        1.0  0.9844299999999998  0.08448  0.25353  1.0000
  O   O6        1.0  0.89035  0.005059999999999988  0.21409  1.0000
  O   O7        1.0  0.6820000000000002  0.9774499999999998  0.19712  1.0000
  O   O8        1.0  0.68068  0.09906999999999999  0.24286000000000002  1.0000
  O   O9        1.0  0.67101  0.80033  0.29461  1.0000
  O   O10       1.0  0.5632099999999998  0.7022899999999999  0.30855000000000005  1.0000
  O   O11       1.0  0.74981  0.54193  0.29098  1.0000
  O   O12       1.0  0.67285  0.4324499999999999  0.3431  1.0000
  O   O13       1.0  0.22682000000000002  0.49659  0.84301  1.0000
  O   O14       1.0  0.22695  0.013900000000000001  0.67463  1.0000
  O   O15       1.0  0.31821999999999995  0.73818  0.70834  1.0000
  O   O16       1.0  0.16795999999999997  0.14677999999999994  0.64839  1.0000
  O   O17       1.0  0.3053899999999999  0.1993399999999999  0.83078  1.0000
  O   O18       1.0  0.17737  0.13334999999999997  0.8686200000000001  1.0000
  O   O19       1.0  0.27282  0.6908999999999998  0.84331  1.0000
  O   O20       1.0  0.28627  0.8310199999999998  0.6315  1.0000
  O   O21       1.0  0.16767  0.7951999999999998  0.8184300000000001  1.0000
  O   O22       1.0  0.30471  0.37286999999999987  0.8712800000000002  1.0000
  O   O23       1.0  0.34081  0.19555  0.10339000000000001  1.0000
  O   O24       1.0  0.68628  0.6976599999999997  0.53799  1.0000
  O   O25       1.0  0.26441  0.9157199999999999  0.06017  1.0000
  O   O26       1.0  0.32799  0.03172  0.39719000000000004  1.0000
  O   O27       1.0  0.4132  0.46721999999999997  0.7626400000000001  1.0000
  O   O28       1.0  0.45859000000000005  0.59603  0.78258  1.0000
  O   O29       1.0  0.81828  0.47977999999999993  0.63151  1.0000
  O   O30       1.0  0.19106999999999996  0.4934699999999999  0.1237  1.0000
  O   O31       1.0  0.90514  0.24148  0.31477  1.0000
  O   O32       1.0  0.85647  0.3643399999999999  0.26318  1.0000
  O   O33       1.0  0.16188000000000002  0.28874  0.77106  1.0000
  O   O34       1.0  0.050249999999999996  0.19911999999999985  0.7655300000000002  1.0000
  O   O35       1.0  0.015269999999999992  0.91552  0.74654  1.0000
  O   O36       1.0  0.10956  0.9948699999999999  0.7859  1.0000
  O   O37       1.0  0.31842  0.022359999999999963  0.8001400000000001  1.0000
  O   O38       1.0  0.31944999999999996  0.8979499999999998  0.75732  1.0000
  O   O39       1.0  0.32884  0.19971  0.70531  1.0000
  O   O40       1.0  0.43676  0.29767  0.6915  1.0000
  O   O41       1.0  0.25002  0.45794  0.70909  1.0000
  O   O42       1.0  0.3271299999999999  0.5673099999999996  0.65696  1.0000
  O   O43       1.0  0.7731499999999998  0.5045299999999998  0.15709  1.0000
  O   O44       1.0  0.7730299999999998  0.9859899999999998  0.32536  1.0000
  O   O45       1.0  0.68174  0.2616  0.29153  1.0000
  O   O46       1.0  0.83209  0.8531299999999999  0.35158  1.0000
  O   O47       1.0  0.69471  0.8005499999999998  0.16928  1.0000
  O   O48       1.0  0.8227899999999998  0.8663  0.13132  1.0000
  O   O49       1.0  0.72742  0.30975  0.15649  1.0000
  O   O50       1.0  0.71374  0.16896999999999995  0.36848000000000003  1.0000
  O   O51       1.0  0.83197  0.20486999999999997  0.18167000000000003  1.0000
  O   O52       1.0  0.6949599999999998  0.62763  0.12856  1.0000
  O   O53       1.0  0.65912  0.8045899999999999  0.8966100000000001  1.0000
  O   O54       1.0  0.3137700000000001  0.3023099999999999  0.4620700000000001  1.0000
  O   O55       1.0  0.73561  0.08428999999999999  0.9398600000000001  1.0000
  O   O56       1.0  0.67203  0.9682699999999999  0.60278  1.0000
  O   O57       1.0  0.58661  0.53303  0.23735000000000003  1.0000
  O   O58       1.0  0.54152  0.4041299999999999  0.21734000000000003  1.0000
  O   O59       1.0  0.18172999999999992  0.5202099999999997  0.36846  1.0000
  O   O60       1.0  0.81142  0.5075099999999998  0.87627  1.0000
