data_image0
_chemical_formula_structural       Zn16H132C180N12O52
_chemical_formula_sum              "Zn16 H132 C180 N12 O52"
_cell_length_a       19.41158
_cell_length_b       19.41011
_cell_length_c       25.46469
_cell_angle_alpha    67.55046
_cell_angle_beta     67.5548
_cell_angle_gamma    59.91435

_space_group_name_H-M_alt    "P 1"
_space_group_IT_number       1

loop_
  _space_group_symop_operation_xyz
  'x, y, z'

loop_
  _atom_site_type_symbol
  _atom_site_label
  _atom_site_symmetry_multiplicity
  _atom_site_fract_x
  _atom_site_fract_y
  _atom_site_fract_z
  _atom_site_occupancy
  Zn  Zn1       1.0  0.7465700000000001  0.55945  0.00525  1.0000
  Zn  Zn2       1.0  0.06283000000000002  0.13536  0.5478  1.0000
  Zn  Zn3       1.0  0.55938  0.68775  0.00491  1.0000
  Zn  Zn4       1.0  0.1352300000000002  0.2534099999999999  0.54772  1.0000
  Zn  Zn5       1.0  0.68741  0.7466  0.00489  1.0000
  Zn  Zn6       1.0  0.25372  0.06288000000000002  0.54797  1.0000
  Zn  Zn7       1.0  0.6256700000000001  0.62772  0.11924  1.0000
  Zn  Zn8       1.0  0.18778000000000003  0.18769999999999998  0.43594000000000005  1.0000
  Zn  Zn9       1.0  0.31227  0.44058  0.99505  1.0000
  Zn  Zn10      1.0  0.7465800000000002  0.8647599999999996  0.45228  1.0000
  Zn  Zn11      1.0  0.2534200000000001  0.31260999999999994  0.99509  1.0000
  Zn  Zn12      1.0  0.9371200000000001  0.74628  0.45202  1.0000
  Zn  Zn13      1.0  0.44058000000000014  0.25336999999999993  0.99478  1.0000
  Zn  Zn14      1.0  0.86465  0.93717  0.45219  1.0000
  Zn  Zn15      1.0  0.37266  0.374  0.88073  1.0000
  Zn  Zn16      1.0  0.81228  0.81223  0.56405  1.0000
  H   H1        1.0  0.83431  0.30911  0.09968000000000002  1.0000
  H   H2        1.0  0.90397  0.17431  0.16245  1.0000
  H   H3        1.0  0.84191  0.29373  0.29673  1.0000
  H   H4        1.0  0.7646200000000001  0.42649  0.23565  1.0000
  H   H5        1.0  0.87731  0.07992  0.25339  1.0000
  H   H6        1.0  0.94201  0.025190000000000004  0.30337  1.0000
  H   H7        1.0  0.98564  0.05167000000000001  0.22711  1.0000
  H   H8        1.0  0.95121  0.08531  0.45547  1.0000
  H   H9        1.0  0.88936  0.08516000000000001  0.38607  1.0000
  H   H10       1.0  0.02533000000000002  0.21117  0.24336  1.0000
  H   H11       1.0  0.08779999999999998  0.2108  0.31302  1.0000
  H   H12       1.0  0.2744  0.83124  0.6602  1.0000
  H   H13       1.0  0.2657800000000001  0.70402  0.72771  1.0000
  H   H14       1.0  0.017399999999999968  0.79613  0.71488  1.0000
  H   H15       1.0  0.02511999999999992  0.9258300000000002  0.65034  1.0000
  H   H16       1.0  0.26108  0.60167  0.7232800000000001  1.0000
  H   H17       1.0  0.20286  0.5432599999999999  0.75458  1.0000
  H   H18       1.0  0.23490000000000005  0.5652  0.8009  1.0000
  H   H19       1.0  0.9740499999999996  0.5300799999999999  0.8836600000000001  1.0000
  H   H20       1.0  0.09753999999999996  0.5356599999999999  0.8081200000000001  1.0000
  H   H21       1.0  0.01924999999999992  0.7835400000000001  0.81608  1.0000
  H   H22       1.0  0.8942299999999999  0.7768600000000001  0.89119  1.0000
  H   H23       1.0  0.30851  0.75688  0.09943  1.0000
  H   H24       1.0  0.17383000000000015  0.7588099999999998  0.1622  1.0000
  H   H25       1.0  0.29355  0.56763  0.29672  1.0000
  H   H26       1.0  0.4260600000000001  0.5738  0.23558  1.0000
  H   H27       1.0  0.07966000000000012  0.7891999999999998  0.25341  1.0000
  H   H28       1.0  0.02509000000000015  0.7291699999999998  0.30338  1.0000
  H   H29       1.0  0.051490000000000015  0.73537  0.22711  1.0000
  H   H30       1.0  0.08521000000000006  0.50783  0.45548  1.0000
  H   H31       1.0  0.08523  0.63911  0.38601  1.0000
  H   H32       1.0  0.21128000000000002  0.51955  0.2435  1.0000
  H   H33       1.0  0.21060999999999983  0.3879  0.31317  1.0000
  H   H34       1.0  0.8313700000000002  0.23464  0.65896  1.0000
  H   H35       1.0  0.7043299999999998  0.30231  0.7270800000000001  1.0000
  H   H36       1.0  0.7958199999999999  0.47151  0.71463  1.0000
  H   H37       1.0  0.92549  0.3989500000000001  0.64975  1.0000
  H   H38       1.0  0.6019000000000003  0.4135699999999999  0.7230100000000002  1.0000
  H   H39       1.0  0.5434299999999996  0.49932999999999994  0.75392  1.0000
  H   H40       1.0  0.5651900000000001  0.399  0.80054  1.0000
  H   H41       1.0  0.5307099999999998  0.61165  0.8833900000000001  1.0000
  H   H42       1.0  0.5359  0.5580799999999998  0.80803  1.0000
  H   H43       1.0  0.7839099999999998  0.38017  0.81561  1.0000
  H   H44       1.0  0.7775100000000003  0.43652999999999975  0.8907400000000001  1.0000
  H   H45       1.0  0.75568  0.83466  0.09918  1.0000
  H   H46       1.0  0.75866  0.90403  0.16179  1.0000
  H   H47       1.0  0.56762  0.84157  0.29677  1.0000
  H   H48       1.0  0.5730999999999999  0.7642499999999999  0.23589  1.0000
  H   H49       1.0  0.7892  0.8767500000000001  0.25292  1.0000
  H   H50       1.0  0.7293800000000003  0.9416299999999995  0.30282  1.0000
  H   H51       1.0  0.73556  0.98516  0.22649  1.0000
  H   H52       1.0  0.50829  0.95142  0.4551  1.0000
  H   H53       1.0  0.6396299999999999  0.88987  0.38550000000000006  1.0000
  H   H54       1.0  0.51924  0.02503999999999999  0.24333  1.0000
  H   H55       1.0  0.38768000000000014  0.08749999999999997  0.31316  1.0000
  H   H56       1.0  0.23411000000000012  0.27481  0.6596  1.0000
  H   H57       1.0  0.30236  0.26610999999999996  0.72716  1.0000
  H   H58       1.0  0.47163999999999995  0.017690000000000018  0.71461  1.0000
  H   H59       1.0  0.3987899999999999  0.025400000000000023  0.65009  1.0000
  H   H60       1.0  0.41355  0.26124  0.7228400000000001  1.0000
  H   H61       1.0  0.49933  0.2029299999999999  0.75377  1.0000
  H   H62       1.0  0.39916  0.23511999999999997  0.80041  1.0000
  H   H63       1.0  0.6114000000000002  0.9738399999999999  0.88357  1.0000
  H   H64       1.0  0.55795  0.09761  0.80802  1.0000
  H   H65       1.0  0.38052  0.019690000000000003  0.81548  1.0000
  H   H66       1.0  0.43685000000000007  0.8946400000000001  0.8908000000000001  1.0000
  H   H67       1.0  0.24319000000000005  0.6913500000000001  0.90054  1.0000
  H   H68       1.0  0.24124000000000004  0.82604  0.8378099999999999  1.0000
  H   H69       1.0  0.4324099999999999  0.70637  0.70325  1.0000
  H   H70       1.0  0.42628  0.57383  0.76435  1.0000
  H   H71       1.0  0.21083000000000005  0.92028  0.74661  1.0000
  H   H72       1.0  0.27087  0.97485  0.69663  1.0000
  H   H73       1.0  0.2646399999999998  0.94845  0.7729  1.0000
  H   H74       1.0  0.49218000000000006  0.91479  0.54452  1.0000
  H   H75       1.0  0.3609200000000001  0.91475  0.614  1.0000
  H   H76       1.0  0.48045  0.7887000000000001  0.7565  1.0000
  H   H77       1.0  0.6121000000000001  0.78937  0.68683  1.0000
  H   H78       1.0  0.7653400000000001  0.16862999999999997  0.34102  1.0000
  H   H79       1.0  0.6977  0.29568  0.27291  1.0000
  H   H80       1.0  0.52852  0.20417999999999997  0.28537  1.0000
  H   H81       1.0  0.60105  0.07450999999999999  0.35025000000000006  1.0000
  H   H82       1.0  0.5863999999999999  0.39813999999999994  0.27698  1.0000
  H   H83       1.0  0.50067  0.4565999999999999  0.24605000000000002  1.0000
  H   H84       1.0  0.6009999999999999  0.43482  0.19945  1.0000
  H   H85       1.0  0.3883499999999999  0.4693  0.11660000000000001  1.0000
  H   H86       1.0  0.44190000000000007  0.46413999999999994  0.19195  1.0000
  H   H87       1.0  0.61983  0.2161199999999999  0.18438  1.0000
  H   H88       1.0  0.5634800000000001  0.22251999999999994  0.10926000000000001  1.0000
  H   H89       1.0  0.16539000000000004  0.24431999999999998  0.90082  1.0000
  H   H90       1.0  0.09602999999999996  0.24134  0.83823  1.0000
  H   H91       1.0  0.15843999999999997  0.4323699999999999  0.7032400000000001  1.0000
  H   H92       1.0  0.23577000000000012  0.42689999999999995  0.7641  1.0000
  H   H93       1.0  0.12325999999999998  0.21077  0.74708  1.0000
  H   H94       1.0  0.058380000000000036  0.27059999999999995  0.6972  1.0000
  H   H95       1.0  0.014850000000000004  0.26441999999999993  0.77351  1.0000
  H   H96       1.0  0.04859000000000004  0.4917  0.5449  1.0000
  H   H97       1.0  0.11013999999999996  0.36036000000000007  0.61449  1.0000
  H   H98       1.0  0.9749500000000001  0.48075999999999997  0.75667  1.0000
  H   H99       1.0  0.91249  0.61232  0.68684  1.0000
  H   H100      1.0  0.7251900000000001  0.76588  0.3404  1.0000
  H   H101      1.0  0.73391  0.69764  0.27281  1.0000
  H   H102      1.0  0.9823300000000001  0.5283499999999998  0.28536  1.0000
  H   H103      1.0  0.9746200000000003  0.6011799999999999  0.3499  1.0000
  H   H104      1.0  0.73878  0.58644  0.27714  1.0000
  H   H105      1.0  0.7971100000000007  0.50064  0.24623  1.0000
  H   H106      1.0  0.7649100000000002  0.60082  0.19957  1.0000
  H   H107      1.0  0.026169999999999985  0.38856  0.11642  1.0000
  H   H108      1.0  0.9024  0.44206  0.19196  1.0000
  H   H109      1.0  0.98033  0.61949  0.18451  1.0000
  H   H110      1.0  0.10538  0.56315  0.10919  1.0000
  H   H111      1.0  0.6910599999999999  0.16554999999999997  0.9003200000000001  1.0000
  H   H112      1.0  0.82589  0.09593999999999996  0.83749  1.0000
  H   H113      1.0  0.70636  0.15804  0.70325  1.0000
  H   H114      1.0  0.57362  0.23524999999999996  0.76441  1.0000
  H   H115      1.0  0.9201200000000002  0.12267999999999993  0.7465800000000001  1.0000
  H   H116      1.0  0.97487  0.05796999999999999  0.6966  1.0000
  H   H117      1.0  0.9483899999999998  0.014309999999999977  0.7728700000000001  1.0000
  H   H118      1.0  0.91467  0.0488  0.54453  1.0000
  H   H119      1.0  0.91484  0.11065  0.61394  1.0000
  H   H120      1.0  0.7888500000000002  0.9746599999999999  0.75663  1.0000
  H   H121      1.0  0.7891900000000001  0.9121999999999999  0.68698  1.0000
  H   H122      1.0  0.16874999999999998  0.72558  0.33981  1.0000
  H   H123      1.0  0.29597  0.73421  0.27232  1.0000
  H   H124      1.0  0.20388000000000003  0.9826  0.28513  1.0000
  H   H125      1.0  0.07418000000000005  0.9748799999999999  0.34965  1.0000
  H   H126      1.0  0.39827999999999997  0.7389  0.27675  1.0000
  H   H127      1.0  0.45673  0.7971  0.24544000000000002  1.0000
  H   H128      1.0  0.43479000000000007  0.76506  0.19913  1.0000
  H   H129      1.0  0.46992  0.025909999999999992  0.11635000000000001  1.0000
  H   H130      1.0  0.46433  0.9024299999999998  0.19192000000000004  1.0000
  H   H131      1.0  0.21647000000000005  0.9807599999999999  0.18393  1.0000
  H   H132      1.0  0.22316000000000005  0.10575999999999999  0.10879000000000001  1.0000
  C   C1        1.0  0.7547899999999998  0.45819000000000004  0.12555  1.0000
  C   C2        1.0  0.79619  0.37728  0.16293  1.0000
  C   C3        1.0  0.83535  0.30506  0.1432  1.0000
  C   C4        1.0  0.8748699999999999  0.2294399999999999  0.17839  1.0000
  C   C5        1.0  0.8797200000000001  0.22421999999999995  0.23381000000000002  1.0000
  C   C6        1.0  0.84059  0.29715  0.25349  1.0000
  C   C7        1.0  0.79812  0.37133999999999984  0.21921  1.0000
  C   C8        1.0  0.9317  0.07244999999999999  0.26273  1.0000
  C   C9        1.0  0.059399999999999946  0.15212  0.42915000000000003  1.0000
  C   C10       1.0  0.02326  0.14851  0.3886800000000001  1.0000
  C   C11       1.0  0.96802  0.11216999999999999  0.4090500000000001  1.0000
  C   C12       1.0  0.93372  0.11142999999999999  0.37025  1.0000
  C   C13       1.0  0.95392  0.14766  0.31046  1.0000
  C   C14       1.0  0.009789999999999983  0.18346  0.28982  1.0000
  C   C15       1.0  0.044350000000000014  0.18351999999999996  0.32853  1.0000
  C   C16       1.0  0.1546400000000001  0.9662  0.61287  1.0000
  C   C17       1.0  0.15029000000000012  0.8880999999999999  0.65098  1.0000
  C   C18       1.0  0.21822  0.82343  0.67219  1.0000
  C   C19       1.0  0.21358000000000005  0.7511100000000002  0.70973  1.0000
  C   C20       1.0  0.14105000000000012  0.73992  0.72632  1.0000
  C   C21       1.0  0.07316000000000007  0.8042900000000001  0.70396  1.0000
  C   C22       1.0  0.07766000000000019  0.8771099999999998  0.66751  1.0000
  C   C23       1.0  0.21332000000000004  0.5898  0.7607000000000002  1.0000
  C   C24       1.0  0.85009  0.6507199999999999  0.93711  1.0000
  C   C25       1.0  0.9253099999999997  0.65335  0.89207  1.0000
  C   C26       1.0  0.9840399999999998  0.5856499999999999  0.8683900000000001  1.0000
  C   C27       1.0  0.053850000000000064  0.58922  0.82557  1.0000
  C   C28       1.0  0.06691000000000003  0.66139  0.80495  1.0000
  C   C29       1.0  0.008490000000000067  0.7287499999999999  0.82983  1.0000
  C   C30       1.0  0.9388799999999998  0.7248599999999996  0.87213  1.0000
  C   C31       1.0  0.45751  0.66147  0.12554  1.0000
  C   C32       1.0  0.37661000000000006  0.66387  0.16284  1.0000
  C   C33       1.0  0.3044600000000001  0.71644  0.143  1.0000
  C   C34       1.0  0.2289700000000001  0.7170999999999998  0.17819000000000002  1.0000
  C   C35       1.0  0.22393  0.66207  0.23369000000000004  1.0000
  C   C36       1.0  0.29686  0.60875  0.25345  1.0000
  C   C37       1.0  0.37087  0.61161  0.21918  1.0000
  C   C38       1.0  0.07223999999999997  0.73294  0.2627  1.0000
  C   C39       1.0  0.15238999999999997  0.35868  0.42915000000000003  1.0000
  C   C40       1.0  0.14848  0.4390899999999999  0.38875000000000004  1.0000
  C   C41       1.0  0.11215000000000003  0.51039  0.40909  1.0000
  C   C42       1.0  0.11142000000000012  0.5842499999999998  0.37023  1.0000
  C   C43       1.0  0.1476100000000001  0.5876299999999998  0.31045  1.0000
  C   C44       1.0  0.18342999999999998  0.5165  0.2899  1.0000
  C   C45       1.0  0.18343000000000007  0.44316  0.32864  1.0000
  C   C46       1.0  0.9659300000000001  0.26696  0.61214  1.0000
  C   C47       1.0  0.8877900000000001  0.3111899999999999  0.65014  1.0000
  C   C48       1.0  0.8234000000000001  0.2865  0.67121  1.0000
  C   C49       1.0  0.7512300000000002  0.32556  0.70902  1.0000
  C   C50       1.0  0.7399799999999999  0.39251  0.72582  1.0000
  C   C51       1.0  0.8040599999999999  0.4186399999999998  0.7035100000000001  1.0000
  C   C52       1.0  0.8767800000000002  0.37806999999999996  0.66687  1.0000
  C   C53       1.0  0.5899200000000001  0.43605  0.76031  1.0000
  C   C54       1.0  0.65127  0.56164  0.9364  1.0000
  C   C55       1.0  0.65398  0.5284799999999998  0.89161  1.0000
  C   C56       1.0  0.5861600000000002  0.5612399999999999  0.86807  1.0000
  C   C57       1.0  0.58954  0.5307  0.82536  1.0000
  C   C58       1.0  0.6617100000000002  0.46607  0.8046599999999999  1.0000
  C   C59       1.0  0.7291799999999999  0.43204999999999993  0.82944  1.0000
  C   C60       1.0  0.72543  0.46313  0.87172  1.0000
  C   C61       1.0  0.65985  0.75563  0.12544  1.0000
  C   C62       1.0  0.6627700000000001  0.7964299999999997  0.16277  1.0000
  C   C63       1.0  0.7155500000000001  0.8355399999999997  0.14284  1.0000
  C   C64       1.0  0.71673  0.87491  0.17795  1.0000
  C   C65       1.0  0.66188  0.8796599999999999  0.23348  1.0000
  C   C66       1.0  0.6085400000000002  0.8403699999999996  0.25344  1.0000
  C   C67       1.0  0.6109900000000001  0.79794  0.21927  1.0000
  C   C68       1.0  0.73302  0.9313499999999999  0.2622  1.0000
  C   C69       1.0  0.35901  0.059460000000000006  0.42914  1.0000
  C   C70       1.0  0.43926  0.023229999999999966  0.38860000000000006  1.0000
  C   C71       1.0  0.51075  0.9681399999999999  0.40875  1.0000
  C   C72       1.0  0.5845799999999998  0.93395  0.36981  1.0000
  C   C73       1.0  0.5877100000000001  0.9539199999999999  0.3101  1.0000
  C   C74       1.0  0.51635  0.009570000000000002  0.2897  1.0000
  C   C75       1.0  0.44306  0.04411000000000001  0.32854  1.0000
  C   C76       1.0  0.26638999999999996  0.15462999999999996  0.61267  1.0000
  C   C77       1.0  0.31069  0.15059  0.65059  1.0000
  C   C78       1.0  0.28609  0.21859  0.67168  1.0000
  C   C79       1.0  0.32541  0.2139  0.70925  1.0000
  C   C80       1.0  0.3924900000000001  0.14135999999999999  0.72595  1.0000
  C   C81       1.0  0.41858999999999996  0.07343999999999994  0.7036500000000001  1.0000
  C   C82       1.0  0.37784  0.07793999999999997  0.66718  1.0000
  C   C83       1.0  0.43606000000000006  0.21346999999999997  0.76018  1.0000
  C   C84       1.0  0.5614399999999998  0.85031  0.93659  1.0000
  C   C85       1.0  0.52838  0.92555  0.89173  1.0000
  C   C86       1.0  0.56112  0.98413  0.8682  1.0000
  C   C87       1.0  0.5306199999999999  0.054  0.82541  1.0000
  C   C88       1.0  0.4661200000000002  0.06715000000000002  0.80468  1.0000
  C   C89       1.0  0.43218999999999996  0.008869999999999923  0.8294100000000001  1.0000
  C   C90       1.0  0.46324999999999983  0.9392499999999999  0.8717700000000002  1.0000
  C   C91       1.0  0.33863  0.54233  0.8744200000000001  1.0000
  C   C92       1.0  0.33618000000000003  0.62325  0.83711  1.0000
  C   C93       1.0  0.28361000000000036  0.6953999999999999  0.85697  1.0000
  C   C94       1.0  0.28295  0.7709200000000002  0.8217999999999999  1.0000
  C   C95       1.0  0.3379799999999999  0.77597  0.7662900000000001  1.0000
  C   C96       1.0  0.3913  0.7030399999999999  0.7465200000000001  1.0000
  C   C97       1.0  0.38844  0.6290099999999998  0.78077  1.0000
  C   C98       1.0  0.26710000000000006  0.9276999999999999  0.73731  1.0000
  C   C99       1.0  0.6413200000000001  0.84758  0.57085  1.0000
  C   C100      1.0  0.5609200000000001  0.8514999999999999  0.61124  1.0000
  C   C101      1.0  0.4896300000000001  0.8878400000000001  0.59091  1.0000
  C   C102      1.0  0.41578  0.8885499999999998  0.62977  1.0000
  C   C103      1.0  0.41239000000000003  0.85234  0.68955  1.0000
  C   C104      1.0  0.4835200000000002  0.8165399999999998  0.7101  1.0000
  C   C105      1.0  0.5568400000000003  0.8165499999999996  0.67136  1.0000
  C   C106      1.0  0.7330399999999999  0.034069999999999996  0.38785  1.0000
  C   C107      1.0  0.6888099999999999  0.11220999999999999  0.34986  1.0000
  C   C108      1.0  0.71349  0.17660000000000003  0.32877  1.0000
  C   C109      1.0  0.67444  0.24878  0.29097  1.0000
  C   C110      1.0  0.6074900000000001  0.26004  0.27416  1.0000
  C   C111      1.0  0.5813800000000001  0.19594999999999999  0.29648  1.0000
  C   C112      1.0  0.6219399999999999  0.12321999999999998  0.33313  1.0000
  C   C113      1.0  0.56394  0.41011000000000003  0.23968  1.0000
  C   C114      1.0  0.4383599999999999  0.34873  0.06359  1.0000
  C   C115      1.0  0.47152000000000005  0.34603  0.10838  1.0000
  C   C116      1.0  0.4387499999999999  0.41385  0.13192  1.0000
  C   C117      1.0  0.4692800000000001  0.41048  0.17463  1.0000
  C   C118      1.0  0.5339100000000001  0.33831999999999995  0.19535000000000002  1.0000
  C   C119      1.0  0.5679400000000001  0.27085  0.17056  1.0000
  C   C120      1.0  0.53686  0.2746  0.12827  1.0000
  C   C121      1.0  0.24450000000000013  0.3400599999999998  0.87456  1.0000
  C   C122      1.0  0.20365000000000008  0.33721999999999985  0.8372300000000001  1.0000
  C   C123      1.0  0.16450000000000006  0.28446999999999995  0.85717  1.0000
  C   C124      1.0  0.1251299999999999  0.28329  0.8220700000000001  1.0000
  C   C125      1.0  0.12035000000000007  0.33812  0.7665299999999999  1.0000
  C   C126      1.0  0.15964000000000006  0.39145999999999975  0.7465800000000001  1.0000
  C   C127      1.0  0.20209000000000013  0.38900999999999997  0.78074  1.0000
  C   C128      1.0  0.06866999999999998  0.26696000000000003  0.73781  1.0000
  C   C129      1.0  0.9405199999999995  0.64098  0.57086  1.0000
  C   C130      1.0  0.97676  0.56073  0.6114  1.0000
  C   C131      1.0  0.03186  0.48924000000000006  0.59125  1.0000
  C   C132      1.0  0.06607000000000003  0.41539999999999994  0.63019  1.0000
  C   C133      1.0  0.04610000000000007  0.41228  0.6899  1.0000
  C   C134      1.0  0.9904400000000002  0.48364  0.7102899999999999  1.0000
  C   C135      1.0  0.9558900000000001  0.55693  0.67145  1.0000
  C   C136      1.0  0.8453699999999998  0.7336  0.38732  1.0000
  C   C137      1.0  0.8494100000000001  0.68929  0.3494  1.0000
  C   C138      1.0  0.7814100000000002  0.7139  0.32831  1.0000
  C   C139      1.0  0.78611  0.67457  0.29074  1.0000
  C   C140      1.0  0.85866  0.60749  0.27405  1.0000
  C   C141      1.0  0.92658  0.5814  0.29634  1.0000
  C   C142      1.0  0.9220800000000001  0.62214  0.33282  1.0000
  C   C143      1.0  0.78656  0.56392  0.23980000000000004  1.0000
  C   C144      1.0  0.14972000000000002  0.43854  0.0634  1.0000
  C   C145      1.0  0.07447000000000001  0.47161  0.10826  1.0000
  C   C146      1.0  0.015900000000000025  0.4388699999999999  0.13178  1.0000
  C   C147      1.0  0.9460300000000003  0.4693799999999999  0.17456  1.0000
  C   C148      1.0  0.93287  0.53389  0.19529000000000002  1.0000
  C   C149      1.0  0.99115  0.56782  0.17058  1.0000
  C   C150      1.0  0.06077  0.53675  0.12821  1.0000
  C   C151      1.0  0.542  0.24496999999999994  0.8744500000000001  1.0000
  C   C152      1.0  0.62291  0.20359  0.8371000000000001  1.0000
  C   C153      1.0  0.6951400000000001  0.16448999999999994  0.8568100000000001  1.0000
  C   C154      1.0  0.7707399999999999  0.12502999999999997  0.8215900000000002  1.0000
  C   C155      1.0  0.7759  0.12021999999999995  0.76617  1.0000
  C   C156      1.0  0.70296  0.15933  0.74649  1.0000
  C   C157      1.0  0.6288000000000001  0.20174000000000003  0.78081  1.0000
  C   C158      1.0  0.92762  0.06826999999999998  0.73725  1.0000
  C   C159      1.0  0.84786  0.9406099999999998  0.57084  1.0000
  C   C160      1.0  0.8514799999999993  0.9767400000000002  0.61132  1.0000
  C   C161      1.0  0.88783  0.031979999999999995  0.59094  1.0000
  C   C162      1.0  0.88859  0.06625999999999999  0.62974  1.0000
  C   C163      1.0  0.8524000000000002  0.046040000000000005  0.68953  1.0000
  C   C164      1.0  0.81657  0.99018  0.71017  1.0000
  C   C165      1.0  0.8164800000000002  0.95565  0.67146  1.0000
  C   C166      1.0  0.03379999999999994  0.8453700000000001  0.38713  1.0000
  C   C167      1.0  0.11188999999999988  0.8497100000000001  0.34902  1.0000
  C   C168      1.0  0.17655000000000007  0.78177  0.32782  1.0000
  C   C169      1.0  0.24886000000000003  0.78642  0.29029  1.0000
  C   C170      1.0  0.2600700000000001  0.8589399999999999  0.27369  1.0000
  C   C171      1.0  0.19571000000000008  0.9268399999999999  0.29605  1.0000
  C   C172      1.0  0.12290000000000015  0.9223499999999997  0.33249  1.0000
  C   C173      1.0  0.41017999999999993  0.78665  0.23933000000000001  1.0000
  C   C174      1.0  0.34930000000000005  0.14988  0.06289  1.0000
  C   C175      1.0  0.34667  0.07465999999999999  0.10793  1.0000
  C   C176      1.0  0.41436  0.015920000000000004  0.13163  1.0000
  C   C177      1.0  0.4107799999999999  0.9461100000000001  0.17445  1.0000
  C   C178      1.0  0.3386  0.93307  0.19506000000000004  1.0000
  C   C179      1.0  0.27126000000000006  0.9914999999999999  0.17018  1.0000
  C   C180      1.0  0.27516000000000007  0.06111  0.12786  1.0000
  N   N1        1.0  0.9176700000000001  0.14970999999999993  0.27052  1.0000
  N   N2        1.0  0.13794  0.6654799999999998  0.76258  1.0000
  N   N3        1.0  0.14955999999999997  0.66184  0.27045  1.0000
  N   N4        1.0  0.6656100000000001  0.43356  0.76228  1.0000
  N   N5        1.0  0.6618000000000003  0.91766  0.27006  1.0000
  N   N6        1.0  0.43363  0.13821  0.76227  1.0000
  N   N7        1.0  0.3381999999999999  0.85037  0.7295500000000001  1.0000
  N   N8        1.0  0.5664300000000001  0.33441  0.23771000000000003  1.0000
  N   N9        1.0  0.08236000000000003  0.33819  0.72995  1.0000
  N   N10       1.0  0.8618100000000001  0.56637  0.23771000000000003  1.0000
  N   N11       1.0  0.8503700000000001  0.08228000000000003  0.72946  1.0000
  N   N12       1.0  0.33451000000000003  0.8620399999999998  0.23743  1.0000
  O   O1        1.0  0.7073  0.51832  0.15055  1.0000
  O   O2        1.0  0.76992  0.46196999999999994  0.07121  1.0000
  O   O3        1.0  0.11580000000000004  0.17823999999999998  0.40484  1.0000
  O   O4        1.0  0.03163999999999999  0.12985000000000002  0.4844  1.0000
  O   O5        1.0  0.08685  0.026650000000000007  0.60304  1.0000
  O   O6        1.0  0.22542000000000015  0.9685099999999999  0.59281  1.0000
  O   O7        1.0  0.79761  0.7177799999999999  0.9525100000000001  1.0000
  O   O8        1.0  0.84328  0.5823099999999999  0.9569400000000001  1.0000
  O   O9        1.0  0.5172899999999999  0.62381  0.15085  1.0000
  O   O10       1.0  0.46189  0.69651  0.0711  1.0000
  O   O11       1.0  0.1784900000000001  0.30043999999999993  0.40486  1.0000
  O   O12       1.0  0.13039999999999996  0.35346000000000005  0.48437  1.0000
  O   O13       1.0  0.026279999999999963  0.28396000000000005  0.6026  1.0000
  O   O14       1.0  0.9683  0.21397999999999998  0.59203  1.0000
  O   O15       1.0  0.7179600000000004  0.53132  0.95232  1.0000
  O   O16       1.0  0.5829  0.61795  0.9554500000000001  1.0000
  O   O17       1.0  0.62203  0.7083099999999999  0.15084  1.0000
  O   O18       1.0  0.69453  0.77081  0.071  1.0000
  O   O19       1.0  0.30063  0.11570999999999997  0.40485  1.0000
  O   O20       1.0  0.35397000000000006  0.031820000000000015  0.48437  1.0000
  O   O21       1.0  0.28443  0.08674000000000001  0.60263  1.0000
  O   O22       1.0  0.21253000000000005  0.22515999999999992  0.59302  1.0000
  O   O23       1.0  0.5310400000000001  0.7981099999999999  0.95254  1.0000
  O   O24       1.0  0.6176499999999998  0.84321  0.9556500000000001  1.0000
  O   O25       1.0  0.65474  0.65519  0.03379  1.0000
  O   O26       1.0  0.15952000000000002  0.15927999999999998  0.52126  1.0000
  O   O27       1.0  0.37639  0.48249999999999993  0.84915  1.0000
  O   O28       1.0  0.3035400000000002  0.5380099999999998  0.92885  1.0000
  O   O29       1.0  0.6995599999999998  0.8215000000000001  0.59514  1.0000
  O   O30       1.0  0.6465399999999999  0.8695700000000001  0.51562  1.0000
  O   O31       1.0  0.71605  0.9737099999999999  0.39738  1.0000
  O   O32       1.0  0.78601  0.03170000000000001  0.40796999999999994  1.0000
  O   O33       1.0  0.46873  0.28201  0.04768  1.0000
  O   O34       1.0  0.38205  0.41707  0.04454  1.0000
  O   O35       1.0  0.29194000000000003  0.37774  0.84916  1.0000
  O   O36       1.0  0.22921999999999992  0.30544000000000004  0.92901  1.0000
  O   O37       1.0  0.88425  0.69936  0.59515  1.0000
  O   O38       1.0  0.9681699999999999  0.64603  0.51563  1.0000
  O   O39       1.0  0.91326  0.71558  0.39734  1.0000
  O   O40       1.0  0.77484  0.78745  0.40698  1.0000
  O   O41       1.0  0.2019299999999999  0.46893  0.04745  1.0000
  O   O42       1.0  0.15681  0.38233  0.04435  1.0000
  O   O43       1.0  0.48192  0.29234999999999994  0.8493900000000001  1.0000
  O   O44       1.0  0.5380999999999999  0.22999999999999993  0.9288000000000001  1.0000
  O   O45       1.0  0.8217200000000002  0.8842199999999997  0.59516  1.0000
  O   O46       1.0  0.87013  0.96837  0.51559  1.0000
  O   O47       1.0  0.97336  0.9131599999999996  0.39696  1.0000
  O   O48       1.0  0.031479999999999994  0.77458  0.40718  1.0000
  O   O49       1.0  0.28225  0.20239999999999997  0.0475  1.0000
  O   O50       1.0  0.41774000000000006  0.15666  0.04305  1.0000
  O   O51       1.0  0.3449200000000003  0.3451699999999998  0.96619  1.0000
  O   O52       1.0  0.8407200000000001  0.84048  0.47873  1.0000
