data_image0
_chemical_formula_structural       Cu20H80C112N32O16
_chemical_formula_sum              "Cu20 H80 C112 N32 O16"
_cell_length_a       13.1051
_cell_length_b       19.86511
_cell_length_c       20.77506
_cell_angle_alpha    90.01027
_cell_angle_beta     103.22183
_cell_angle_gamma    90.04352000000002

_symmetry_space_group_name_H-M    'P 1'
_symmetry_Int_Tables_number       1

loop_
  _symmetry_equiv_pos_as_xyz
  'x,y,z'

loop_
  _atom_site_type_symbol
  _atom_site_label
  _atom_site_symmetry_multiplicity
  _atom_site_fract_x
  _atom_site_fract_y
  _atom_site_fract_z
  _atom_site_occupancy
  Cu  Cu1       1.0  0.06074000000000005  0.4192  0.6161300000000001  1.0000
  Cu  Cu2       1.0  0.11580000000000007  0.36984  0.7328800000000001  1.0000
  Cu  Cu3       1.0  0.0036100000000000056  0.26988  0.67809  1.0000
  Cu  Cu4       1.0  0.9030199999999998  0.33896  0.58121  1.0000
  Cu  Cu5       1.0  0.57535  0.22102  0.7995300000000002  1.0000
  Cu  Cu6       1.0  0.43711  0.92063  0.8829300000000001  1.0000
  Cu  Cu7       1.0  0.38347  0.8695  0.76747  1.0000
  Cu  Cu8       1.0  0.4929  0.76747  0.8200900000000001  1.0000
  Cu  Cu9       1.0  0.59194  0.8393499999999999  0.9161400000000002  1.0000
  Cu  Cu10      1.0  0.9238500000000001  0.7202999999999999  0.7017900000000001  1.0000
  Cu  Cu11      1.0  0.93927  0.58081  0.38387  1.0000
  Cu  Cu12      1.0  0.88421  0.63016  0.26712  1.0000
  Cu  Cu13      1.0  0.9964000000000001  0.73013  0.3219100000000001  1.0000
  Cu  Cu14      1.0  0.09698999999999999  0.66104  0.41879  1.0000
  Cu  Cu15      1.0  0.4246500000000001  0.77898  0.20047000000000004  1.0000
  Cu  Cu16      1.0  0.56289  0.07938  0.11707  1.0000
  Cu  Cu17      1.0  0.61654  0.13051  0.23253000000000004  1.0000
  Cu  Cu18      1.0  0.5071  0.23253  0.17991  1.0000
  Cu  Cu19      1.0  0.4080599999999999  0.16065  0.08386000000000002  1.0000
  Cu  Cu20      1.0  0.07616  0.27971  0.29821  1.0000
  H   H1        1.0  0.23018000000000002  0.14985  0.4983100000000001  1.0000
  H   H2        1.0  0.2757599999999999  0.12021999999999998  0.61898  1.0000
  H   H3        1.0  0.41499  0.27913  0.55568  1.0000
  H   H4        1.0  0.28739  0.34257999999999994  0.46728000000000003  1.0000
  H   H5        1.0  0.66432  0.52497  0.7026800000000001  1.0000
  H   H6        1.0  0.59486  0.4084499999999999  0.67086  1.0000
  H   H7        1.0  0.76925  0.44462  0.8472100000000002  1.0000
  H   H8        1.0  0.91629  0.52642  0.84781  1.0000
  H   H9        1.0  0.11166  0.4668999999999999  0.49851  1.0000
  H   H10       1.0  0.13792999999999997  0.41334999999999994  0.4355  1.0000
  H   H11       1.0  0.039330000000000025  0.39127  0.4775500000000001  1.0000
  H   H12       1.0  0.15909000000000006  0.11490999999999998  0.7227000000000002  1.0000
  H   H13       1.0  0.26636  0.1723  0.7348  1.0000
  H   H14       1.0  0.14027  0.20098999999999997  0.7411600000000002  1.0000
  H   H15       1.0  0.6630299999999998  0.28517  0.65136  1.0000
  H   H16       1.0  0.6166299999999998  0.31524  0.56912  1.0000
  H   H17       1.0  0.74598  0.28181  0.5942600000000002  1.0000
  H   H18       1.0  0.16492000000000004  0.48241  0.8198  1.0000
  H   H19       1.0  0.0886500000000001  0.51639  0.7449900000000003  1.0000
  H   H20       1.0  0.07967999999999995  0.55264  0.82182  1.0000
  H   H21       1.0  0.26824  0.6487599999999999  0.00161  1.0000
  H   H22       1.0  0.22041000000000002  0.6190699999999999  0.8810400000000002  1.0000
  H   H23       1.0  0.08605999999999994  0.77906  0.9461  1.0000
  H   H24       1.0  0.21492999999999998  0.84254  0.03404000000000001  1.0000
  H   H25       1.0  0.83583  0.02513  0.79748  1.0000
  H   H26       1.0  0.9027199999999997  0.9081599999999999  0.82901  1.0000
  H   H27       1.0  0.73021  0.9432799999999999  0.65298  1.0000
  H   H28       1.0  0.5840999999999998  0.02554  0.65212  1.0000
  H   H29       1.0  0.38972  0.96715  0.0017  1.0000
  H   H30       1.0  0.36433  0.91356  0.06506  1.0000
  H   H31       1.0  0.4618899999999999  0.89128  0.02218  1.0000
  H   H32       1.0  0.3364099999999999  0.61279  0.77602  1.0000
  H   H33       1.0  0.22941  0.6700699999999999  0.76427  1.0000
  H   H34       1.0  0.3552599999999999  0.69887  0.7576  1.0000
  H   H35       1.0  0.83274  0.78555  0.84793  1.0000
  H   H36       1.0  0.8796100000000001  0.81552  0.9301100000000001  1.0000
  H   H37       1.0  0.75012  0.78222  0.9051300000000001  1.0000
  H   H38       1.0  0.33504  0.98279  0.68006  1.0000
  H   H39       1.0  0.41134000000000004  0.01684  0.7548700000000002  1.0000
  H   H40       1.0  0.42125  0.05256999999999999  0.67804  1.0000
  H   H41       1.0  0.76983  0.85015  0.50169  1.0000
  H   H42       1.0  0.7242399999999998  0.8797899999999998  0.38102  1.0000
  H   H43       1.0  0.58502  0.72087  0.44432  1.0000
  H   H44       1.0  0.71262  0.65742  0.53272  1.0000
  H   H45       1.0  0.33569  0.47504  0.29732  1.0000
  H   H46       1.0  0.40515  0.59155  0.32914  1.0000
  H   H47       1.0  0.23075999999999994  0.55539  0.15279000000000006  1.0000
  H   H48       1.0  0.08370999999999999  0.47358999999999996  0.15219000000000002  1.0000
  H   H49       1.0  0.8883499999999998  0.5331  0.50149  1.0000
  H   H50       1.0  0.8620799999999998  0.58665  0.5645000000000001  1.0000
  H   H51       1.0  0.9606799999999998  0.60873  0.52246  1.0000
  H   H52       1.0  0.8409199999999999  0.8851  0.2773  1.0000
  H   H53       1.0  0.7336499999999999  0.82771  0.2652  1.0000
  H   H54       1.0  0.8597399999999998  0.7990199999999998  0.25884000000000007  1.0000
  H   H55       1.0  0.33697999999999995  0.71483  0.34864  1.0000
  H   H56       1.0  0.38336999999999993  0.68477  0.43088000000000004  1.0000
  H   H57       1.0  0.25401999999999997  0.7182  0.40574  1.0000
  H   H58       1.0  0.83508  0.5175899999999999  0.18020000000000003  1.0000
  H   H59       1.0  0.9113499999999995  0.48362  0.25501  1.0000
  H   H60       1.0  0.9203199999999999  0.44737  0.17818000000000006  1.0000
  H   H61       1.0  0.73177  0.35124  0.99839  1.0000
  H   H62       1.0  0.77959  0.38094  0.11896  1.0000
  H   H63       1.0  0.9139399999999998  0.22094  0.05390000000000002  1.0000
  H   H64       1.0  0.78508  0.15746  0.96596  1.0000
  H   H65       1.0  0.16418  0.9748699999999999  0.20252000000000003  1.0000
  H   H66       1.0  0.09728000000000003  0.09183999999999999  0.17099000000000006  1.0000
  H   H67       1.0  0.2698  0.05672  0.34702  1.0000
  H   H68       1.0  0.41590999999999995  0.97447  0.34788  1.0000
  H   H69       1.0  0.61029  0.03285  0.9983000000000002  1.0000
  H   H70       1.0  0.6356699999999997  0.08644  0.93494  1.0000
  H   H71       1.0  0.5381200000000002  0.10872  0.9778300000000001  1.0000
  H   H72       1.0  0.66359  0.38721999999999995  0.22398  1.0000
  H   H73       1.0  0.7705999999999998  0.32994  0.23573000000000005  1.0000
  H   H74       1.0  0.64474  0.30113  0.2424  1.0000
  H   H75       1.0  0.16726999999999995  0.21444999999999997  0.15207000000000004  1.0000
  H   H76       1.0  0.12039999999999998  0.18449  0.06989  1.0000
  H   H77       1.0  0.24988  0.21778999999999998  0.09487000000000002  1.0000
  H   H78       1.0  0.66496  0.017209999999999996  0.31994  1.0000
  H   H79       1.0  0.58866  0.98316  0.24513  1.0000
  H   H80       1.0  0.57876  0.94743  0.3219600000000001  1.0000
  C   C1        1.0  0.24954999999999994  0.34395  0.64739  1.0000
  C   C2        1.0  0.3354899999999999  0.30765  0.63211  1.0000
  C   C3        1.0  0.34989000000000003  0.30706  0.5669700000000001  1.0000
  C   C4        1.0  0.27964  0.3423  0.51825  1.0000
  C   C5        1.0  0.19606000000000004  0.37662  0.53424  1.0000
  C   C6        1.0  0.40071  0.27166  0.6835900000000001  1.0000
  C   C7        1.0  0.11749999999999998  0.41412  0.48367000000000004  1.0000
  C   C8        1.0  0.04397999999999993  0.24219999999999997  0.55249  1.0000
  C   C9        1.0  0.10204  0.21484  0.50807  1.0000
  C   C10       1.0  0.18609  0.17053  0.53212  1.0000
  C   C11       1.0  0.21142  0.1543  0.59901  1.0000
  C   C12       1.0  0.15526999999999994  0.18292  0.64159  1.0000
  C   C13       1.0  0.5774  0.26525  0.9427800000000001  1.0000
  C   C14       1.0  0.18171000000000004  0.16690999999999998  0.7140500000000001  1.0000
  C   C15       1.0  0.86415  0.46129  0.63849  1.0000
  C   C16       1.0  0.8056599999999998  0.50827  0.6678600000000001  1.0000
  C   C17       1.0  0.70775  0.48930999999999997  0.67962  1.0000
  C   C18       1.0  0.66932  0.42510000000000003  0.66173  1.0000
  C   C19       1.0  0.7267299999999998  0.38078  0.63175  1.0000
  C   C20       1.0  0.6506299999999998  0.07297  0.8132300000000001  1.0000
  C   C21       1.0  0.6859800000000001  0.31187  0.6104800000000001  1.0000
  C   C22       1.0  0.925  0.34995  0.7691  1.0000
  C   C23       1.0  0.8388699999999998  0.36729  0.79759  1.0000
  C   C24       1.0  0.83566  0.4310999999999999  0.8267  1.0000
  C   C25       1.0  0.91732  0.47622999999999993  0.8272200000000001  1.0000
  C   C26       1.0  0.0007000000000000742  0.45785  0.7997600000000002  1.0000
  C   C27       1.0  0.75708  0.3204  0.7921300000000001  1.0000
  C   C28       1.0  0.08858  0.50506  0.79689  1.0000
  C   C29       1.0  0.2503499999999999  0.8435399999999998  0.85342  1.0000
  C   C30       1.0  0.16458  0.80736  0.86915  1.0000
  C   C31       1.0  0.1509399999999999  0.8069799999999999  0.93445  1.0000
  C   C32       1.0  0.22177999999999998  0.8422599999999999  0.9829000000000001  1.0000
  C   C33       1.0  0.30471999999999994  0.87688  0.96637  1.0000
  C   C34       1.0  0.09860999999999999  0.77132  0.81795  1.0000
  C   C35       1.0  0.38399  0.91437  0.01664  1.0000
  C   C36       1.0  0.45272999999999997  0.74094  0.9456900000000001  1.0000
  C   C37       1.0  0.3961499999999999  0.71339  0.9908500000000001  1.0000
  C   C38       1.0  0.3119299999999999  0.66906  0.96738  1.0000
  C   C39       1.0  0.28551  0.65274  0.90049  1.0000
  C   C40       1.0  0.34109999999999996  0.68086  0.8573200000000002  1.0000
  C   C41       1.0  0.9233599999999997  0.76403  0.55837  1.0000
  C   C42       1.0  0.31405  0.66476  0.78486  1.0000
  C   C43       1.0  0.63298  0.96215  0.85963  1.0000
  C   C44       1.0  0.69306  0.00897  0.83112  1.0000
  C   C45       1.0  0.7912100000000001  0.98966  0.8199900000000001  1.0000
  C   C46       1.0  0.8284399999999998  0.92528  0.8379600000000003  1.0000
  C   C47       1.0  0.7699099999999999  0.88121  0.8674400000000001  1.0000
  C   C48       1.0  0.8494799999999998  0.57185  0.68637  1.0000
  C   C49       1.0  0.8101  0.8122799999999999  0.8888800000000001  1.0000
  C   C50       1.0  0.5725399999999999  0.8489899999999999  0.7302  1.0000
  C   C51       1.0  0.65928  0.86609  0.70218  1.0000
  C   C52       1.0  0.66354  0.92994  0.67333  1.0000
  C   C53       1.0  0.58242  0.9753999999999999  0.67271  1.0000
  C   C54       1.0  0.49889  0.95754  0.70029  1.0000
  C   C55       1.0  0.74074  0.81896  0.70789  1.0000
  C   C56       1.0  0.41160000000000013  0.00519  0.7030600000000002  1.0000
  C   C57       1.0  0.7504499999999998  0.65605  0.35261  1.0000
  C   C58       1.0  0.66452  0.69235  0.36789  1.0000
  C   C59       1.0  0.6501099999999997  0.69294  0.43303  1.0000
  C   C60       1.0  0.72037  0.6577  0.48175  1.0000
  C   C61       1.0  0.80395  0.62338  0.46576  1.0000
  C   C62       1.0  0.5993  0.72834  0.3164100000000001  1.0000
  C   C63       1.0  0.8825100000000001  0.58588  0.5163300000000001  1.0000
  C   C64       1.0  0.95603  0.7578  0.4475100000000001  1.0000
  C   C65       1.0  0.8979699999999998  0.78516  0.49193000000000003  1.0000
  C   C66       1.0  0.81391  0.82947  0.46788  1.0000
  C   C67       1.0  0.7885899999999998  0.8456999999999999  0.40099000000000007  1.0000
  C   C68       1.0  0.8447299999999998  0.8170799999999999  0.35841  1.0000
  C   C69       1.0  0.4226099999999999  0.73475  0.05722  1.0000
  C   C70       1.0  0.8183  0.8330899999999999  0.28595  1.0000
  C   C71       1.0  0.13585999999999995  0.53871  0.36151  1.0000
  C   C72       1.0  0.19435  0.49172999999999994  0.33215  1.0000
  C   C73       1.0  0.29225  0.5107  0.32038000000000005  1.0000
  C   C74       1.0  0.3306799999999999  0.5749  0.33827000000000007  1.0000
  C   C75       1.0  0.27327  0.61922  0.36825000000000013  1.0000
  C   C76       1.0  0.34937999999999997  0.9270399999999999  0.18677000000000002  1.0000
  C   C77       1.0  0.31403  0.6881399999999999  0.3895200000000001  1.0000
  C   C78       1.0  0.07501000000000001  0.65005  0.23090000000000005  1.0000
  C   C79       1.0  0.16113  0.63271  0.20241  1.0000
  C   C80       1.0  0.16434999999999997  0.5689  0.1733  1.0000
  C   C81       1.0  0.08269  0.52378  0.17278  1.0000
  C   C82       1.0  0.9993  0.54216  0.20024  1.0000
  C   C83       1.0  0.24293  0.67961  0.20787000000000005  1.0000
  C   C84       1.0  0.9114299999999999  0.49493999999999994  0.20311000000000004  1.0000
  C   C85       1.0  0.7496599999999998  0.15646  0.14658  1.0000
  C   C86       1.0  0.8354299999999998  0.19264  0.13085  1.0000
  C   C87       1.0  0.8490599999999998  0.19303  0.06555  1.0000
  C   C88       1.0  0.7782299999999999  0.15774  0.017100000000000004  1.0000
  C   C89       1.0  0.6952899999999999  0.12312999999999999  0.03363000000000001  1.0000
  C   C90       1.0  0.9013899999999998  0.22868  0.18205  1.0000
  C   C91       1.0  0.6160199999999999  0.08563999999999998  0.98336  1.0000
  C   C92       1.0  0.5472699999999999  0.25907  0.05431000000000001  1.0000
  C   C93       1.0  0.60386  0.28661  0.00915  1.0000
  C   C94       1.0  0.6880799999999998  0.33095  0.03262  1.0000
  C   C95       1.0  0.7144999999999998  0.34726  0.09951  1.0000
  C   C96       1.0  0.6588999999999998  0.31914  0.14268  1.0000
  C   C97       1.0  0.07665000000000002  0.23597  0.44163  1.0000
  C   C98       1.0  0.68595  0.33525  0.21514  1.0000
  C   C99       1.0  0.3670199999999999  0.03785  0.14037  1.0000
  C   C100      1.0  0.30694999999999995  0.9910299999999999  0.16888  1.0000
  C   C101      1.0  0.20878999999999995  0.01034  0.18001000000000003  1.0000
  C   C102      1.0  0.17156  0.07473  0.16204  1.0000
  C   C103      1.0  0.23008999999999993  0.11879  0.13256  1.0000
  C   C104      1.0  0.15052  0.42815  0.31363  1.0000
  C   C105      1.0  0.18989999999999996  0.18772999999999998  0.11112  1.0000
  C   C106      1.0  0.4274599999999999  0.15102  0.26980000000000004  1.0000
  C   C107      1.0  0.34071999999999997  0.13391  0.29782000000000003  1.0000
  C   C108      1.0  0.33645999999999987  0.07006  0.32667  1.0000
  C   C109      1.0  0.4175899999999999  0.024599999999999997  0.32729  1.0000
  C   C110      1.0  0.50112  0.04247  0.29971000000000003  1.0000
  C   C111      1.0  0.25927  0.18104  0.29211  1.0000
  C   C112      1.0  0.58841  0.99482  0.29694  1.0000
  N   N1        1.0  0.45454999999999995  0.24105  0.72657  1.0000
  N   N2        1.0  0.18176000000000006  0.37745999999999996  0.5977600000000002  1.0000
  N   N3        1.0  0.55916  0.24774999999999997  0.8874000000000001  1.0000
  N   N4        1.0  0.07298999999999997  0.22586999999999996  0.61849  1.0000
  N   N5        1.0  0.6171699999999998  0.12709999999999996  0.7989700000000001  1.0000
  N   N6        1.0  0.8216299999999999  0.39922  0.61958  1.0000
  N   N7        1.0  0.68765  0.28202  0.7872  1.0000
  N   N8        1.0  0.005020000000000066  0.39523  0.7723600000000003  1.0000
  N   N9        1.0  0.04401000000000001  0.7408799999999999  0.7751300000000001  1.0000
  N   N10       1.0  0.31794999999999995  0.87778  0.9026400000000001  1.0000
  N   N11       1.0  0.9407599999999998  0.74678  0.61381  1.0000
  N   N12       1.0  0.4235200000000001  0.7239  0.8799000000000001  1.0000
  N   N13       1.0  0.88359  0.62573  0.70146  1.0000
  N   N14       1.0  0.67449  0.89987  0.8787000000000001  1.0000
  N   N15       1.0  0.8099899999999998  0.7805199999999999  0.7130800000000003  1.0000
  N   N16       1.0  0.49366999999999994  0.8949099999999999  0.72752  1.0000
  N   N17       1.0  0.54546  0.75895  0.27343  1.0000
  N   N18       1.0  0.81824  0.62255  0.40224000000000004  1.0000
  N   N19       1.0  0.44085  0.75226  0.11260000000000002  1.0000
  N   N20       1.0  0.92702  0.77413  0.38151  1.0000
  N   N21       1.0  0.3828399999999999  0.87291  0.20103  1.0000
  N   N22       1.0  0.17837999999999996  0.6007799999999999  0.38042000000000004  1.0000
  N   N23       1.0  0.31236  0.71798  0.2128  1.0000
  N   N24       1.0  0.9949899999999998  0.60477  0.22764  1.0000
  N   N25       1.0  0.9559899999999998  0.25912  0.22487000000000001  1.0000
  N   N26       1.0  0.6820499999999998  0.12221999999999998  0.09736  1.0000
  N   N27       1.0  0.059250000000000025  0.25322  0.38619000000000003  1.0000
  N   N28       1.0  0.57649  0.27611  0.12010000000000001  1.0000
  N   N29       1.0  0.11640999999999997  0.37427  0.29854  1.0000
  N   N30       1.0  0.32551  0.10013  0.12130000000000003  1.0000
  N   N31       1.0  0.19001  0.21948999999999996  0.28692  1.0000
  N   N32       1.0  0.50633  0.1051  0.27249  1.0000
  O   O1        1.0  0.23747000000000004  0.3436  0.7074600000000002  1.0000
  O   O2        1.0  0.9656099999999997  0.28184  0.5299000000000001  1.0000
  O   O3        1.0  0.9554999999999998  0.47802  0.6299400000000002  1.0000
  O   O4        1.0  0.9251199999999999  0.29238  0.7402300000000003  1.0000
  O   O5        1.0  0.26254  0.8424199999999998  0.79341  1.0000
  O   O6        1.0  0.53021  0.78143  0.96748  1.0000
  O   O7        1.0  0.5411699999999999  0.97936  0.8671500000000001  1.0000
  O   O8        1.0  0.57067  0.79088  0.7578800000000002  1.0000
  O   O9        1.0  0.7625299999999998  0.65641  0.29254  1.0000
  O   O10       1.0  0.03439000000000003  0.71816  0.47010000000000013  1.0000
  O   O11       1.0  0.04450000000000001  0.52199  0.37006000000000006  1.0000
  O   O12       1.0  0.07488999999999998  0.7076199999999999  0.25977  1.0000
  O   O13       1.0  0.73747  0.15758  0.20659000000000005  1.0000
  O   O14       1.0  0.46979  0.21857  0.03252  1.0000
  O   O15       1.0  0.45883999999999986  0.020649999999999998  0.13285  1.0000
  O   O16       1.0  0.4293399999999999  0.20912  0.24212000000000003  1.0000
