data_image0
_chemical_formula_structural       Cu8H144C208N32
_chemical_formula_sum              "Cu8 H144 C208 N32"
_cell_length_a       23.75711
_cell_length_b       23.76575
_cell_length_c       23.76601
_cell_angle_alpha    108.20904999999999
_cell_angle_beta     110.1449
_cell_angle_gamma    110.14513

_space_group_name_H-M_alt    "P 1"
_space_group_IT_number       1

loop_
  _space_group_symop_operation_xyz
  'x, y, z'

loop_
  _atom_site_type_symbol
  _atom_site_label
  _atom_site_symmetry_multiplicity
  _atom_site_fract_x
  _atom_site_fract_y
  _atom_site_fract_z
  _atom_site_occupancy
  Cu  Cu1       1.0  0.12053999999999995  0.24996000000000002  0.8707699999999999  1.0000
  Cu  Cu2       1.0  0.37959  0.75003  0.62928  1.0000
  Cu  Cu3       1.0  0.3794599999999999  0.12922999999999996  0.7500399999999999  1.0000
  Cu  Cu4       1.0  0.12041999999999997  0.37073  0.24996999999999997  1.0000
  Cu  Cu5       1.0  0.87946  0.7500500000000001  0.12923  1.0000
  Cu  Cu6       1.0  0.62041  0.24997000000000003  0.37073  1.0000
  Cu  Cu7       1.0  0.6205400000000001  0.8707800000000001  0.24996  1.0000
  Cu  Cu8       1.0  0.87959  0.62928  0.75003  1.0000
  H   H1        1.0  0.81522  0.70424  0.79743  1.0000
  H   H2        1.0  0.8558699999999999  0.81874  0.8888699999999999  1.0000
  H   H3        1.0  0.055420000000000025  0.88682  0.9009  1.0000
  H   H4        1.0  0.007960000000000047  0.7683200000000001  0.8118  1.0000
  H   H5        1.0  0.03795999999999978  0.9815499999999999  0.9145799999999998  1.0000
  H   H6        1.0  0.14122000000000004  0.08559999999999997  0.9595599999999999  1.0000
  H   H7        1.0  0.17803000000000002  0.17167999999999997  0.92214  1.0000
  H   H8        1.0  0.04134999999999998  0.23391  0.9469  1.0000
  H   H9        1.0  0.00044000000000003785  0.15238000000000007  0.98735  1.0000
  H   H10       1.0  0.6848599999999999  0.9826699999999998  0.38941  1.0000
  H   H11       1.0  0.64408  0.03322999999999996  0.46308999999999995  1.0000
  H   H12       1.0  0.44463000000000014  0.8454200000000001  0.33122999999999997  1.0000
  H   H13       1.0  0.49219  0.80395  0.26042  1.0000
  H   H14       1.0  0.46191  0.87654  0.44346  1.0000
  H   H15       1.0  0.3587500000000001  0.8181300000000001  0.44415  1.0000
  H   H16       1.0  0.3220200000000001  0.74382  0.49333  1.0000
  H   H17       1.0  0.4587400000000001  0.9052900000000002  0.6924  1.0000
  H   H18       1.0  0.49961  0.98677  0.65189  1.0000
  H   H19       1.0  0.9072500000000002  0.88949  0.20454  1.0000
  H   H20       1.0  0.9299000000000002  0.9630600000000002  0.31896  1.0000
  H   H21       1.0  0.98588  0.83134  0.38664  1.0000
  H   H22       1.0  0.95681  0.76057  0.26816  1.0000
  H   H23       1.0  0.06696999999999997  0.94351  0.48158  1.0000
  H   H24       1.0  0.12565000000000004  0.9440900000000002  0.5851999999999999  1.0000
  H   H25       1.0  0.24936999999999993  0.99319  0.6713499999999999  1.0000
  H   H26       1.0  0.2875  0.19242  0.73411  1.0000
  H   H27       1.0  0.16534  0.15189  0.6525  1.0000
  H   H28       1.0  0.59284  0.29756999999999995  0.48255999999999993  1.0000
  H   H29       1.0  0.57003  0.3892  0.53331  1.0000
  H   H30       1.0  0.5141900000000003  0.40081  0.34555  1.0000
  H   H31       1.0  0.54328  0.31146  0.30394  1.0000
  H   H32       1.0  0.43283000000000005  0.41447  0.37645  1.0000
  H   H33       1.0  0.37404000000000004  0.45959  0.31832  1.0000
  H   H34       1.0  0.25043  0.42245000000000005  0.24400999999999998  1.0000
  H   H35       1.0  0.21284999999999998  0.44706  0.4053899999999999  1.0000
  H   H36       1.0  0.33499  0.48720000000000013  0.4867699999999999  1.0000
  H   H37       1.0  0.59276  0.7954600000000001  0.11051999999999998  1.0000
  H   H38       1.0  0.5701  0.68104  0.03694  1.0000
  H   H39       1.0  0.5141300000000001  0.6133700000000002  0.16866  1.0000
  H   H40       1.0  0.54319  0.7318500000000001  0.23944  1.0000
  H   H41       1.0  0.43303  0.51843  0.0565  1.0000
  H   H42       1.0  0.37435000000000007  0.41480000000000006  0.05591999999999999  1.0000
  H   H43       1.0  0.25063  0.32865  0.00682  1.0000
  H   H44       1.0  0.21251000000000003  0.2659  0.80759  1.0000
  H   H45       1.0  0.3346600000000001  0.34750000000000003  0.8481199999999999  1.0000
  H   H46       1.0  0.9071600000000002  0.5174400000000001  0.70244  1.0000
  H   H47       1.0  0.92997  0.46669000000000005  0.61081  1.0000
  H   H48       1.0  0.98582  0.65446  0.59919  1.0000
  H   H49       1.0  0.95672  0.69607  0.68854  1.0000
  H   H50       1.0  0.06717000000000005  0.62356  0.58554  1.0000
  H   H51       1.0  0.12596  0.68169  0.54041  1.0000
  H   H52       1.0  0.24958000000000005  0.7560000000000001  0.57755  1.0000
  H   H53       1.0  0.28715  0.5946100000000001  0.55295  1.0000
  H   H54       1.0  0.16501  0.51323  0.5128  1.0000
  H   H55       1.0  0.81514  0.61059  0.01734  1.0000
  H   H56       1.0  0.8559200000000005  0.53691  0.96677  1.0000
  H   H57       1.0  0.055379999999999985  0.66877  0.15458  1.0000
  H   H58       1.0  0.007810000000000064  0.7395900000000001  0.19605  1.0000
  H   H59       1.0  0.03808999999999995  0.55655  0.12345999999999999  1.0000
  H   H60       1.0  0.14125  0.55585  0.18187  1.0000
  H   H61       1.0  0.17798  0.50668  0.25619  1.0000
  H   H62       1.0  0.04125999999999999  0.3076  0.09471  1.0000
  H   H63       1.0  0.0003900000000000004  0.34811  0.013229999999999999  1.0000
  H   H64       1.0  0.68478  0.20258  0.29576  1.0000
  H   H65       1.0  0.64414  0.11114  0.18126  1.0000
  H   H66       1.0  0.44459  0.0991  0.11318999999999999  1.0000
  H   H67       1.0  0.4920400000000001  0.1882  0.23167999999999997  1.0000
  H   H68       1.0  0.46204000000000006  0.08543  0.01846  1.0000
  H   H69       1.0  0.35879000000000005  0.04044  0.91441  1.0000
  H   H70       1.0  0.3219699999999999  0.07785999999999994  0.8283299999999999  1.0000
  H   H71       1.0  0.45866  0.05309999999999993  0.7660999999999999  1.0000
  H   H72       1.0  0.49957  0.01264999999999994  0.8476299999999999  1.0000
  H   H73       1.0  0.18478000000000006  0.29577  0.20257  1.0000
  H   H74       1.0  0.14414  0.18127  0.11113  1.0000
  H   H75       1.0  0.9445900000000002  0.11318999999999999  0.09909999999999998  1.0000
  H   H76       1.0  0.9920400000000003  0.23168000000000005  0.1882  1.0000
  H   H77       1.0  0.9620400000000002  0.018460000000000004  0.08543  1.0000
  H   H78       1.0  0.8587900000000002  0.91441  0.04043999999999999  1.0000
  H   H79       1.0  0.82197  0.8283300000000001  0.07786  1.0000
  H   H80       1.0  0.9586600000000003  0.7661000000000001  0.0531  1.0000
  H   H81       1.0  0.9995600000000001  0.84763  0.01265  1.0000
  H   H82       1.0  0.31514000000000003  0.017340000000000008  0.61059  1.0000
  H   H83       1.0  0.35592000000000007  0.9667700000000001  0.53691  1.0000
  H   H84       1.0  0.5553800000000001  0.15458  0.66877  1.0000
  H   H85       1.0  0.5078100000000001  0.19605999999999998  0.73959  1.0000
  H   H86       1.0  0.53809  0.12346000000000003  0.55654  1.0000
  H   H87       1.0  0.64125  0.18188  0.55585  1.0000
  H   H88       1.0  0.67798  0.25619  0.50667  1.0000
  H   H89       1.0  0.54126  0.09471000000000002  0.3076  1.0000
  H   H90       1.0  0.50039  0.01323  0.34811  1.0000
  H   H91       1.0  0.09275999999999988  0.11051999999999992  0.7954599999999998  1.0000
  H   H92       1.0  0.07009999999999997  0.03694  0.68104  1.0000
  H   H93       1.0  0.014129999999999988  0.16866  0.61337  1.0000
  H   H94       1.0  0.04319000000000001  0.23944000000000007  0.73184  1.0000
  H   H95       1.0  0.93304  0.05649999999999997  0.51843  1.0000
  H   H96       1.0  0.87435  0.05591999999999997  0.41479999999999995  1.0000
  H   H97       1.0  0.75063  0.006820000000000003  0.32866  1.0000
  H   H98       1.0  0.7125  0.8075900000000001  0.26589  1.0000
  H   H99       1.0  0.83466  0.84812  0.3474999999999999  1.0000
  H   H100      1.0  0.4071600000000001  0.70244  0.51744  1.0000
  H   H101      1.0  0.42998  0.61081  0.46669  1.0000
  H   H102      1.0  0.48582  0.5991900000000001  0.65445  1.0000
  H   H103      1.0  0.4567200000000001  0.68854  0.69606  1.0000
  H   H104      1.0  0.5671700000000002  0.58554  0.62355  1.0000
  H   H105      1.0  0.6259600000000001  0.54042  0.68168  1.0000
  H   H106      1.0  0.7495800000000001  0.57756  0.75599  1.0000
  H   H107      1.0  0.78715  0.55295  0.59461  1.0000
  H   H108      1.0  0.66501  0.51281  0.51323  1.0000
  H   H109      1.0  0.4072500000000001  0.20454000000000008  0.88948  1.0000
  H   H110      1.0  0.42990000000000006  0.31897  0.9630599999999999  1.0000
  H   H111      1.0  0.48588000000000003  0.38664  0.83134  1.0000
  H   H112      1.0  0.4568100000000001  0.26816  0.76056  1.0000
  H   H113      1.0  0.56697  0.48158  0.94351  1.0000
  H   H114      1.0  0.6256600000000001  0.5852100000000001  0.94409  1.0000
  H   H115      1.0  0.74937  0.6713499999999999  0.99319  1.0000
  H   H116      1.0  0.7875  0.73411  0.19241  1.0000
  H   H117      1.0  0.6653400000000002  0.6525  0.15189  1.0000
  H   H118      1.0  0.09284999999999999  0.48256  0.29757  1.0000
  H   H119      1.0  0.07002999999999997  0.53332  0.3892  1.0000
  H   H120      1.0  0.014190000000000015  0.34555  0.40081  1.0000
  H   H121      1.0  0.04328000000000001  0.30394  0.31146  1.0000
  H   H122      1.0  0.9328300000000002  0.37645  0.41446  1.0000
  H   H123      1.0  0.8740400000000002  0.31832  0.45959  1.0000
  H   H124      1.0  0.7504200000000002  0.24401000000000003  0.42245  1.0000
  H   H125      1.0  0.7128499999999999  0.4053899999999999  0.44704999999999995  1.0000
  H   H126      1.0  0.83499  0.48677  0.4872  1.0000
  H   H127      1.0  0.18486000000000002  0.38942  0.98266  1.0000
  H   H128      1.0  0.14408000000000004  0.46309000000000006  0.03323  1.0000
  H   H129      1.0  0.9446300000000001  0.33124  0.8454199999999998  1.0000
  H   H130      1.0  0.99219  0.26042  0.80395  1.0000
  H   H131      1.0  0.9619100000000003  0.44346  0.87654  1.0000
  H   H132      1.0  0.8587499999999999  0.44416  0.81813  1.0000
  H   H133      1.0  0.82202  0.49333  0.74381  1.0000
  H   H134      1.0  0.9587400000000003  0.6924  0.90529  1.0000
  H   H135      1.0  0.9996100000000001  0.6519  0.9867699999999999  1.0000
  H   H136      1.0  0.31522  0.79743  0.70424  1.0000
  H   H137      1.0  0.35587000000000024  0.8888700000000003  0.81874  1.0000
  H   H138      1.0  0.55542  0.9009100000000002  0.88681  1.0000
  H   H139      1.0  0.50796  0.8118  0.76832  1.0000
  H   H140      1.0  0.53796  0.91458  0.98154  1.0000
  H   H141      1.0  0.6412100000000001  0.9595700000000001  0.08559  1.0000
  H   H142      1.0  0.6780300000000001  0.9221400000000002  0.17167  1.0000
  H   H143      1.0  0.54135  0.9469  0.23389999999999997  1.0000
  H   H144      1.0  0.50044  0.98736  0.15237  1.0000
  C   C1        1.0  0.86862  0.74565  0.8226499999999999  1.0000
  C   C2        1.0  0.8915399999999999  0.8098699999999999  0.8735899999999999  1.0000
  C   C3        1.0  0.9602600000000001  0.8643199999999998  0.9046099999999999  1.0000
  C   C4        1.0  0.001760000000000002  0.84801  0.8795399999999999  1.0000
  C   C5        1.0  0.9754300000000001  0.78169  0.82952  1.0000
  C   C6        1.0  0.9848700000000002  0.9329300000000003  0.95739  1.0000
  C   C7        1.0  0.024309999999999932  0.99031  0.9545299999999999  1.0000
  C   C8        1.0  0.0382199999999999  0.056589999999999974  0.9934199999999999  1.0000
  C   C9        1.0  0.06545000000000002  0.10924  0.97542  1.0000
  C   C10       1.0  0.11679999999999995  0.11661999999999993  0.9565  1.0000
  C   C11       1.0  0.13765000000000002  0.16457000000000005  0.93566  1.0000
  C   C12       1.0  0.062369999999999995  0.20023000000000002  0.9505799999999999  1.0000
  C   C13       1.0  0.03976999999999995  0.15464999999999993  0.9731999999999998  1.0000
  C   C14       1.0  0.63149  0.95434  0.37733999999999995  1.0000
  C   C15       1.0  0.60846  0.98224  0.41852999999999996  1.0000
  C   C16       1.0  0.53973  0.94442  0.40413  1.0000
  C   C17       1.0  0.49829000000000007  0.8778000000000001  0.34625  1.0000
  C   C18       1.0  0.52473  0.8542200000000001  0.30639  1.0000
  C   C19       1.0  0.5150800000000001  0.97253  0.44803  1.0000
  C   C20       1.0  0.47562000000000004  0.93018  0.4659  1.0000
  C   C21       1.0  0.46176000000000006  0.95515  0.51828  1.0000
  C   C22       1.0  0.4345800000000001  0.90984  0.54364  1.0000
  C   C23       1.0  0.38324  0.8395  0.49962999999999996  1.0000
  C   C24       1.0  0.36245  0.79775  0.52668  1.0000
  C   C25       1.0  0.43776000000000004  0.8879700000000001  0.63769  1.0000
  C   C26       1.0  0.4603000000000001  0.93324  0.61476  1.0000
  C   C27       1.0  0.9232000000000001  0.87734  0.24581999999999998  1.0000
  C   C28       1.0  0.9363  0.91848  0.30998  1.0000
  C   C29       1.0  0.9596299999999999  0.90403  0.3642599999999999  1.0000
  C   C30       1.0  0.9684600000000003  0.8462400000000001  0.3479  1.0000
  C   C31       1.0  0.95235  0.80642  0.28162999999999994  1.0000
  C   C32       1.0  0.97546  0.94798  0.43287  1.0000
  C   C33       1.0  0.03573000000000002  0.9659000000000001  0.49026  1.0000
  C   C34       1.0  0.06314  0.018319999999999996  0.55657  1.0000
  C   C35       1.0  0.13383000000000012  0.043650000000000064  0.60922  1.0000
  C   C36       1.0  0.15998000000000007  0.99955  0.61642  1.0000
  C   C37       1.0  0.22884  0.02657  0.6643699999999999  1.0000
  C   C38       1.0  0.24994000000000005  0.13770000000000004  0.70033  1.0000
  C   C39       1.0  0.18167  0.11478  0.65474  1.0000
  C   C40       1.0  0.57674  0.3227300000000001  0.45432999999999996  1.0000
  C   C41       1.0  0.5635700000000001  0.37373000000000006  0.4823  1.0000
  C   C42       1.0  0.5402300000000002  0.4046100000000001  0.44444  1.0000
  C   C43       1.0  0.53147  0.37944  0.37783999999999995  1.0000
  C   C44       1.0  0.54761  0.32933  0.35421  1.0000
  C   C45       1.0  0.5244500000000001  0.4574  0.4725  1.0000
  C   C46       1.0  0.4641600000000001  0.45445  0.43011  1.0000
  C   C47       1.0  0.4368400000000001  0.49337  0.45516  1.0000
  C   C48       1.0  0.3661400000000001  0.47531  0.40984  1.0000
  C   C49       1.0  0.33984  0.45642  0.33955  1.0000
  C   C50       1.0  0.271  0.43568  0.29787  1.0000
  C   C51       1.0  0.2502  0.45052  0.38806  1.0000
  C   C52       1.0  0.31848000000000004  0.47305  0.43327  1.0000
  C   C53       1.0  0.5768000000000001  0.75418  0.12266999999999999  1.0000
  C   C54       1.0  0.56371  0.69003  0.08152  1.0000
  C   C55       1.0  0.54037  0.63574  0.09597  1.0000
  C   C56       1.0  0.53154  0.65211  0.15376999999999996  1.0000
  C   C57       1.0  0.54766  0.71837  0.19358  1.0000
  C   C58       1.0  0.52454  0.56713  0.05203  1.0000
  C   C59       1.0  0.46427  0.50974  0.0341  1.0000
  C   C60       1.0  0.4368600000000001  0.4434400000000001  0.98168  1.0000
  C   C61       1.0  0.36618  0.39078  0.95636  1.0000
  C   C62       1.0  0.34002000000000004  0.38358000000000003  0.00045  1.0000
  C   C63       1.0  0.27116  0.33563000000000004  0.97344  1.0000
  C   C64       1.0  0.25005999999999995  0.29967999999999995  0.8623099999999999  1.0000
  C   C65       1.0  0.31833999999999996  0.34525999999999996  0.8852299999999999  1.0000
  C   C66       1.0  0.92326  0.5456700000000001  0.67727  1.0000
  C   C67       1.0  0.93643  0.5177  0.62627  1.0000
  C   C68       1.0  0.95978  0.55557  0.5954  1.0000
  C   C69       1.0  0.96853  0.62217  0.62057  1.0000
  C   C70       1.0  0.95239  0.6458  0.67068  1.0000
  C   C71       1.0  0.9755600000000001  0.52751  0.5426  1.0000
  C   C72       1.0  0.035840000000000004  0.5699  0.54555  1.0000
  C   C73       1.0  0.06315999999999992  0.54485  0.50663  1.0000
  C   C74       1.0  0.13387  0.59016  0.5247  1.0000
  C   C75       1.0  0.16016  0.66045  0.54358  1.0000
  C   C76       1.0  0.2290099999999999  0.70214  0.5643299999999999  1.0000
  C   C77       1.0  0.24981000000000003  0.61195  0.54949  1.0000
  C   C78       1.0  0.18152000000000004  0.5667400000000001  0.52695  1.0000
  C   C79       1.0  0.86852  0.62267  0.04567  1.0000
  C   C80       1.0  0.8915400000000002  0.58147  0.01777  1.0000
  C   C81       1.0  0.9602700000000002  0.5958800000000001  0.05558  1.0000
  C   C82       1.0  0.0017099999999999457  0.6537599999999999  0.12219999999999999  1.0000
  C   C83       1.0  0.97528  0.69361  0.14578  1.0000
  C   C84       1.0  0.9849200000000001  0.55197  0.027479999999999997  1.0000
  C   C85       1.0  0.02437999999999999  0.53411  0.06983  1.0000
  C   C86       1.0  0.03823999999999999  0.48172  0.04485  1.0000
  C   C87       1.0  0.06542000000000002  0.45636000000000004  0.09016  1.0000
  C   C88       1.0  0.11676000000000009  0.50038  0.16051  1.0000
  C   C89       1.0  0.13755000000000003  0.47333000000000003  0.20226  1.0000
  C   C90       1.0  0.06224000000000001  0.36231000000000013  0.11204  1.0000
  C   C91       1.0  0.03970000000000003  0.38524  0.06676  1.0000
  C   C92       1.0  0.6313900000000002  0.17735000000000006  0.25436  1.0000
  C   C93       1.0  0.6084700000000001  0.12642  0.19014  1.0000
  C   C94       1.0  0.53974  0.09539999999999998  0.13567999999999997  1.0000
  C   C95       1.0  0.49824  0.12046  0.15199  1.0000
  C   C96       1.0  0.5245700000000001  0.17048  0.21830999999999998  1.0000
  C   C97       1.0  0.51513  0.04262  0.06708  1.0000
  C   C98       1.0  0.47569000000000006  0.04548000000000001  0.0097  1.0000
  C   C99       1.0  0.46178  0.006579999999999914  0.9434099999999999  1.0000
  C   C100      1.0  0.43455000000000005  0.02457999999999999  0.89077  1.0000
  C   C101      1.0  0.3832100000000001  0.04351000000000004  0.88338  1.0000
  C   C102      1.0  0.36235999999999996  0.06434999999999996  0.8354299999999999  1.0000
  C   C103      1.0  0.43764000000000003  0.04943  0.79977  1.0000
  C   C104      1.0  0.46024  0.02680999999999995  0.8453599999999999  1.0000
  C   C105      1.0  0.13139000000000003  0.25436000000000003  0.17735  1.0000
  C   C106      1.0  0.10847000000000002  0.19014000000000003  0.12641  1.0000
  C   C107      1.0  0.039740000000000025  0.13568000000000002  0.0954  1.0000
  C   C108      1.0  0.9982399999999999  0.152  0.12045999999999998  1.0000
  C   C109      1.0  0.024569999999999998  0.21832  0.17048  1.0000
  C   C110      1.0  0.015130000000000001  0.06708  0.04262  1.0000
  C   C111      1.0  0.97569  0.0097  0.04547  1.0000
  C   C112      1.0  0.96178  0.9434200000000001  0.006579999999999999  1.0000
  C   C113      1.0  0.9345500000000002  0.8907700000000001  0.02458  1.0000
  C   C114      1.0  0.8832000000000001  0.8833800000000003  0.04351  1.0000
  C   C115      1.0  0.8623600000000001  0.83543  0.06434  1.0000
  C   C116      1.0  0.93763  0.79977  0.04943  1.0000
  C   C117      1.0  0.96024  0.8453600000000001  0.026809999999999997  1.0000
  C   C118      1.0  0.36852  0.04566999999999998  0.62266  1.0000
  C   C119      1.0  0.39154  0.017770000000000005  0.58147  1.0000
  C   C120      1.0  0.46027  0.05557999999999992  0.5958699999999999  1.0000
  C   C121      1.0  0.5017100000000001  0.12220000000000002  0.6537599999999999  1.0000
  C   C122      1.0  0.4752800000000002  0.14579000000000003  0.69361  1.0000
  C   C123      1.0  0.48492  0.027480000000000015  0.55197  1.0000
  C   C124      1.0  0.5243800000000001  0.06983000000000002  0.53411  1.0000
  C   C125      1.0  0.53824  0.04486000000000001  0.48172  1.0000
  C   C126      1.0  0.56542  0.09016  0.45636  1.0000
  C   C127      1.0  0.61676  0.16051  0.50037  1.0000
  C   C128      1.0  0.63755  0.20226000000000005  0.47332  1.0000
  C   C129      1.0  0.5622400000000001  0.11204  0.36231  1.0000
  C   C130      1.0  0.5397000000000001  0.06676000000000001  0.38523999999999997  1.0000
  C   C131      1.0  0.0768  0.12267  0.75418  1.0000
  C   C132      1.0  0.06371  0.08152  0.69002  1.0000
  C   C133      1.0  0.040370000000000024  0.09598000000000001  0.63574  1.0000
  C   C134      1.0  0.031549999999999995  0.15377000000000005  0.6521  1.0000
  C   C135      1.0  0.047660000000000015  0.19358000000000006  0.71837  1.0000
  C   C136      1.0  0.02455000000000004  0.05203000000000002  0.56713  1.0000
  C   C137      1.0  0.9642800000000002  0.03411000000000003  0.50974  1.0000
  C   C138      1.0  0.93686  0.98169  0.44342999999999994  1.0000
  C   C139      1.0  0.8661800000000002  0.9563600000000002  0.39078  1.0000
  C   C140      1.0  0.84002  0.00045999999999998624  0.38358  1.0000
  C   C141      1.0  0.7711600000000002  0.97344  0.33563  1.0000
  C   C142      1.0  0.75006  0.86231  0.29967  1.0000
  C   C143      1.0  0.81834  0.8852300000000001  0.34526  1.0000
  C   C144      1.0  0.42327000000000004  0.6772799999999999  0.54567  1.0000
  C   C145      1.0  0.43643  0.62628  0.5177  1.0000
  C   C146      1.0  0.45978  0.5953999999999999  0.5555699999999999  1.0000
  C   C147      1.0  0.46853000000000006  0.62057  0.6221599999999999  1.0000
  C   C148      1.0  0.45239000000000007  0.67068  0.64579  1.0000
  C   C149      1.0  0.4755599999999999  0.54261  0.5274999999999999  1.0000
  C   C150      1.0  0.53584  0.54556  0.56989  1.0000
  C   C151      1.0  0.56316  0.50664  0.54485  1.0000
  C   C152      1.0  0.63387  0.5246999999999999  0.5901599999999999  1.0000
  C   C153      1.0  0.66016  0.54359  0.66045  1.0000
  C   C154      1.0  0.729  0.56433  0.70213  1.0000
  C   C155      1.0  0.7498100000000001  0.54949  0.61195  1.0000
  C   C156      1.0  0.68152  0.5269599999999999  0.5667299999999998  1.0000
  C   C157      1.0  0.4232  0.24583  0.87733  1.0000
  C   C158      1.0  0.4363000000000001  0.30998  0.91848  1.0000
  C   C159      1.0  0.4596299999999999  0.3642699999999999  0.9040299999999999  1.0000
  C   C160      1.0  0.4684600000000001  0.3479000000000001  0.84624  1.0000
  C   C161      1.0  0.45235  0.28163  0.80642  1.0000
  C   C162      1.0  0.4754600000000001  0.43287000000000003  0.94797  1.0000
  C   C163      1.0  0.5357299999999999  0.4902599999999999  0.9658999999999999  1.0000
  C   C164      1.0  0.56314  0.55657  0.01832  1.0000
  C   C165      1.0  0.6338200000000002  0.6092300000000002  0.04365  1.0000
  C   C166      1.0  0.6599800000000001  0.6164200000000001  0.9995499999999999  1.0000
  C   C167      1.0  0.7288400000000002  0.66437  0.026569999999999996  1.0000
  C   C168      1.0  0.74994  0.70033  0.13769  1.0000
  C   C169      1.0  0.68166  0.65474  0.11478  1.0000
  C   C170      1.0  0.07674000000000004  0.4543400000000001  0.32273  1.0000
  C   C171      1.0  0.06357000000000003  0.48231000000000007  0.37373  1.0000
  C   C172      1.0  0.040230000000000044  0.44444000000000006  0.40461  1.0000
  C   C173      1.0  0.03146999999999994  0.37783999999999995  0.37942999999999993  1.0000
  C   C174      1.0  0.04761999999999996  0.35420999999999997  0.32932999999999996  1.0000
  C   C175      1.0  0.024449999999999972  0.47250000000000003  0.4573999999999999  1.0000
  C   C176      1.0  0.96416  0.43011000000000005  0.45445  1.0000
  C   C177      1.0  0.9368400000000003  0.45516  0.4933699999999999  1.0000
  C   C178      1.0  0.8661400000000002  0.4098400000000001  0.4753  1.0000
  C   C179      1.0  0.8398400000000001  0.3395500000000001  0.45642  1.0000
  C   C180      1.0  0.771  0.2978700000000001  0.43568  1.0000
  C   C181      1.0  0.7502  0.38806  0.45051  1.0000
  C   C182      1.0  0.81848  0.43327000000000004  0.47305  1.0000
  C   C183      1.0  0.13149  0.37733999999999995  0.9543299999999999  1.0000
  C   C184      1.0  0.10845999999999993  0.4185299999999999  0.9822299999999999  1.0000
  C   C185      1.0  0.03973999999999995  0.40412999999999993  0.9444199999999999  1.0000
  C   C186      1.0  0.9983000000000001  0.34625000000000006  0.8778000000000001  1.0000
  C   C187      1.0  0.024729999999999915  0.3064  0.8542199999999999  1.0000
  C   C188      1.0  0.015079999999999998  0.44803  0.97253  1.0000
  C   C189      1.0  0.9756200000000002  0.46590000000000004  0.93017  1.0000
  C   C190      1.0  0.9617599999999998  0.51829  0.95515  1.0000
  C   C191      1.0  0.9345799999999996  0.5436399999999999  0.9098399999999999  1.0000
  C   C192      1.0  0.88324  0.49963  0.83949  1.0000
  C   C193      1.0  0.86245  0.5266800000000001  0.79774  1.0000
  C   C194      1.0  0.9377600000000001  0.6377  0.88796  1.0000
  C   C195      1.0  0.9603  0.61476  0.9332399999999998  1.0000
  C   C196      1.0  0.36862  0.8226600000000001  0.74564  1.0000
  C   C197      1.0  0.39154  0.87359  0.80986  1.0000
  C   C198      1.0  0.4602600000000002  0.9046100000000002  0.86432  1.0000
  C   C199      1.0  0.5017700000000002  0.8795500000000003  0.84801  1.0000
  C   C200      1.0  0.47543  0.82953  0.78169  1.0000
  C   C201      1.0  0.48487  0.95739  0.93292  1.0000
  C   C202      1.0  0.52431  0.9545300000000001  0.9902999999999998  1.0000
  C   C203      1.0  0.53822  0.9934300000000001  0.05659  1.0000
  C   C204      1.0  0.56545  0.97543  0.10923  1.0000
  C   C205      1.0  0.6168000000000001  0.9565  0.11662  1.0000
  C   C206      1.0  0.63764  0.93566  0.16457  1.0000
  C   C207      1.0  0.5623700000000003  0.9505800000000004  0.20023  1.0000
  C   C208      1.0  0.5397600000000001  0.9732  0.15464  1.0000
  N   N1        1.0  0.9095799999999999  0.7294399999999999  0.8005599999999999  1.0000
  N   N2        1.0  0.11046999999999998  0.20586000000000002  0.9307699999999999  1.0000
  N   N3        1.0  0.5905700000000003  0.8912200000000005  0.32011  1.0000
  N   N4        1.0  0.38967000000000007  0.8199899999999999  0.5951599999999999  1.0000
  N   N5        1.0  0.9291400000000004  0.82018  0.22954  1.0000
  N   N6        1.0  0.27519000000000005  0.09507000000000003  0.70583  1.0000
  N   N7        1.0  0.57078  0.30047  0.39122  1.0000
  N   N8        1.0  0.22481  0.43081  0.32013  1.0000
  N   N9        1.0  0.57086  0.7704700000000001  0.17982  1.0000
  N   N10       1.0  0.22482000000000008  0.2941700000000001  0.90493  1.0000
  N   N11       1.0  0.92922  0.60878  0.69953  1.0000
  N   N12       1.0  0.27519999999999994  0.6798699999999999  0.5691999999999999  1.0000
  N   N13       1.0  0.9094300000000001  0.67989  0.10878999999999998  1.0000
  N   N14       1.0  0.11033999999999997  0.40485  0.18001  1.0000
  N   N15       1.0  0.59042  0.19944  0.27057  1.0000
  N   N16       1.0  0.38953000000000004  0.06922999999999992  0.79415  1.0000
  N   N17       1.0  0.09043000000000001  0.27057  0.19944  1.0000
  N   N18       1.0  0.88953  0.79415  0.06923  1.0000
  N   N19       1.0  0.40943  0.10879000000000001  0.67989  1.0000
  N   N20       1.0  0.61033  0.18001000000000006  0.40484  1.0000
  N   N21       1.0  0.07085999999999999  0.17982  0.77046  1.0000
  N   N22       1.0  0.72482  0.90494  0.29416999999999993  1.0000
  N   N23       1.0  0.42922  0.69953  0.60878  1.0000
  N   N24       1.0  0.7752000000000004  0.5692  0.67987  1.0000
  N   N25       1.0  0.42914000000000013  0.22954  0.82018  1.0000
  N   N26       1.0  0.77518  0.70584  0.09507  1.0000
  N   N27       1.0  0.07078000000000001  0.39122  0.30047  1.0000
  N   N28       1.0  0.7247999999999999  0.32012999999999997  0.43079999999999996  1.0000
  N   N29       1.0  0.09058000000000001  0.32012  0.89121  1.0000
  N   N30       1.0  0.8896700000000002  0.59516  0.81999  1.0000
  N   N31       1.0  0.40957999999999994  0.8005699999999999  0.7294299999999999  1.0000
  N   N32       1.0  0.6104700000000002  0.9307800000000003  0.20586  1.0000
