data_image0
_chemical_formula_structural       Cu6H144C96N72
_chemical_formula_sum              "Cu6 H144 C96 N72"
_cell_length_a       14.42461
_cell_length_b       14.61321
_cell_length_c       25.79319
_cell_angle_alpha    97.96438
_cell_angle_beta     106.28461
_cell_angle_gamma    60.31543

_space_group_name_H-M_alt    "P 1"
_space_group_IT_number       1

loop_
  _space_group_symop_operation_xyz
  'x, y, z'

loop_
  _atom_site_type_symbol
  _atom_site_label
  _atom_site_symmetry_multiplicity
  _atom_site_fract_x
  _atom_site_fract_y
  _atom_site_fract_z
  _atom_site_occupancy
  Cu  Cu1       1.0  0.16376999999999986  0.04119  0.6706499999999997  1.0000
  Cu  Cu2       1.0  0.79474  0.04159  0.82828  1.0000
  Cu  Cu3       1.0  0.8363999999999999  0.95851  0.329  1.0000
  Cu  Cu4       1.0  0.20371000000000003  0.95865  0.17041  1.0000
  Cu  Cu5       1.0  9.999999999999271e-05  0.49982  0.49979999999999997  1.0000
  Cu  Cu6       1.0  0.49598999999999993  0.50023  0.9998699999999999  1.0000
  H   H1        1.0  0.0839699999999999  0.30565  0.6570999999999998  1.0000
  H   H2        1.0  0.8795  0.41971  0.5034099999999999  1.0000
  H   H3        1.0  0.69474  0.4778  0.59868  1.0000
  H   H4        1.0  0.68678  0.49356  0.53042  1.0000
  H   H5        1.0  0.7712999999999995  0.2817  0.58281  1.0000
  H   H6        1.0  0.6332599999999999  0.35571  0.5477799999999999  1.0000
  H   H7        1.0  0.67545  0.31307  0.46196  1.0000
  H   H8        1.0  0.80424  0.30906  0.48666999999999994  1.0000
  H   H9        1.0  0.8143699999999999  0.1308  0.4580299999999999  1.0000
  H   H10       1.0  0.76559  0.13626  0.51465  1.0000
  H   H11       1.0  0.90978  0.105  0.61236  1.0000
  H   H12       1.0  0.17153999999999997  0.06232999999999999  0.5524099999999998  1.0000
  H   H13       1.0  0.07117000000000001  0.2515  0.4972699999999999  1.0000
  H   H14       1.0  0.05157999999999999  0.45026  0.38576  1.0000
  H   H15       1.0  0.061900000000000024  0.10225  0.40392  1.0000
  H   H16       1.0  0.13859  0.10638999999999998  0.36196  1.0000
  H   H17       1.0  0.26  0.95761  0.42112  1.0000
  H   H18       1.0  0.21936999999999993  0.02826  0.47883999999999993  1.0000
  H   H19       1.0  0.40424999999999994  0.99655  0.48214999999999997  1.0000
  H   H20       1.0  0.3112499999999999  0.13299  0.47841999999999996  1.0000
  H   H21       1.0  0.3937599999999999  0.99495  0.3827399999999999  1.0000
  H   H22       1.0  0.2956399999999999  0.13038  0.3789  1.0000
  H   H23       1.0  0.58094  0.9714  0.3847  1.0000
  H   H24       1.0  0.56022  0.23966999999999997  0.47467  1.0000
  H   H25       1.0  0.2976699999999998  0.11813  0.7642899999999998  1.0000
  H   H26       1.0  0.39876  0.81669  0.6947899999999998  1.0000
  H   H27       1.0  0.6223499999999997  0.80685  0.82422  1.0000
  H   H28       1.0  0.5270399999999998  0.76465  0.8257599999999998  1.0000
  H   H29       1.0  0.5516999999999997  0.6766  0.73381  1.0000
  H   H30       1.0  0.6584299999999998  0.61855  0.7908699999999999  1.0000
  H   H31       1.0  0.15117000000000003  0.9869299999999998  0.7904499999999999  1.0000
  H   H32       1.0  0.9757500000000001  0.26624  0.69976  1.0000
  H   H33       1.0  0.9830699999999997  0.35793  0.8344  1.0000
  H   H34       1.0  0.8818599999999996  0.32005  0.82995  1.0000
  H   H35       1.0  0.88483  0.42269  0.73425  1.0000
  H   H36       1.0  0.8252499999999999  0.49523999999999996  0.7869599999999999  1.0000
  H   H37       1.0  0.61092  0.30355  0.84276  1.0000
  H   H38       1.0  0.6972499999999998  0.42215  0.99569  1.0000
  H   H39       1.0  0.82532  0.47812  0.90061  1.0000
  H   H40       1.0  0.8167400000000001  0.49449  0.96879  1.0000
  H   H41       1.0  0.94603  0.28248  0.9169199999999997  1.0000
  H   H42       1.0  0.009220000000000018  0.3569  0.95224  1.0000
  H   H43       1.0  0.009930000000000003  0.31307  0.03773  1.0000
  H   H44       1.0  0.8845899999999999  0.31021  0.01287  1.0000
  H   H45       1.0  0.05228000000000001  0.13134  0.04137  1.0000
  H   H46       1.0  0.09634  0.13633  0.98497  1.0000
  H   H47       1.0  0.98456  0.10535  0.8872199999999999  1.0000
  H   H48       1.0  0.76316  0.06421  0.94593  1.0000
  H   H49       1.0  0.67699  0.25268  0.00334  1.0000
  H   H50       1.0  0.4925  0.45032  0.11337  1.0000
  H   H51       1.0  0.83429  0.10317999999999998  0.09616  1.0000
  H   H52       1.0  0.7536500000000002  0.10757  0.13828  1.0000
  H   H53       1.0  0.7814000000000001  0.95854  0.07914999999999998  1.0000
  H   H54       1.0  0.75046  0.02946  0.021369999999999993  1.0000
  H   H55       1.0  0.59773  0.99758  0.01841  1.0000
  H   H56       1.0  0.55379  0.13392  0.022  1.0000
  H   H57       1.0  0.60952  0.99621  0.11779  1.0000
  H   H58       1.0  0.5719  0.13165  0.12154  1.0000
  H   H59       1.0  0.44555999999999985  0.97311  0.11552  1.0000
  H   H60       1.0  0.19801  0.2405  0.024529999999999996  1.0000
  H   H61       1.0  0.58286  0.11795  0.7350699999999999  1.0000
  H   H62       1.0  0.78687  0.81709  0.80506  1.0000
  H   H63       1.0  0.5728999999999999  0.80525  0.67624  1.0000
  H   H64       1.0  0.7108199999999999  0.76309  0.6751799999999999  1.0000
  H   H65       1.0  0.7733299999999997  0.67668  0.7674799999999998  1.0000
  H   H66       1.0  0.7252499999999995  0.61785  0.71062  1.0000
  H   H67       1.0  0.8574000000000002  0.9897099999999999  0.70706  1.0000
  H   H68       1.0  0.75767  0.26689  0.79946  1.0000
  H   H69       1.0  0.6583799999999999  0.36147999999999997  0.66547  1.0000
  H   H70       1.0  0.7980299999999999  0.3218  0.66982  1.0000
  H   H71       1.0  0.6935799999999998  0.42376  0.7660399999999999  1.0000
  H   H72       1.0  0.6811299999999999  0.49678999999999995  0.71374  1.0000
  H   H73       1.0  0.9161499999999999  0.69386  0.34280999999999995  1.0000
  H   H74       1.0  0.12172999999999999  0.57899  0.49618999999999996  1.0000
  H   H75       1.0  0.30551  0.52081  0.40023999999999993  1.0000
  H   H76       1.0  0.31427999999999995  0.50445  0.46852  1.0000
  H   H77       1.0  0.2295299999999999  0.71677  0.41646999999999995  1.0000
  H   H78       1.0  0.36767999999999995  0.64219  0.45117  1.0000
  H   H79       1.0  0.326  0.68483  0.53721  1.0000
  H   H80       1.0  0.19721000000000002  0.68908  0.51271  1.0000
  H   H81       1.0  0.18740999999999994  0.86731  0.54127  1.0000
  H   H82       1.0  0.23534999999999998  0.86217  0.48452  1.0000
  H   H83       1.0  0.09097000000000004  0.8934999999999998  0.38713999999999993  1.0000
  H   H84       1.0  0.8294400000000001  0.9368299999999999  0.44774999999999987  1.0000
  H   H85       1.0  0.93031  0.7478299999999999  0.50288  1.0000
  H   H86       1.0  0.9478199999999999  0.54903  0.61364  1.0000
  H   H87       1.0  0.9380199999999999  0.89721  0.59589  1.0000
  H   H88       1.0  0.8620400000000001  0.8924599999999999  0.63806  1.0000
  H   H89       1.0  0.7394  0.04147  0.57914  1.0000
  H   H90       1.0  0.77986  0.97146  0.52126  1.0000
  H   H91       1.0  0.59546  0.00196  0.51822  1.0000
  H   H92       1.0  0.68921  0.8657999999999999  0.52128  1.0000
  H   H93       1.0  0.6067199999999998  0.0011499999999999998  0.61762  1.0000
  H   H94       1.0  0.70583  0.8660299999999999  0.6207899999999998  1.0000
  H   H95       1.0  0.42111999999999994  0.02131  0.61622  1.0000
  H   H96       1.0  0.44302000000000014  0.7553099999999999  0.52353  1.0000
  H   H97       1.0  0.70149  0.88083  0.23641  1.0000
  H   H98       1.0  0.60188  0.1822  0.30553  1.0000
  H   H99       1.0  0.37733  0.19216999999999998  0.17643  1.0000
  H   H100      1.0  0.47241999999999995  0.23474999999999996  0.17479  1.0000
  H   H101      1.0  0.44816999999999996  0.32236  0.26683  1.0000
  H   H102      1.0  0.3412699999999999  0.38057  0.20983999999999997  1.0000
  H   H103      1.0  0.84422  0.01135  0.20822  1.0000
  H   H104      1.0  0.02474000000000007  0.7329299999999997  0.29971  1.0000
  H   H105      1.0  0.016730000000000002  0.64069  0.16501999999999997  1.0000
  H   H106      1.0  0.11735999999999999  0.67925  0.16935  1.0000
  H   H107      1.0  0.11551  0.57669  0.26546  1.0000
  H   H108      1.0  0.1748  0.50396  0.21268999999999996  1.0000
  H   H109      1.0  0.38774  0.6933  0.15597  1.0000
  H   H110      1.0  0.29486  0.58062  0.0023499999999999997  1.0000
  H   H111      1.0  0.16906  0.52327  0.09835  1.0000
  H   H112      1.0  0.17641000000000004  0.50719  0.02998  1.0000
  H   H113      1.0  0.05034000000000005  0.7194099999999999  0.08255  1.0000
  H   H114      1.0  0.9851200000000001  0.6465  0.04759  1.0000
  H   H115      1.0  0.9844599999999999  0.68907  0.96173  1.0000
  H   H116      1.0  0.11003999999999996  0.6915  0.9862599999999999  1.0000
  H   H117      1.0  0.9430300000000003  0.8706199999999998  0.958  1.0000
  H   H118      1.0  0.89913  0.86599  0.014519999999999996  1.0000
  H   H119      1.0  0.012430000000000068  0.8959799999999999  0.11221999999999997  1.0000
  H   H120      1.0  0.23331000000000005  0.93637  0.05264  1.0000
  H   H121      1.0  0.3190000000000001  0.7487799999999999  0.9961199999999998  1.0000
  H   H122      1.0  0.5000199999999999  0.5474  0.8857099999999998  1.0000
  H   H123      1.0  0.16210999999999987  0.8973699999999999  0.9019999999999998  1.0000
  H   H124      1.0  0.24495000000000008  0.8921999999999998  0.8609  1.0000
  H   H125      1.0  0.21581999999999982  0.04111  0.9202899999999998  1.0000
  H   H126      1.0  0.24573  0.96984  0.97774  1.0000
  H   H127      1.0  0.39925  0.00126  0.9818  1.0000
  H   H128      1.0  0.4428599999999999  0.86493  0.97739  1.0000
  H   H129      1.0  0.38751  0.004619999999999999  0.88258  1.0000
  H   H130      1.0  0.42498  0.86925  0.87802  1.0000
  H   H131      1.0  0.55151  0.02751  0.88482  1.0000
  H   H132      1.0  0.7991399999999996  0.75894  0.9749299999999997  1.0000
  H   H133      1.0  0.41474  0.88171  0.26408  1.0000
  H   H134      1.0  0.21230000000000002  0.18308  0.19458  1.0000
  H   H135      1.0  0.42668  0.19281  0.32404  1.0000
  H   H136      1.0  0.28878999999999994  0.23571  0.32533999999999996  1.0000
  H   H137      1.0  0.22613  0.32307  0.23333999999999996  1.0000
  H   H138      1.0  0.27504000000000006  0.38109999999999994  0.29030999999999996  1.0000
  H   H139      1.0  0.1377  0.01145  0.29097  1.0000
  H   H140      1.0  0.24054  0.73368  0.19913  1.0000
  H   H141      1.0  0.34144  0.63994  0.333  1.0000
  H   H142      1.0  0.20255999999999993  0.67804  0.3296099999999999  1.0000
  H   H143      1.0  0.30555000000000004  0.57631  0.23289999999999994  1.0000
  H   H144      1.0  0.31906  0.50343  0.28561999999999993  1.0000
  C   C1        1.0  0.01149000000000002  0.34044  0.62389  1.0000
  C   C2        1.0  0.9106400000000001  0.39546999999999993  0.54538  1.0000
  C   C3        1.0  0.7295599999999998  0.43733  0.56414  1.0000
  C   C4        1.0  0.7176899999999998  0.3375  0.54926  1.0000
  C   C5        1.0  0.74876  0.28612  0.49605  1.0000
  C   C6        1.0  0.8084799999999998  0.16552  0.49829  1.0000
  C   C7        1.0  0.9583399999999999  0.10072000000000002  0.58578  1.0000
  C   C8        1.0  0.08942999999999998  0.08167  0.55372  1.0000
  C   C9        1.0  0.07248999999999992  0.28147  0.46158999999999994  1.0000
  C   C10       1.0  0.06448000000000001  0.3810799999999999  0.40398  1.0000
  C   C11       1.0  0.13064999999999996  0.11524  0.40357999999999994  1.0000
  C   C12       1.0  0.23688  0.03481  0.44119  1.0000
  C   C13       1.0  0.33308  0.05897  0.45561999999999997  1.0000
  C   C14       1.0  0.36579  0.06829  0.40598  1.0000
  C   C15       1.0  0.55548  0.04238999999999999  0.40886  1.0000
  C   C16       1.0  0.54121  0.17931  0.4533999999999999  1.0000
  C   C17       1.0  0.3462699999999999  0.03469  0.7575099999999999  1.0000
  C   C18       1.0  0.39596  0.88181  0.7209899999999998  1.0000
  C   C19       1.0  0.56216  0.78388  0.79873  1.0000
  C   C20       1.0  0.61609  0.68762  0.76424  1.0000
  C   C21       1.0  0.09918  0.06933  0.77966  1.0000
  C   C22       1.0  0.012780000000000012  0.21067  0.73276  1.0000
  C   C23       1.0  0.92604  0.33389  0.80602  1.0000
  C   C24       1.0  0.8448899999999998  0.4209899999999999  0.76445  1.0000
  C   C25       1.0  0.6476899999999999  0.33927  0.87581  1.0000
  C   C26       1.0  0.6914699999999997  0.39654  0.95394  1.0000
  C   C27       1.0  0.8309099999999998  0.43794  0.9352399999999998  1.0000
  C   C28       1.0  0.94316  0.33835  0.9504499999999999  1.0000
  C   C29       1.0  0.96324  0.28676  0.0035399999999999993  1.0000
  C   C30       1.0  0.023769999999999975  0.16613  0.0011499999999999998  1.0000
  C   C31       1.0  0.9396499999999997  0.10133  0.9135199999999998  1.0000
  C   C32       1.0  0.82618  0.08337  0.9449  1.0000
  C   C33       1.0  0.6439199999999998  0.28241  0.03853  1.0000
  C   C34       1.0  0.55006  0.38145  0.09552  1.0000
  C   C35       1.0  0.75253  0.11623  0.0966  1.0000
  C   C36       1.0  0.72682  0.0358  0.05914  1.0000
  C   C37       1.0  0.60636  0.05999  0.04488999999999999  1.0000
  C   C38       1.0  0.5641  0.06952  0.0945  1.0000
  C   C39       1.0  0.39996999999999994  0.0439  0.09118  1.0000
  C   C40       1.0  0.2774  0.18036999999999997  0.04613  1.0000
  C   C41       1.0  0.6184799999999998  0.03448  0.7419899999999999  1.0000
  C   C42       1.0  0.72379  0.88176  0.77868  1.0000
  C   C43       1.0  0.6558299999999998  0.78282  0.7019499999999999  1.0000
  C   C44       1.0  0.6981199999999996  0.68729  0.7369599999999997  1.0000
  C   C45       1.0  0.8283099999999999  0.07166  0.7184499999999998  1.0000
  C   C46       1.0  0.77587  0.21177  0.76627  1.0000
  C   C47       1.0  0.7398399999999999  0.33605  0.69376  1.0000
  C   C48       1.0  0.73527  0.42194  0.73583  1.0000
  C   C49       1.0  0.9888999999999999  0.65858  0.37584  1.0000
  C   C50       1.0  0.09033  0.60327  0.45421999999999996  1.0000
  C   C51       1.0  0.27111  0.561  0.43494  1.0000
  C   C52       1.0  0.28324  0.66069  0.44989  1.0000
  C   C53       1.0  0.25256999999999996  0.712  0.50319  1.0000
  C   C54       1.0  0.19278999999999996  0.8326499999999999  0.50097  1.0000
  C   C55       1.0  0.04239000000000002  0.8976499999999998  0.41368  1.0000
  C   C56       1.0  0.91158  0.9166  0.44595  1.0000
  C   C57       1.0  0.9280000000000002  0.7178799999999999  0.5382899999999999  1.0000
  C   C58       1.0  0.9352299999999999  0.61821  0.5955699999999999  1.0000
  C   C59       1.0  0.86949  0.88397  0.59636  1.0000
  C   C60       1.0  0.7628100000000002  0.9643599999999998  0.55896  1.0000
  C   C61       1.0  0.6671299999999999  0.93939  0.5444699999999999  1.0000
  C   C62       1.0  0.6351699999999999  0.92833  0.59401  1.0000
  C   C63       1.0  0.4465799999999999  0.9514  0.5912899999999999  1.0000
  C   C64       1.0  0.46152000000000015  0.81559  0.54536  1.0000
  C   C65       1.0  0.65311  0.96442  0.24284999999999998  1.0000
  C   C66       1.0  0.60449  0.11755  0.27898  1.0000
  C   C67       1.0  0.4373999999999998  0.21536999999999995  0.20179999999999995  1.0000
  C   C68       1.0  0.3836499999999998  0.31146  0.23642999999999995  1.0000
  C   C69       1.0  0.89775  0.92921  0.2192  1.0000
  C   C70       1.0  0.9868399999999999  0.7883699999999999  0.26659  1.0000
  C   C71       1.0  0.07344000000000009  0.66515  0.19335  1.0000
  C   C72       1.0  0.15499999999999997  0.57839  0.23505  1.0000
  C   C73       1.0  0.34961999999999993  0.65881  0.12286  1.0000
  C   C74       1.0  0.30288999999999994  0.60412  0.04444  1.0000
  C   C75       1.0  0.16343999999999995  0.56342  0.06369999999999999  1.0000
  C   C76       1.0  0.051840000000000004  0.66385  0.04897999999999999  1.0000
  C   C77       1.0  0.03151999999999999  0.71523  0.9958  1.0000
  C   C78       1.0  0.9715599999999995  0.83583  0.99821  1.0000
  C   C79       1.0  0.05708000000000008  0.8998599999999998  0.08571  1.0000
  C   C80       1.0  0.17020999999999994  0.91745  0.05383  1.0000
  C   C81       1.0  0.3511499999999999  0.71803  0.9607299999999998  1.0000
  C   C82       1.0  0.44359  0.61708  0.9036299999999999  1.0000
  C   C83       1.0  0.24449999999999994  0.88367  0.9023199999999999  1.0000
  C   C84       1.0  0.27002000000000004  0.9637299999999998  0.94021  1.0000
  C   C85       1.0  0.3905599999999999  0.93933  0.95489  1.0000
  C   C86       1.0  0.4329300000000001  0.9308499999999997  0.90548  1.0000
  C   C87       1.0  0.5971  0.95646  0.90897  1.0000
  C   C88       1.0  0.71972  0.8194499999999999  0.95358  1.0000
  C   C89       1.0  0.37925999999999976  0.96523  0.25740999999999997  1.0000
  C   C90       1.0  0.2746  0.1183  0.22106999999999993  1.0000
  C   C91       1.0  0.3435099999999998  0.21604  0.2984299999999999  1.0000
  C   C92       1.0  0.30161999999999983  0.31191  0.26377  1.0000
  C   C93       1.0  0.16778  0.9293099999999999  0.27977  1.0000
  C   C94       1.0  0.22198999999999994  0.78884  0.23227  1.0000
  C   C95       1.0  0.25966999999999996  0.66444  0.3051499999999999  1.0000
  C   C96       1.0  0.26442999999999994  0.57805  0.26336  1.0000
  N   N1        1.0  0.016510000000000004  0.35165  0.57361  1.0000
  N   N2        1.0  0.9097699999999999  0.37398  0.6302  1.0000
  N   N3        1.0  0.8440899999999997  0.41334999999999994  0.5789999999999998  1.0000
  N   N4        1.0  0.9199799999999998  0.1246  0.5320899999999998  1.0000
  N   N5        1.0  0.0028999999999999426  0.11492999999999999  0.5112099999999999  1.0000
  N   N6        1.0  0.06682999999999999  0.07139  0.59998  1.0000
  N   N7        1.0  0.04829999999999996  0.38217  0.45409999999999995  1.0000
  N   N8        1.0  0.09679  0.28808  0.37978  1.0000
  N   N9        1.0  0.10157  0.22479  0.41669  1.0000
  N   N10       1.0  0.45553999999999994  0.09439  0.42052999999999996  1.0000
  N   N11       1.0  0.44452  0.18384  0.4491  1.0000
  N   N12       1.0  0.61259  0.094  0.42943  1.0000
  N   N13       1.0  0.3132599999999999  0.98244  0.71468  1.0000
  N   N14       1.0  0.4436499999999999  0.97477  0.7902399999999999  1.0000
  N   N15       1.0  0.47595  0.87613  0.76653  1.0000
  N   N16       1.0  0.08085000000000003  0.10688  0.73025  1.0000
  N   N17       1.0  0.045899999999999996  0.14293  0.81344  1.0000
  N   N18       1.0  0.9908099999999999  0.23346  0.7823699999999998  1.0000
  N   N19       1.0  0.6302999999999997  0.3519  0.92592  1.0000
  N   N20       1.0  0.7157199999999999  0.37276999999999993  0.8694199999999997  1.0000
  N   N21       1.0  0.7407299999999998  0.41352999999999995  0.9203399999999999  1.0000
  N   N22       1.0  0.95295  0.12583  0.9671  1.0000
  N   N23       1.0  0.87878  0.11685  0.98754  1.0000
  N   N24       1.0  0.8603999999999999  0.07226  0.8989499999999999  1.0000
  N   N25       1.0  0.56616  0.3828  0.04568  1.0000
  N   N26       1.0  0.6114  0.28857  0.11985999999999997  1.0000
  N   N27       1.0  0.67148  0.22571  0.08337  1.0000
  N   N28       1.0  0.44805  0.09575999999999997  0.07971  1.0000
  N   N29       1.0  0.36964  0.18494  0.05080999999999999  1.0000
  N   N30       1.0  0.29122  0.0953  0.07017  1.0000
  N   N31       1.0  0.7048600000000002  0.98253  0.7845399999999999  1.0000
  N   N32       1.0  0.5811799999999999  0.9740899999999998  0.70976  1.0000
  N   N33       1.0  0.6487500000000002  0.8756199999999998  0.7336999999999998  1.0000
  N   N34       1.0  0.81035  0.10821999999999998  0.7681899999999999  1.0000
  N   N35       1.0  0.8083699999999998  0.14569  0.6850899999999999  1.0000
  N   N36       1.0  0.77451  0.23541  0.71677  1.0000
  N   N37       1.0  0.9843100000000001  0.64744  0.42621  1.0000
  N   N38       1.0  0.09048000000000005  0.62465  0.36924  1.0000
  N   N39       1.0  0.15655999999999998  0.58509  0.42034999999999995  1.0000
  N   N40       1.0  0.08108  0.87348  0.46731999999999996  1.0000
  N   N41       1.0  0.9983800000000002  0.883  0.4882999999999999  1.0000
  N   N42       1.0  0.9338199999999997  0.92716  0.3995999999999999  1.0000
  N   N43       1.0  0.95182  0.61725  0.54558  1.0000
  N   N44       1.0  0.90301  0.7111  0.6198899999999999  1.0000
  N   N45       1.0  0.8987699999999998  0.77442  0.58318  1.0000
  N   N46       1.0  0.54613  0.90118  0.57915  1.0000
  N   N47       1.0  0.5575300000000002  0.81249  0.5496799999999998  1.0000
  N   N48       1.0  0.39018  0.89926  0.57015  1.0000
  N   N49       1.0  0.68687  0.01691  0.28527  1.0000
  N   N50       1.0  0.55541  0.02436  0.21033  1.0000
  N   N51       1.0  0.52374  0.12312  0.23389  1.0000
  N   N52       1.0  0.9176399999999998  0.8918899999999997  0.2689099999999999  1.0000
  N   N53       1.0  0.9512199999999992  0.8557099999999999  0.18542999999999998  1.0000
  N   N54       1.0  0.008039999999999993  0.76551  0.21684  1.0000
  N   N55       1.0  0.36527000000000004  0.6476099999999999  0.07247  1.0000
  N   N56       1.0  0.28151  0.62558  0.12948  1.0000
  N   N57       1.0  0.2545799999999999  0.58641  0.07831999999999999  1.0000
  N   N58       1.0  0.04301999999999996  0.87558  0.03208  1.0000
  N   N59       1.0  0.11695000000000011  0.8843099999999999  0.011319999999999997  1.0000
  N   N60       1.0  0.13664999999999997  0.92852  0.09996999999999999  1.0000
  N   N61       1.0  0.4275199999999998  0.61693  0.9536199999999998  1.0000
  N   N62       1.0  0.38362999999999997  0.7099  0.8791599999999999  1.0000
  N   N63       1.0  0.32455999999999985  0.77402  0.9157599999999998  1.0000
  N   N64       1.0  0.5489800000000001  0.9045799999999999  0.9203599999999997  1.0000
  N   N65       1.0  0.6274100000000001  0.8150399999999999  0.94898  1.0000
  N   N66       1.0  0.70591  0.90474  0.9297499999999999  1.0000
  N   N67       1.0  0.29322  0.0176  0.21482  1.0000
  N   N68       1.0  0.41666999999999993  0.025169999999999998  0.28995999999999994  1.0000
  N   N69       1.0  0.34954999999999997  0.12384999999999997  0.26631999999999995  1.0000
  N   N70       1.0  0.18648999999999993  0.89258  0.23018  1.0000
  N   N71       1.0  0.18821000000000007  0.8552199999999999  0.31323  1.0000
  N   N72       1.0  0.22311000000000006  0.76527  0.28176  1.0000
