data_image0
_chemical_formula_structural       Ni4H120W2C64N40
_chemical_formula_sum              "Ni4 H120 W2 C64 N40"
_cell_length_a       15.76457
_cell_length_b       15.77727
_cell_length_c       15.71053
_cell_angle_alpha    106.84302
_cell_angle_beta     106.70086
_cell_angle_gamma    115.32409

_symmetry_space_group_name_H-M    'P 1'
_symmetry_Int_Tables_number       1

loop_
  _symmetry_equiv_pos_as_xyz
  'x,y,z'

loop_
  _atom_site_type_symbol
  _atom_site_label
  _atom_site_symmetry_multiplicity
  _atom_site_fract_x
  _atom_site_fract_y
  _atom_site_fract_z
  _atom_site_occupancy
  Ni  Ni1       1.0  0.49988  0.49988999999999995  0.9999199999999999  1.0000
  Ni  Ni2       1.0  0.50006  0.9999199999999999  0.49996999999999997  1.0000
  Ni  Ni3       1.0  0.9999099999999999  3.9999999999938834e-05  0.4999999999999999  1.0000
  Ni  Ni4       1.0  0.49998  4.0000000000001115e-05  0.99997  1.0000
  H   H1        1.0  0.29233  0.44441  0.82674  1.0000
  H   H2        1.0  0.27742999999999995  0.5455899999999999  0.89405  1.0000
  H   H3        1.0  0.25500999999999996  0.33650999999999986  0.91042  1.0000
  H   H4        1.0  0.21217999999999992  0.4119299999999999  0.9724499999999999  1.0000
  H   H5        1.0  0.38475  0.32062  0.12494999999999998  1.0000
  H   H6        1.0  0.3478899999999999  0.28255  0.99526  1.0000
  H   H7        1.0  0.41187  0.6212  0.83728  1.0000
  H   H8        1.0  0.4747  0.6804  0.97127  1.0000
  H   H9        1.0  0.42946  0.55209  0.18852  1.0000
  H   H10       1.0  0.29412999999999995  0.5028599999999999  0.14474  1.0000
  H   H11       1.0  0.37578  0.51765  0.31366  1.0000
  H   H12       1.0  0.27483999999999986  0.38089  0.22299  1.0000
  H   H13       1.0  0.4122  0.4301299999999999  0.26805  1.0000
  H   H14       1.0  0.38482999999999995  0.5683099999999998  0.0447  1.0000
  H   H15       1.0  0.47239  0.50489  0.8358199999999999  1.0000
  H   H16       1.0  0.6180699999999999  0.9663199999999997  0.67308  1.0000
  H   H17       1.0  0.6520999999999999  0.8840699999999997  0.6060599999999998  1.0000
  H   H18       1.0  0.4261999999999999  0.8446999999999998  0.58904  1.0000
  H   H19       1.0  0.43949  0.73972  0.5269  1.0000
  H   H20       1.0  0.19485999999999987  0.75903  0.37426  1.0000
  H   H21       1.0  0.28686999999999996  0.8522299999999998  0.50409  1.0000
  H   H22       1.0  0.78471  0.07555999999999999  0.6630599999999999  1.0000
  H   H23       1.0  0.70962  0.0038799999999999833  0.52905  1.0000
  H   H24       1.0  0.36323  0.74027  0.31127  1.0000
  H   H25       1.0  0.3574699999999999  0.64871  0.35476999999999986  1.0000
  H   H26       1.0  0.20276  0.56096  0.18550999999999995  1.0000
  H   H27       1.0  0.15679999999999986  0.5509299999999998  0.27593999999999996  1.0000
  H   H28       1.0  0.1611799999999999  0.6432499999999998  0.23128  1.0000
  H   H29       1.0  0.5237299999999999  0.8400499999999999  0.45506999999999986  1.0000
  H   H30       1.0  0.6694999999999999  0.13717999999999986  0.6644299999999997  1.0000
  H   H31       1.0  0.9451899999999995  0.11753999999999991  0.6526899999999998  1.0000
  H   H32       1.0  0.04633999999999997  0.15259999999999996  0.76989  1.0000
  H   H33       1.0  0.83719  0.92572  0.58208  1.0000
  H   H34       1.0  0.91332  0.93966  0.70087  1.0000
  H   H35       1.0  0.8199399999999999  0.6951099999999998  0.4343799999999999  1.0000
  H   H36       1.0  0.78248  0.78652  0.4335399999999999  1.0000
  H   H37       1.0  0.12219999999999999  0.28482  0.71113  1.0000
  H   H38       1.0  0.18111999999999998  0.21060999999999994  0.70772  1.0000
  H   H39       1.0  0.05201999999999991  0.86459  0.6231699999999998  1.0000
  H   H40       1.0  0.0029799999999998985  0.8591099999999999  0.7094099999999999  1.0000
  H   H41       1.0  0.016659999999999904  0.7047799999999997  0.64162  1.0000
  H   H42       1.0  0.88026  0.6584099999999998  0.6057099999999999  1.0000
  H   H43       1.0  0.9288499999999998  0.6623599999999997  0.51696  1.0000
  H   H44       1.0  0.06910999999999999  0.024940000000000007  0.68478  1.0000
  H   H45       1.0  0.005299999999999995  0.16852999999999999  0.53289  1.0000
  H   H46       1.0  0.4643399999999999  0.79213  0.84704  1.0000
  H   H47       1.0  0.38181  0.77572  0.72996  1.0000
  H   H48       1.0  0.34312999999999994  0.75476  0.91727  1.0000
  H   H49       1.0  0.23789  0.71171  0.79844  1.0000
  H   H50       1.0  0.26025  0.8852999999999998  0.06475  1.0000
  H   H51       1.0  0.35276999999999975  0.8489599999999998  0.06578  1.0000
  H   H52       1.0  0.5733399999999998  0.91073  0.78904  1.0000
  H   H53       1.0  0.5024699999999998  0.9729799999999997  0.79256  1.0000
  H   H54       1.0  0.24082999999999977  0.9282699999999997  0.8764199999999998  1.0000
  H   H55       1.0  0.14846000000000004  0.7927699999999999  0.79004  1.0000
  H   H56       1.0  0.062439999999999676  0.8747599999999995  0.8577899999999998  1.0000
  H   H57       1.0  0.05169999999999999  0.7743399999999998  0.89358  1.0000
  H   H58       1.0  0.14508999999999983  0.9120099999999997  0.9824899999999999  1.0000
  H   H59       1.0  0.33957999999999994  0.8838499999999999  0.81503  1.0000
  H   H60       1.0  0.63577  0.9723699999999997  0.96719  1.0000
  H   H61       1.0  0.7076299999999998  0.55558  0.17323  1.0000
  H   H62       1.0  0.7225999999999999  0.4543899999999999  0.10597999999999998  1.0000
  H   H63       1.0  0.74495  0.66345  0.08957  1.0000
  H   H64       1.0  0.78785  0.58809  0.02756  1.0000
  H   H65       1.0  0.6152499999999994  0.6793899999999996  0.8750599999999997  1.0000
  H   H66       1.0  0.65206  0.7174  0.004719999999999999  1.0000
  H   H67       1.0  0.58813  0.3788  0.16274  1.0000
  H   H68       1.0  0.5253  0.3195799999999999  0.02873  1.0000
  H   H69       1.0  0.57054  0.44789999999999996  0.81146  1.0000
  H   H70       1.0  0.70587  0.4971499999999999  0.85525  1.0000
  H   H71       1.0  0.62421  0.4823599999999999  0.68633  1.0000
  H   H72       1.0  0.72516  0.6191199999999998  0.77702  1.0000
  H   H73       1.0  0.5878  0.56988  0.73195  1.0000
  H   H74       1.0  0.6152099999999999  0.4316499999999998  0.9552799999999998  1.0000
  H   H75       1.0  0.52759  0.4951  0.16412  1.0000
  H   H76       1.0  0.38193  0.03368999999999994  0.32690999999999987  1.0000
  H   H77       1.0  0.34795  0.11595999999999995  0.3939599999999999  1.0000
  H   H78       1.0  0.57386  0.15534999999999993  0.41096999999999995  1.0000
  H   H79       1.0  0.56052  0.2602799999999999  0.47310999999999986  1.0000
  H   H80       1.0  0.80515  0.24095999999999992  0.62575  1.0000
  H   H81       1.0  0.7132  0.14780999999999997  0.4959099999999999  1.0000
  H   H82       1.0  0.2152899999999999  0.9244499999999998  0.33695  1.0000
  H   H83       1.0  0.2904499999999999  0.9961099999999998  0.47094999999999987  1.0000
  H   H84       1.0  0.63678  0.25971999999999995  0.68872  1.0000
  H   H85       1.0  0.64252  0.35126  0.6452  1.0000
  H   H86       1.0  0.7972299999999998  0.43903999999999976  0.8144799999999998  1.0000
  H   H87       1.0  0.8432  0.44907  0.72406  1.0000
  H   H88       1.0  0.83882  0.35674999999999985  0.7687199999999997  1.0000
  H   H89       1.0  0.4763200000000001  0.15988  0.54492  1.0000
  H   H90       1.0  0.33047999999999994  0.8627699999999998  0.33551  1.0000
  H   H91       1.0  0.054790000000000026  0.8825300000000001  0.34738  1.0000
  H   H92       1.0  0.95365  0.8474  0.23009999999999994  1.0000
  H   H93       1.0  0.16275  0.07425  0.41794  1.0000
  H   H94       1.0  0.08667999999999998  0.060349999999999966  0.29913  1.0000
  H   H95       1.0  0.18008999999999994  0.3049399999999999  0.56565  1.0000
  H   H96       1.0  0.21743999999999988  0.21344  0.56648  1.0000
  H   H97       1.0  0.8778099999999999  0.7151999999999997  0.28892  1.0000
  H   H98       1.0  0.81883  0.78937  0.29224  1.0000
  H   H99       1.0  0.94797  0.13541  0.37682  1.0000
  H   H100      1.0  0.99702  0.1409  0.29058999999999996  1.0000
  H   H101      1.0  0.9833399999999999  0.29523999999999995  0.3583799999999999  1.0000
  H   H102      1.0  0.11973999999999992  0.34159999999999985  0.3942899999999999  1.0000
  H   H103      1.0  0.0711499999999999  0.3376499999999999  0.4830399999999999  1.0000
  H   H104      1.0  0.93085  0.9750599999999997  0.31517  1.0000
  H   H105      1.0  0.9947  0.8316  0.46717  1.0000
  H   H106      1.0  0.53566  0.20792  0.153  1.0000
  H   H107      1.0  0.6182  0.22430999999999995  0.27007  1.0000
  H   H108      1.0  0.6568899999999998  0.24527999999999994  0.08274  1.0000
  H   H109      1.0  0.76212  0.2883199999999999  0.20156999999999994  1.0000
  H   H110      1.0  0.73973  0.11468999999999979  0.9352599999999998  1.0000
  H   H111      1.0  0.64726  0.15109  0.93422  1.0000
  H   H112      1.0  0.42668  0.08929999999999995  0.21099999999999994  1.0000
  H   H113      1.0  0.49752  0.027039999999999974  0.20742999999999995  1.0000
  H   H114      1.0  0.75917  0.07173999999999997  0.12357999999999997  1.0000
  H   H115      1.0  0.85154  0.20724  0.20996  1.0000
  H   H116      1.0  0.9375499999999999  0.12525  0.14221  1.0000
  H   H117      1.0  0.9483  0.22566  0.10641  1.0000
  H   H118      1.0  0.85491  0.088  0.01751  1.0000
  H   H119      1.0  0.66038  0.11613999999999998  0.18494  1.0000
  H   H120      1.0  0.36417  0.027669999999999997  0.03284999999999999  1.0000
  W   W1        1.0  0.37510999999999994  0.12472999999999992  0.7501  1.0000
  W   W2        1.0  0.62486  0.8752299999999997  0.24983  1.0000
  C   C1        1.0  0.3996299999999999  0.2761199999999998  0.8259899999999998  1.0000
  C   C2        1.0  0.54617  0.2414099999999999  0.8468  1.0000
  C   C3        1.0  0.3326299999999999  0.5200899999999999  0.89564  1.0000
  C   C4        1.0  0.2805500000000001  0.406  0.97843  1.0000
  C   C5        1.0  0.3829799999999998  0.34997999999999996  0.06934999999999998  1.0000
  C   C6        1.0  0.43327999999999994  0.6053599999999999  0.9014  1.0000
  C   C7        1.0  0.35106  0.47978  0.16149999999999995  1.0000
  C   C8        1.0  0.35309999999999997  0.44963  0.24573999999999993  1.0000
  C   C9        1.0  0.45054  0.07348000000000002  0.67409  1.0000
  C   C10       1.0  0.39522999999999986  0.1991299999999999  0.6538499999999998  1.0000
  C   C11       1.0  0.6248499999999998  0.9375199999999997  0.6043199999999999  1.0000
  C   C12       1.0  0.42751  0.80205  0.52104  1.0000
  C   C13       1.0  0.2800899999999999  0.8130899999999998  0.43003  1.0000
  C   C14       1.0  0.70449  0.032480000000000064  0.59882  1.0000
  C   C15       1.0  0.3177  0.6889  0.33799  1.0000
  C   C16       1.0  0.20298  0.60645  0.25348  1.0000
  C   C17       1.0  0.7766999999999998  0.9505899999999998  0.37696  1.0000
  C   C18       1.0  0.7404499999999999  0.8952099999999997  0.19453999999999996  1.0000
  C   C19       1.0  0.02081999999999997  0.12497999999999992  0.68866  1.0000
  C   C20       1.0  0.9067299999999999  0.9276999999999999  0.6260399999999999  1.0000
  C   C21       1.0  0.8496599999999994  0.7801899999999998  0.4660499999999999  1.0000
  C   C22       1.0  0.1061499999999999  0.20483999999999986  0.6736799999999998  1.0000
  C   C23       1.0  0.9796599999999999  0.8189399999999998  0.62887  1.0000
  C   C24       1.0  0.94885  0.7044399999999998  0.5961699999999999  1.0000
  C   C25       1.0  0.57326  0.8998999999999998  0.12295  1.0000
  C   C26       1.0  0.7003399999999999  0.04634  0.30557  1.0000
  C   C27       1.0  0.4357699999999999  0.8317099999999997  0.81119  1.0000
  C   C28       1.0  0.3009699999999998  0.7801899999999998  0.8733899999999998  1.0000
  C   C29       1.0  0.31384  0.88353  0.03333  1.0000
  C   C30       1.0  0.5308499999999999  0.9321599999999997  0.8264899999999998  1.0000
  C   C31       1.0  0.18928  0.85023  0.8706  1.0000
  C   C32       1.0  0.1075599999999999  0.8524599999999999  0.9032499999999998  1.0000
  C   C33       1.0  0.60032  0.7238  0.1739  1.0000
  C   C34       1.0  0.45376  0.75853  0.15308999999999995  1.0000
  C   C35       1.0  0.6673699999999997  0.47988999999999987  0.10435  1.0000
  C   C36       1.0  0.7194399999999999  0.5939699999999998  0.021569999999999995  1.0000
  C   C37       1.0  0.617  0.65  0.93064  1.0000
  C   C38       1.0  0.56673  0.39462  0.09859  1.0000
  C   C39       1.0  0.6489399999999999  0.5202199999999998  0.8384999999999999  1.0000
  C   C40       1.0  0.6469  0.55038  0.75426  1.0000
  C   C41       1.0  0.54942  0.92647  0.32585  1.0000
  C   C42       1.0  0.6047099999999999  0.8008099999999997  0.3460199999999999  1.0000
  C   C43       1.0  0.37518  0.062479999999999966  0.39568999999999993  1.0000
  C   C44       1.0  0.57251  0.19793999999999992  0.4789599999999999  1.0000
  C   C45       1.0  0.71994  0.18691999999999995  0.5699599999999999  1.0000
  C   C46       1.0  0.2955399999999999  0.9675099999999998  0.40116  1.0000
  C   C47       1.0  0.6823  0.31109  0.662  1.0000
  C   C48       1.0  0.7970199999999998  0.39354999999999984  0.7465099999999998  1.0000
  C   C49       1.0  0.2233299999999999  0.04941999999999988  0.6230599999999997  1.0000
  C   C50       1.0  0.25953  0.10473999999999993  0.80536  1.0000
  C   C51       1.0  0.9791499999999996  0.8750399999999999  0.31132999999999994  1.0000
  C   C52       1.0  0.09324  0.0723  0.37396  1.0000
  C   C53       1.0  0.15030999999999992  0.21982999999999994  0.53395  1.0000
  C   C54       1.0  0.89382  0.7951799999999998  0.32633  1.0000
  C   C55       1.0  0.020319999999999956  0.18106999999999995  0.37112  1.0000
  C   C56       1.0  0.05114999999999999  0.29557  0.40383  1.0000
  C   C57       1.0  0.42669  0.10007999999999999  0.87694  1.0000
  C   C58       1.0  0.2996  0.95359  0.6943199999999999  1.0000
  C   C59       1.0  0.56423  0.16831999999999994  0.18883  1.0000
  C   C60       1.0  0.6990399999999999  0.21983999999999995  0.12662  1.0000
  C   C61       1.0  0.68616  0.1165  0.96668  1.0000
  C   C62       1.0  0.46914  0.06786999999999997  0.17352  1.0000
  C   C63       1.0  0.81071  0.14978  0.1294  1.0000
  C   C64       1.0  0.8924299999999998  0.14754999999999993  0.09674999999999997  1.0000
  N   N1        1.0  0.41137  0.35623  0.87659  1.0000
  N   N2        1.0  0.6382699999999999  0.30968999999999985  0.8951299999999998  1.0000
  N   N3        1.0  0.3648999999999999  0.5026999999999999  0.9836999999999998  1.0000
  N   N4        1.0  0.3168  0.39144999999999996  0.06555  1.0000
  N   N5        1.0  0.5058099999999999  0.5690699999999996  0.9043299999999999  1.0000
  N   N6        1.0  0.47986999999999985  0.03480999999999985  0.6232099999999998  1.0000
  N   N7        1.0  0.41525999999999996  0.2428799999999999  0.6058199999999999  1.0000
  N   N8        1.0  0.5190699999999999  0.8812299999999998  0.51596  1.0000
  N   N9        1.0  0.3254299999999998  0.7507799999999998  0.43384999999999996  1.0000
  N   N10       1.0  0.66519  0.10201999999999994  0.59599  1.0000
  N   N11       1.0  0.8568499999999998  0.9792299999999996  0.44485999999999987  1.0000
  N   N12       1.0  0.80818  0.91486  0.17039  1.0000
  N   N13       1.0  0.0033700000000000006  0.019610000000000016  0.63873  1.0000
  N   N14       1.0  0.8915699999999999  0.8259599999999998  0.57445  1.0000
  N   N15       1.0  0.0696  0.1651  0.56416  1.0000
  N   N16       1.0  0.53432  0.91221  0.05511  1.0000
  N   N17       1.0  0.74442  0.13835999999999996  0.33  1.0000
  N   N18       1.0  0.3803699999999998  0.8642699999999998  0.86105  1.0000
  N   N19       1.0  0.25087  0.81669  0.9249099999999998  1.0000
  N   N20       1.0  0.60093  0.005349999999999993  0.93613  1.0000
  N   N21       1.0  0.58864  0.6437  0.12336999999999998  1.0000
  N   N22       1.0  0.3616599999999999  0.6902399999999997  0.10481  1.0000
  N   N23       1.0  0.63506  0.49723999999999996  0.01625  1.0000
  N   N24       1.0  0.68321  0.60854  0.93446  1.0000
  N   N25       1.0  0.49416999999999994  0.4308899999999999  0.09563  1.0000
  N   N26       1.0  0.52014  0.96518  0.37676  1.0000
  N   N27       1.0  0.5847499999999999  0.7571299999999999  0.39413  1.0000
  N   N28       1.0  0.48095999999999994  0.11870999999999995  0.48400999999999994  1.0000
  N   N29       1.0  0.6745899999999999  0.24921999999999989  0.5661499999999999  1.0000
  N   N30       1.0  0.33482  0.89795  0.40396  1.0000
  N   N31       1.0  0.14319  0.02085999999999999  0.5552  1.0000
  N   N32       1.0  0.19186  0.08514999999999998  0.82959  1.0000
  N   N33       1.0  0.9965799999999999  0.98041  0.3612599999999999  1.0000
  N   N34       1.0  0.10840999999999996  0.17404999999999995  0.42554999999999993  1.0000
  N   N35       1.0  0.93037  0.83498  0.43586  1.0000
  N   N36       1.0  0.4656299999999998  0.08786999999999992  0.9448499999999999  1.0000
  N   N37       1.0  0.2555499999999999  0.8615899999999997  0.6699799999999999  1.0000
  N   N38       1.0  0.61962  0.13576  0.13894  1.0000
  N   N39       1.0  0.74913  0.18333  0.0751  1.0000
  N   N40       1.0  0.39904999999999996  0.9946899999999997  0.06387  1.0000
