data_image0
_chemical_formula_structural       Ag6H90C90N36O6
_chemical_formula_sum              "Ag6 H90 C90 N36 O6"
_cell_length_a       11.4249
_cell_length_b       17.675130000000003
_cell_length_c       17.67461
_cell_angle_alpha    115.63417000000001
_cell_angle_beta     102.49580999999999
_cell_angle_gamma    102.49266

_space_group_name_H-M_alt    "P 1"
_space_group_IT_number       1

loop_
  _space_group_symop_operation_xyz
  'x, y, z'

loop_
  _atom_site_type_symbol
  _atom_site_label
  _atom_site_symmetry_multiplicity
  _atom_site_fract_x
  _atom_site_fract_y
  _atom_site_fract_z
  _atom_site_occupancy
  Ag  Ag1       1.0  0.65523  0.43314000000000014  0.8029200000000002  1.0000
  Ag  Ag2       1.0  0.85167  0.19693  0.62949  1.0000
  Ag  Ag3       1.0  0.22204  0.37016  0.56723  1.0000
  Ag  Ag4       1.0  0.34477  0.56687  0.19708  1.0000
  Ag  Ag5       1.0  0.14833000000000005  0.80308  0.37051  1.0000
  Ag  Ag6       1.0  0.7779600000000001  0.62984  0.43277  1.0000
  H   H1        1.0  0.40866  0.66226  0.7985  1.0000
  H   H2        1.0  0.494  0.67118  0.7269  1.0000
  H   H3        1.0  0.30215  0.66181  0.61907  1.0000
  H   H4        1.0  0.23051  0.66927  0.70106  1.0000
  H   H5        1.0  0.013179999999999933  0.63936  0.63003  1.0000
  H   H6        1.0  0.19577000000000003  0.46135  0.49051  1.0000
  H   H7        1.0  0.59458  0.74678  0.89088  1.0000
  H   H8        1.0  0.83353  0.79501  0.00814  1.0000
  H   H9        1.0  0.8986000000000001  0.64519  0.93994  1.0000
  H   H10       1.0  0.25702  0.54063  0.77678  1.0000
  H   H11       1.0  0.17397000000000007  0.39357  0.79435  1.0000
  H   H12       1.0  0.36687  0.32405  0.78532  1.0000
  H   H13       1.0  0.7042300000000001  0.59102  0.68629  1.0000
  H   H14       1.0  0.66045  0.4554  0.51722  1.0000
  H   H15       1.0  0.42652  0.3331  0.47293  1.0000
  H   H16       1.0  0.61081  0.20259000000000002  0.86401  1.0000
  H   H17       1.0  0.76799  0.2749700000000001  0.94478  1.0000
  H   H18       1.0  0.68275  0.38166  0.04287  1.0000
  H   H19       1.0  0.52894  0.29935  0.96748  1.0000
  H   H20       1.0  0.3826  0.36988  0.00859  1.0000
  H   H21       1.0  0.70542  0.50957  0.97111  1.0000
  H   H22       1.0  0.7036  0.11066000000000002  0.85574  1.0000
  H   H23       1.0  0.82588  0.99393  0.78734  1.0000
  H   H24       1.0  0.95923  0.061620000000000036  0.70564  1.0000
  H   H25       1.0  0.48024999999999995  0.22413999999999995  0.76379  1.0000
  H   H26       1.0  0.37924  0.20619  0.59898  1.0000
  H   H27       1.0  0.5807200000000001  0.21430000000000013  0.5380000000000003  1.0000
  H   H28       1.0  0.018880000000000022  0.31523  0.90496  1.0000
  H   H29       1.0  0.14427000000000004  0.48391  0.93837  1.0000
  H   H30       1.0  0.95402  0.52745  0.86012  1.0000
  H   H31       1.0  0.74536  0.13524  0.3381  1.0000
  H   H32       1.0  0.8220799999999999  0.05480999999999999  0.3289  1.0000
  H   H33       1.0  0.63847  0.95616  0.33782  1.0000
  H   H34       1.0  0.56046  0.03153  0.33117  1.0000
  H   H35       1.0  0.37368999999999997  0.9911999999999999  0.36117  1.0000
  H   H36       1.0  0.73447  0.028390000000000037  0.53816  1.0000
  H   H37       1.0  0.8462300000000001  0.14285  0.25376  1.0000
  H   H38       1.0  0.03632  0.21192  0.20541  1.0000
  H   H39       1.0  0.25217  0.29429  0.35503  1.0000
  H   H40       1.0  0.7157600000000001  0.2356  0.45922  1.0000
  H   H41       1.0  0.7802000000000003  0.4011000000000002  0.6062000000000002  1.0000
  H   H42       1.0  0.04274000000000001  0.46228  0.67592  1.0000
  H   H43       1.0  0.11292000000000002  0.09486  0.40936  1.0000
  H   H44       1.0  0.20515  0.06201  0.54487  1.0000
  H   H45       1.0  0.09377000000000013  0.14063000000000012  0.6671000000000002  1.0000
  H   H46       1.0  0.59134  0.33775  0.20150000000000004  1.0000
  H   H47       1.0  0.5060100000000002  0.32882  0.2731  1.0000
  H   H48       1.0  0.69785  0.33819  0.38093  1.0000
  H   H49       1.0  0.7695  0.33073  0.29893  1.0000
  H   H50       1.0  0.9868300000000001  0.36064  0.36997  1.0000
  H   H51       1.0  0.8042299999999997  0.53865  0.50949  1.0000
  H   H52       1.0  0.40543  0.25323  0.10912  1.0000
  H   H53       1.0  0.16646999999999992  0.2049899999999999  0.99186  1.0000
  H   H54       1.0  0.1014  0.35481  0.06005  1.0000
  H   H55       1.0  0.74299  0.45937  0.22321  1.0000
  H   H56       1.0  0.82603  0.60643  0.20565  1.0000
  H   H57       1.0  0.6331400000000001  0.6759600000000001  0.21467000000000003  1.0000
  H   H58       1.0  0.29578000000000004  0.4089900000000001  0.31371000000000004  1.0000
  H   H59       1.0  0.33955  0.5446  0.48278  1.0000
  H   H60       1.0  0.57349  0.66691  0.52707  1.0000
  H   H61       1.0  0.38919000000000004  0.79742  0.13599  1.0000
  H   H62       1.0  0.23202  0.72503  0.05522  1.0000
  H   H63       1.0  0.31725000000000003  0.6183500000000001  0.9571300000000003  1.0000
  H   H64       1.0  0.47106  0.70066  0.03252  1.0000
  H   H65       1.0  0.6174100000000001  0.63012  0.99141  1.0000
  H   H66       1.0  0.29458  0.49043  0.02889  1.0000
  H   H67       1.0  0.29641  0.88934  0.14426  1.0000
  H   H68       1.0  0.17413000000000003  0.006070000000000036  0.21266000000000004  1.0000
  H   H69       1.0  0.04078  0.93838  0.29435  1.0000
  H   H70       1.0  0.51976  0.77586  0.2362  1.0000
  H   H71       1.0  0.62076  0.79382  0.40102000000000004  1.0000
  H   H72       1.0  0.41928000000000004  0.7857000000000001  0.4619900000000001  1.0000
  H   H73       1.0  0.98112  0.68477  0.09503  1.0000
  H   H74       1.0  0.85573  0.5161  0.06163  1.0000
  H   H75       1.0  0.045980000000000014  0.47256000000000004  0.13987  1.0000
  H   H76       1.0  0.2546500000000001  0.86476  0.6619  1.0000
  H   H77       1.0  0.17792000000000008  0.9452000000000002  0.6711  1.0000
  H   H78       1.0  0.36154  0.04383999999999996  0.66217  1.0000
  H   H79       1.0  0.43955  0.96847  0.66883  1.0000
  H   H80       1.0  0.6263099999999999  0.008810000000000037  0.63883  1.0000
  H   H81       1.0  0.26552999999999993  0.97161  0.4618400000000001  1.0000
  H   H82       1.0  0.15377999999999997  0.85716  0.74623  1.0000
  H   H83       1.0  0.9636799999999998  0.78809  0.79459  1.0000
  H   H84       1.0  0.7478400000000001  0.70571  0.64497  1.0000
  H   H85       1.0  0.28425  0.7644  0.54077  1.0000
  H   H86       1.0  0.21980000000000002  0.59891  0.39379  1.0000
  H   H87       1.0  0.9572599999999999  0.53773  0.32407  1.0000
  H   H88       1.0  0.8870800000000001  0.90515  0.59064  1.0000
  H   H89       1.0  0.79485  0.9380000000000001  0.45512  1.0000
  H   H90       1.0  0.90623  0.85937  0.3329  1.0000
  C   C1        1.0  0.49848000000000003  0.56173  0.74962  1.0000
  C   C2        1.0  0.42843000000000003  0.62375  0.73719  1.0000
  C   C3        1.0  0.24475000000000005  0.62185  0.64114  1.0000
  C   C4        1.0  0.11827999999999998  0.55791  0.56892  1.0000
  C   C5        1.0  0.007590000000000002  0.57819  0.57315  1.0000
  C   C6        1.0  0.11068000000000006  0.4784000000000001  0.49528000000000005  1.0000
  C   C7        1.0  0.65647  0.70825  0.88912  1.0000
  C   C8        1.0  0.7775900000000001  0.73099  0.94776  1.0000
  C   C9        1.0  0.8121  0.6548  0.91267  1.0000
  C   C10       1.0  0.30274  0.49368  0.7782700000000002  1.0000
  C   C11       1.0  0.26291  0.41864  0.78627  1.0000
  C   C12       1.0  0.35998  0.3819  0.78034  1.0000
  C   C13       1.0  0.62238  0.5303200000000001  0.6409700000000003  1.0000
  C   C14       1.0  0.59864  0.46036  0.55629  1.0000
  C   C15       1.0  0.47951000000000005  0.39761  0.53312  1.0000
  C   C16       1.0  0.7490800000000001  0.2512800000000002  0.8120700000000002  1.0000
  C   C17       1.0  0.6918  0.26401  0.88674  1.0000
  C   C18       1.0  0.60342  0.3594  0.98049  1.0000
  C   C19       1.0  0.54918  0.4313  0.98884  1.0000
  C   C20       1.0  0.43412  0.42683  0.00469  1.0000
  C   C21       1.0  0.61554  0.5049  0.98332  1.0000
  C   C22       1.0  0.76769  0.11244999999999998  0.81928  1.0000
  C   C23       1.0  0.83034  0.054029999999999995  0.78357  1.0000
  C   C24       1.0  0.89995  0.08890000000000002  0.74244  1.0000
  C   C25       1.0  0.52437  0.22237  0.71523  1.0000
  C   C26       1.0  0.47628  0.21409000000000006  0.6320300000000001  1.0000
  C   C27       1.0  0.57912  0.21960000000000013  0.6010100000000003  1.0000
  C   C28       1.0  0.9821  0.36023  0.88957  1.0000
  C   C29       1.0  0.04317999999999999  0.44478  0.90431  1.0000
  C   C30       1.0  0.9470100000000001  0.46760000000000007  0.86469  1.0000
  C   C31       1.0  0.93636  0.18751000000000007  0.4385700000000001  1.0000
  C   C32       1.0  0.80407  0.11261999999999997  0.37646  1.0000
  C   C33       1.0  0.62205  0.01867000000000005  0.3781900000000001  1.0000
  C   C34       1.0  0.56005  0.010769999999999988  0.44219  1.0000
  C   C35       1.0  0.42916000000000004  0.99524  0.42213  1.0000
  C   C36       1.0  0.63237  0.016489999999999994  0.52139  1.0000
  C   C37       1.0  0.9468900000000001  0.17983  0.29217  1.0000
  C   C38       1.0  0.04496999999999999  0.21576  0.26939  1.0000
  C   C39       1.0  0.15615  0.25725  0.34554  1.0000
  C   C40       1.0  0.8086399999999999  0.28436  0.50629  1.0000
  C   C41       1.0  0.84405  0.36783  0.58126  1.0000
  C   C42       1.0  0.9780400000000002  0.3989800000000001  0.6181300000000002  1.0000
  C   C43       1.0  0.09193999999999998  0.11049999999999995  0.47  1.0000
  C   C44       1.0  0.13834999999999997  0.09608  0.53991  1.0000
  C   C45       1.0  0.08222  0.13597000000000006  0.60262  1.0000
  C   C46       1.0  0.50152  0.43827  0.25037  1.0000
  C   C47       1.0  0.57157  0.37625  0.26281  1.0000
  C   C48       1.0  0.7552500000000001  0.37815  0.35886  1.0000
  C   C49       1.0  0.88172  0.4421  0.43107  1.0000
  C   C50       1.0  0.9924100000000001  0.42182  0.42684  1.0000
  C   C51       1.0  0.8893300000000001  0.52161  0.50472  1.0000
  C   C52       1.0  0.34353  0.29176  0.11087  1.0000
  C   C53       1.0  0.22241  0.26901  0.05223  1.0000
  C   C54       1.0  0.18791  0.3452  0.08732000000000002  1.0000
  C   C55       1.0  0.69726  0.50632  0.22173  1.0000
  C   C56       1.0  0.7371000000000001  0.58137  0.21373  1.0000
  C   C57       1.0  0.64003  0.61811  0.21966  1.0000
  C   C58       1.0  0.37761999999999996  0.46969000000000005  0.35903  1.0000
  C   C59       1.0  0.40136  0.53964  0.44371  1.0000
  C   C60       1.0  0.52049  0.60239  0.46687  1.0000
  C   C61       1.0  0.25092000000000003  0.7487200000000002  0.18792  1.0000
  C   C62       1.0  0.30821  0.73599  0.11326  1.0000
  C   C63       1.0  0.39658  0.64061  0.0195  1.0000
  C   C64       1.0  0.45083  0.5687  0.01116  1.0000
  C   C65       1.0  0.56588  0.57317  0.99531  1.0000
  C   C66       1.0  0.38447  0.49511  0.01668  1.0000
  C   C67       1.0  0.23231000000000002  0.88755  0.18072  1.0000
  C   C68       1.0  0.16966000000000006  0.94597  0.21643000000000007  1.0000
  C   C69       1.0  0.10006000000000004  0.9111000000000001  0.25755  1.0000
  C   C70       1.0  0.47563  0.77763  0.28477  1.0000
  C   C71       1.0  0.52372  0.78592  0.36797  1.0000
  C   C72       1.0  0.42089  0.7804  0.39899  1.0000
  C   C73       1.0  0.01789999999999995  0.63977  0.11043  1.0000
  C   C74       1.0  0.95682  0.55523  0.09569  1.0000
  C   C75       1.0  0.05299  0.5324  0.13531  1.0000
  C   C76       1.0  0.06364000000000018  0.8124900000000003  0.5614200000000003  1.0000
  C   C77       1.0  0.19594  0.88738  0.62354  1.0000
  C   C78       1.0  0.37796  0.9813399999999999  0.6218  1.0000
  C   C79       1.0  0.43996  0.9892300000000002  0.5578  1.0000
  C   C80       1.0  0.5708399999999999  0.00477000000000003  0.57786  1.0000
  C   C81       1.0  0.3676400000000001  0.98352  0.4786000000000001  1.0000
  C   C82       1.0  0.05311  0.82017  0.70783  1.0000
  C   C83       1.0  0.95504  0.78425  0.7306  1.0000
  C   C84       1.0  0.8438500000000001  0.74275  0.65445  1.0000
  C   C85       1.0  0.19136000000000003  0.7156400000000002  0.49371  1.0000
  C   C86       1.0  0.15595000000000006  0.63217  0.41873000000000005  1.0000
  C   C87       1.0  0.02196  0.60102  0.38187  1.0000
  C   C88       1.0  0.90806  0.8895  0.53  1.0000
  C   C89       1.0  0.86165  0.90393  0.46008000000000004  1.0000
  C   C90       1.0  0.9177899999999998  0.8640299999999999  0.39738  1.0000
  N   N1        1.0  0.7191300000000002  0.58561  0.83541  1.0000
  N   N2        1.0  0.6237600000000002  0.62027  0.8196900000000003  1.0000
  N   N3        1.0  0.45637  0.43011  0.76866  1.0000
  N   N4        1.0  0.4212  0.50003  0.76842  1.0000
  N   N5        1.0  0.4294600000000002  0.42572  0.5986  1.0000
  N   N6        1.0  0.51975  0.5074  0.6654800000000002  1.0000
  N   N7        1.0  0.88407  0.1658100000000001  0.7503100000000003  1.0000
  N   N8        1.0  0.80425  0.18147999999999995  0.80055  1.0000
  N   N9        1.0  0.68737  0.23135000000000006  0.66093  1.0000
  N   N10       1.0  0.65265  0.23196999999999995  0.7313  1.0000
  N   N11       1.0  0.8312599999999997  0.40204  0.82727  1.0000
  N   N12       1.0  0.8546700000000002  0.33548000000000006  0.84211  1.0000
  N   N13       1.0  0.13300000000000003  0.24944  0.41472  1.0000
  N   N14       1.0  0.002820000000000002  0.19873  0.38005  1.0000
  N   N15       1.0  0.02623  0.33893  0.5701  1.0000
  N   N16       1.0  0.92086  0.26825  0.50017  1.0000
  N   N17       1.0  0.0040200000000000366  0.17322  0.5745  1.0000
  N   N18       1.0  0.012400000000000036  0.15812000000000007  0.49293  1.0000
  N   N19       1.0  0.28088  0.41439  0.16459  1.0000
  N   N20       1.0  0.37623999999999996  0.37973  0.1803  1.0000
  N   N21       1.0  0.5436299999999998  0.5699  0.23134  1.0000
  N   N22       1.0  0.5788  0.49997  0.23158000000000006  1.0000
  N   N23       1.0  0.57054  0.57428  0.4014  1.0000
  N   N24       1.0  0.48025  0.49261  0.33451  1.0000
  N   N25       1.0  0.11592999999999999  0.8342  0.24968  1.0000
  N   N26       1.0  0.19576000000000002  0.81853  0.19945000000000004  1.0000
  N   N27       1.0  0.31264  0.76865  0.33907  1.0000
  N   N28       1.0  0.34735000000000005  0.76804  0.26870000000000005  1.0000
  N   N29       1.0  0.16873999999999997  0.59797  0.17273  1.0000
  N   N30       1.0  0.14533  0.66453  0.15788000000000002  1.0000
  N   N31       1.0  0.867  0.75057  0.58528  1.0000
  N   N32       1.0  0.99719  0.80128  0.61994  1.0000
  N   N33       1.0  0.97377  0.66107  0.4299  1.0000
  N   N34       1.0  0.07914000000000002  0.73176  0.49983  1.0000
  N   N35       1.0  0.99599  0.82678  0.4255  1.0000
  N   N36       1.0  0.9876  0.84189  0.50707  1.0000
  O   O1        1.0  0.3142200000000001  0.5705200000000001  0.6626300000000002  1.0000
  O   O2        1.0  0.65196  0.33826  0.90792  1.0000
  O   O3        1.0  0.7436299999999999  0.09129  0.4296  1.0000
  O   O4        1.0  0.68579  0.42949  0.33737  1.0000
  O   O5        1.0  0.34804  0.66174  0.09208  1.0000
  O   O6        1.0  0.25638  0.90871  0.5704  1.0000
