data_image0
_chemical_formula_structural       Sn6H126C90N6O24
_chemical_formula_sum              "Sn6 H126 C90 N6 O24"
_cell_length_a       9.61214
_cell_length_b       14.344
_cell_length_c       22.95679
_cell_angle_alpha    78.16904
_cell_angle_beta     77.84135
_cell_angle_gamma    70.35174

_space_group_name_H-M_alt    "P 1"
_space_group_IT_number       1

loop_
  _space_group_symop_operation_xyz
  'x, y, z'

loop_
  _atom_site_type_symbol
  _atom_site_label
  _atom_site_symmetry_multiplicity
  _atom_site_fract_x
  _atom_site_fract_y
  _atom_site_fract_z
  _atom_site_occupancy
  Sn  Sn1       1.0  0.6138600000000001  0.86608  0.2349  1.0000
  Sn  Sn2       1.0  0.40467999999999993  0.24792  0.49634  1.0000
  Sn  Sn3       1.0  0.68341  0.18572  0.03448  1.0000
  Sn  Sn4       1.0  0.2850699999999999  0.36712  0.73505  1.0000
  Sn  Sn5       1.0  0.8508300000000001  0.7475500000000002  0.99604  1.0000
  Sn  Sn6       1.0  0.09665000000000006  0.68573  0.53456  1.0000
  H   H1        1.0  0.5755999999999999  0.008279999999999994  0.34721  1.0000
  H   H2        1.0  0.41209000000000007  0.31984999999999997  0.27435  1.0000
  H   H3        1.0  0.43354  0.26489  0.17307  1.0000
  H   H4        1.0  0.82563  0.9555  0.20332000000000003  1.0000
  H   H5        1.0  0.80336  0.90941  0.14041  1.0000
  H   H6        1.0  0.98587  0.78612  0.24135  1.0000
  H   H7        1.0  0.9541499999999999  0.7342499999999998  0.18418  1.0000
  H   H8        1.0  0.10489000000000001  0.8989  0.16169  1.0000
  H   H9        1.0  0.07885000000000002  0.84178  0.10584000000000002  1.0000
  H   H10       1.0  0.2470700000000001  0.6748799999999999  0.14948  1.0000
  H   H11       1.0  0.34153000000000006  0.7666899999999999  0.13032  1.0000
  H   H12       1.0  0.27088  0.73286  0.20638000000000004  1.0000
  H   H13       1.0  0.42514  0.83919  0.33436  1.0000
  H   H14       1.0  0.41236999999999996  0.77291  0.27963  1.0000
  H   H15       1.0  0.26230000000000014  0.9998099999999999  0.28277  1.0000
  H   H16       1.0  0.25031  0.93602  0.22748000000000002  1.0000
  H   H17       1.0  0.13966000000000003  0.8908899999999998  0.3629800000000001  1.0000
  H   H18       1.0  0.12794000000000003  0.8266799999999997  0.30777  1.0000
  H   H19       1.0  0.9619399999999999  0.9870699999999999  0.2572  1.0000
  H   H20       1.0  0.88281  0.9565  0.33281  1.0000
  H   H21       1.0  0.97125  0.05187  0.31339  1.0000
  H   H22       1.0  0.7914299999999999  0.5238  0.98964  1.0000
  H   H23       1.0  0.52075  0.44584999999999997  0.15543  1.0000
  H   H24       1.0  0.5386399999999999  0.5971  0.19264  1.0000
  H   H25       1.0  0.5030400000000002  0.3937999999999999  0.43165  1.0000
  H   H26       1.0  0.6589899999999999  0.28771  0.44594000000000006  1.0000
  H   H27       1.0  0.47528  0.42844  0.53966  1.0000
  H   H28       1.0  0.6404400000000001  0.33028  0.54938  1.0000
  H   H29       1.0  0.6221700000000001  0.5116500000000002  0.45033  1.0000
  H   H30       1.0  0.78616  0.41685  0.46654000000000007  1.0000
  H   H31       1.0  0.7460399999999998  0.46597  0.57005  1.0000
  H   H32       1.0  0.7507800000000001  0.5701199999999998  0.51354  1.0000
  H   H33       1.0  0.5770700000000003  0.5591299999999998  0.55504  1.0000
  H   H34       1.0  0.16498999999999997  0.20064  0.5566  1.0000
  H   H35       1.0  0.30653  0.08809  0.53925  1.0000
  H   H36       1.0  0.2547500000000001  0.12390000000000001  0.43361  1.0000
  H   H37       1.0  0.12612  0.24071000000000004  0.44551  1.0000
  H   H38       1.0  0.08584999999999997  0.03946000000000001  0.51022  1.0000
  H   H39       1.0  0.9540699999999996  0.15736  0.51752  1.0000
  H   H40       1.0  0.07415  0.06932  0.39796  1.0000
  H   H41       1.0  0.8962499999999999  0.0749  0.44058  1.0000
  H   H42       1.0  0.9377900000000005  0.18676  0.40597000000000005  1.0000
  H   H43       1.0  0.8745200000000001  0.78806  0.42363  1.0000
  H   H44       1.0  0.8843299999999998  0.5515800000000001  0.33234  1.0000
  H   H45       1.0  0.0607600000000001  0.4297299999999999  0.40311  1.0000
  H   H46       1.0  0.9078499999999999  0.06372000000000001  0.09096  1.0000
  H   H47       1.0  0.7609599999999999  0.12475000000000001  0.1441  1.0000
  H   H48       1.0  0.84441  0.27975  0.11458  1.0000
  H   H49       1.0  0.9921199999999999  0.21952  0.06253  1.0000
  H   H50       1.0  0.09654999999999998  0.08919  0.14739  1.0000
  H   H51       1.0  0.9443699999999999  0.14713  0.19864  1.0000
  H   H52       1.0  0.02442000000000005  0.30564999999999987  0.17214  1.0000
  H   H53       1.0  0.16324000000000005  0.20042999999999994  0.20218999999999998  1.0000
  H   H54       1.0  0.18243  0.24221999999999996  0.12368  1.0000
  H   H55       1.0  0.50086  0.15366000000000002  0.97614  1.0000
  H   H56       1.0  0.57484  0.24726  0.92964  1.0000
  H   H57       1.0  0.39447999999999983  0.37905999999999995  0.9856900000000001  1.0000
  H   H58       1.0  0.34282999999999997  0.29117000000000004  0.0438  1.0000
  H   H59       1.0  0.27885  0.3211  0.9146600000000001  1.0000
  H   H60       1.0  0.22687000000000004  0.23651  0.97479  1.0000
  H   H61       1.0  0.11817000000000004  0.46653000000000006  0.96927  1.0000
  H   H62       1.0  0.011520000000000055  0.3929399999999999  0.95961  1.0000
  H   H63       1.0  0.06528000000000002  0.38152  0.030660000000000003  1.0000
  H   H64       1.0  0.06793000000000009  0.50839  0.84693  1.0000
  H   H65       1.0  0.99216  0.82014  0.77433  1.0000
  H   H66       1.0  0.12844  0.7653  0.67304  1.0000
  H   H67       1.0  0.015160000000000118  0.45556999999999975  0.70367  1.0000
  H   H68       1.0  0.14708000000000002  0.40956999999999993  0.64078  1.0000
  H   H69       1.0  0.9875300000000001  0.28584  0.74172  1.0000
  H   H70       1.0  0.1288  0.23425999999999997  0.68446  1.0000
  H   H71       1.0  0.8353399999999999  0.39882  0.66211  1.0000
  H   H72       1.0  0.97488  0.3418  0.60623  1.0000
  H   H73       1.0  0.9297199999999999  0.17487  0.6496  1.0000
  H   H74       1.0  0.7627600000000001  0.26706  0.63043  1.0000
  H   H75       1.0  0.7905800000000001  0.23280999999999993  0.70652  1.0000
  H   H76       1.0  0.4012299999999999  0.33969  0.8345500000000001  1.0000
  H   H77       1.0  0.5347500000000001  0.27328  0.77973  1.0000
  H   H78       1.0  0.45564000000000004  0.50008  0.7829  1.0000
  H   H79       1.0  0.5867900000000004  0.43603999999999987  0.72758  1.0000
  H   H80       1.0  0.6068699999999998  0.39095  0.86302  1.0000
  H   H81       1.0  0.7380399999999998  0.32643000000000005  0.80781  1.0000
  H   H82       1.0  0.7944800000000001  0.48652  0.75692  1.0000
  H   H83       1.0  0.82873  0.45618  0.83246  1.0000
  H   H84       1.0  0.6642000000000001  0.5517199999999998  0.81306  1.0000
  H   H85       1.0  0.6946  0.02403  0.4899800000000001  1.0000
  H   H86       1.0  0.8773300000000002  0.9468899999999999  0.6556  1.0000
  H   H87       1.0  0.6721499999999997  0.09915000000000002  0.69227  1.0000
  H   H88       1.0  0.67094  0.8934699999999999  0.93198  1.0000
  H   H89       1.0  0.6059499999999999  0.7878499999999999  0.9464400000000001  1.0000
  H   H90       1.0  0.55648  0.92881  0.03978  1.0000
  H   H91       1.0  0.4791399999999999  0.83091  0.05000000000000001  1.0000
  H   H92       1.0  0.4159900000000001  0.011730000000000011  0.95056  1.0000
  H   H93       1.0  0.33044000000000023  0.9171199999999998  0.96687  1.0000
  H   H94       1.0  0.21672000000000008  0.9669099999999999  0.07019  1.0000
  H   H95       1.0  0.16482  0.07073  0.01343  1.0000
  H   H96       1.0  0.30752  0.05995  0.05505  1.0000
  H   H97       1.0  0.0775400000000001  0.7010599999999998  0.05573  1.0000
  H   H98       1.0  0.06659  0.58833  0.03871  1.0000
  H   H99       1.0  0.18864999999999993  0.62389  0.9328600000000001  1.0000
  H   H100      1.0  0.1879900000000001  0.7407699999999998  0.9447199999999999  1.0000
  H   H101      1.0  0.36419  0.53973  0.0098  1.0000
  H   H102      1.0  0.37039000000000005  0.65763  0.01705  1.0000
  H   H103      1.0  0.46035999999999994  0.56903  0.8976699999999999  1.0000
  H   H104      1.0  0.58917  0.57467  0.9406  1.0000
  H   H105      1.0  0.47096999999999983  0.6864699999999999  0.9056100000000001  1.0000
  H   H106      1.0  0.9159399999999999  0.28797  0.92359  1.0000
  H   H107      1.0  0.23387000000000002  0.05147  0.83203  1.0000
  H   H108      1.0  0.10671999999999995  0.93005  0.90234  1.0000
  H   H109      1.0  0.9377  0.5636  0.591  1.0000
  H   H110      1.0  0.96971  0.62453  0.64423  1.0000
  H   H111      1.0  0.7606300000000003  0.7795799999999998  0.61465  1.0000
  H   H112      1.0  0.72567  0.71942  0.56257  1.0000
  H   H113      1.0  0.6660200000000001  0.58925  0.6474  1.0000
  H   H114      1.0  0.7088799999999998  0.64694  0.69869  1.0000
  H   H115      1.0  0.4969100000000001  0.80571  0.6722  1.0000
  H   H116      1.0  0.43300999999999995  0.70067  0.70227  1.0000
  H   H117      1.0  0.45078999999999997  0.74243  0.62377  1.0000
  H   H118      1.0  0.3702900000000001  0.6531399999999998  0.47614  1.0000
  H   H119      1.0  0.24929999999999994  0.7466400000000001  0.42956  1.0000
  H   H120      1.0  0.24086000000000005  0.87861  0.4855  1.0000
  H   H121      1.0  0.32242000000000004  0.79079  0.54362  1.0000
  H   H122      1.0  0.4860400000000001  0.821  0.41444  1.0000
  H   H123      1.0  0.56261  0.73628  0.47447  1.0000
  H   H124      1.0  0.44502999999999987  0.96627  0.46928000000000003  1.0000
  H   H125      1.0  0.63547  0.89318  0.45958000000000004  1.0000
  H   H126      1.0  0.52164  0.8811399999999999  0.5306  1.0000
  C   C1        1.0  0.53932  0.06748  0.31047  1.0000
  C   C2        1.0  0.49095999999999995  0.16835999999999998  0.31813  1.0000
  C   C3        1.0  0.45075000000000004  0.24124999999999996  0.26853  1.0000
  C   C4        1.0  0.45926000000000006  0.21158  0.21344  1.0000
  C   C5        1.0  0.5007400000000001  0.10924999999999997  0.21037  1.0000
  C   C6        1.0  0.50065  0.0718  0.15328  1.0000
  C   C7        1.0  0.4727100000000001  0.19729  0.37914  1.0000
  C   C8        1.0  0.8221799999999998  0.88938  0.18744000000000002  1.0000
  C   C9        1.0  0.9648  0.8027599999999999  0.19452  1.0000
  C   C10       1.0  0.09883000000000002  0.8279299999999999  0.15279  1.0000
  C   C11       1.0  0.24751999999999993  0.74609  0.16002  1.0000
  C   C12       1.0  0.40845  0.84667  0.28759  1.0000
  C   C13       1.0  0.2622699999999999  0.92661  0.27509  1.0000
  C   C14       1.0  0.12706000000000003  0.90021  0.31536  1.0000
  C   C15       1.0  0.9772400000000001  0.97827  0.30431  1.0000
  C   C16       1.0  0.73241  0.53721  0.03454  1.0000
  C   C17       1.0  0.6540300000000001  0.47377999999999987  0.0703  1.0000
  C   C18       1.0  0.5817100000000001  0.4952  0.12785  1.0000
  C   C19       1.0  0.5908600000000002  0.5774999999999999  0.14817  1.0000
  C   C20       1.0  0.6701  0.63754  0.10974  1.0000
  C   C21       1.0  0.6855699999999998  0.72715  0.12952  1.0000
  C   C22       1.0  0.65017  0.38185  0.04991000000000001  1.0000
  C   C23       1.0  0.5556  0.33789  0.4673900000000001  1.0000
  C   C24       1.0  0.58202  0.38709  0.51523  1.0000
  C   C25       1.0  0.67462  0.45889999999999986  0.4874  1.0000
  C   C26       1.0  0.68811  0.5169899999999997  0.53392  1.0000
  C   C27       1.0  0.24536999999999987  0.16395999999999997  0.52027  1.0000
  C   C28       1.0  0.17057000000000005  0.16383999999999999  0.46790000000000004  1.0000
  C   C29       1.0  0.04441999999999999  0.11533  0.48577  1.0000
  C   C30       1.0  0.9843100000000001  0.11124000000000002  0.42985  1.0000
  C   C31       1.0  0.9122999999999999  0.70969  0.41754  1.0000
  C   C32       1.0  0.8668399999999999  0.67754  0.37316  1.0000
  C   C33       1.0  0.9194399999999999  0.57579  0.36727000000000004  1.0000
  C   C34       1.0  0.014650000000000045  0.5094399999999999  0.4057  1.0000
  C   C35       1.0  0.054769999999999965  0.54703  0.44897000000000004  1.0000
  C   C36       1.0  0.16086999999999996  0.47861  0.49068000000000006  1.0000
  C   C37       1.0  0.7676799999999999  0.75  0.33067  1.0000
  C   C38       1.0  0.83336  0.13712  0.10139  1.0000
  C   C39       1.0  0.92086  0.20601  0.10553  1.0000
  C   C40       1.0  0.016810000000000002  0.16226  0.15625  1.0000
  C   C41       1.0  0.10118000000000005  0.23148999999999995  0.16394  1.0000
  C   C42       1.0  0.51989  0.22538000000000002  0.9748799999999999  1.0000
  C   C43       1.0  0.3757600000000001  0.30558  0.9948199999999999  1.0000
  C   C44       1.0  0.2466500000000001  0.30981  0.96379  1.0000
  C   C45       1.0  0.10268000000000005  0.39213999999999993  0.9818  1.0000
  C   C46       1.0  0.0817100000000001  0.56773  0.8102699999999999  1.0000
  C   C47       1.0  0.021140000000000127  0.6685699999999999  0.81795  1.0000
  C   C48       1.0  0.03822999999999997  0.74158  0.76845  1.0000
  C   C49       1.0  0.11512999999999986  0.71203  0.71336  1.0000
  C   C50       1.0  0.17925000000000013  0.60975  0.71022  1.0000
  C   C51       1.0  0.2750399999999999  0.5724000000000001  0.65325  1.0000
  C   C52       1.0  0.94923  0.69727  0.87898  1.0000
  C   C53       1.0  0.10117999999999999  0.38953  0.68782  1.0000
  C   C54       1.0  0.03883000000000007  0.30266999999999983  0.69489  1.0000
  C   C55       1.0  0.9215099999999999  0.32785000000000003  0.65316  1.0000
  C   C56       1.0  0.84747  0.24613999999999997  0.66021  1.0000
  C   C57       1.0  0.45721  0.34718  0.78775  1.0000
  C   C58       1.0  0.53641  0.42674999999999996  0.7752100000000001  1.0000
  C   C59       1.0  0.65787  0.4001  0.81537  1.0000
  C   C60       1.0  0.74089  0.47798  0.8040799999999999  1.0000
  C   C61       1.0  0.6952399999999999  0.03781  0.53477  1.0000
  C   C62       1.0  0.8012300000000003  0.97429  0.57053  1.0000
  C   C63       1.0  0.7947600000000001  0.9961899999999999  0.62792  1.0000
  C   C64       1.0  0.6833400000000001  0.07913  0.64799  1.0000
  C   C65       1.0  0.5824099999999999  0.13921  0.60959  1.0000
  C   C66       1.0  0.45781999999999995  0.22957000000000002  0.62913  1.0000
  C   C67       1.0  0.9173299999999999  0.88206  0.55009  1.0000
  C   C68       1.0  0.6383400000000001  0.8377199999999998  0.96778  1.0000
  C   C69       1.0  0.51519  0.8873699999999999  0.01565  1.0000
  C   C70       1.0  0.37877999999999995  0.9592299999999999  0.98769  1.0000
  C   C71       1.0  0.26008  0.01769  0.03399  1.0000
  C   C72       1.0  0.07056000000000001  0.66415  0.01951  1.0000
  C   C73       1.0  0.19804999999999992  0.6639400000000001  0.96714  1.0000
  C   C74       1.0  0.35459000000000007  0.6154900000000001  0.98526  1.0000
  C   C75       1.0  0.4757200000000002  0.61106  0.92957  1.0000
  C   C76       1.0  0.9621500000000002  0.20957  0.91749  1.0000
  C   C77       1.0  0.08439000000000002  0.17733999999999997  0.87309  1.0000
  C   C78       1.0  0.13933000000000004  0.07571999999999997  0.86697  1.0000
  C   C79       1.0  0.07105000000000004  0.009630000000000007  0.90513  1.0000
  C   C80       1.0  0.94957  0.047259999999999996  0.94835  1.0000
  C   C81       1.0  0.8693200000000001  0.9789099999999998  0.9897  1.0000
  C   C82       1.0  0.15296  0.2500699999999999  0.83068  1.0000
  C   C83       1.0  0.9280300000000001  0.63698  0.60147  1.0000
  C   C84       1.0  0.7672  0.70588  0.60558  1.0000
  C   C85       1.0  0.66392  0.66221  0.65629  1.0000
  C   C86       1.0  0.50246  0.7316399999999997  0.66399  1.0000
  C   C87       1.0  0.28064000000000006  0.72491  0.47481000000000007  1.0000
  C   C88       1.0  0.32421999999999984  0.8051799999999999  0.49465  1.0000
  C   C89       1.0  0.4801799999999999  0.80956  0.4635600000000001  1.0000
  C   C90       1.0  0.52292  0.8919699999999999  0.48172  1.0000
  N   N1        1.0  0.53994  0.039099999999999996  0.25813  1.0000
  N   N2        1.0  0.7386199999999998  0.61791  0.0539  1.0000
  N   N3        1.0  0.004889999999999964  0.64533  0.4545100000000001  1.0000
  N   N4        1.0  0.16222000000000006  0.5395399999999999  0.75792  1.0000
  N   N5        1.0  0.5892  0.11897  0.55395  1.0000
  N   N6        1.0  0.89618  0.14543000000000003  0.95426  1.0000
  O   O1        1.0  0.5047900000000001  0.98106  0.15726  1.0000
  O   O2        1.0  0.49292  0.13412999999999997  0.10522000000000001  1.0000
  O   O3        1.0  0.38182  0.28275  0.38846  1.0000
  O   O4        1.0  0.5422100000000003  0.13492  0.41968  1.0000
  O   O5        1.0  0.77051  0.7735399999999998  0.09522000000000001  1.0000
  O   O6        1.0  0.61154  0.74801  0.18048  1.0000
  O   O7        1.0  0.56383  0.33463  0.08322  1.0000
  O   O8        1.0  0.7364699999999998  0.35128  0.00282  1.0000
  O   O9        1.0  0.21085999999999996  0.51778  0.52333  1.0000
  O   O10       1.0  0.19216999999999998  0.38594  0.48892  1.0000
  O   O11       1.0  0.7358600000000001  0.71264  0.29096  1.0000
  O   O12       1.0  0.7229299999999999  0.84266  0.33427  1.0000
  O   O13       1.0  0.3571900000000001  0.48145  0.65732  1.0000
  O   O14       1.0  0.27009000000000005  0.63474  0.60522  1.0000
  O   O15       1.0  0.94461  0.7827999999999998  0.88831  1.0000
  O   O16       1.0  0.90221  0.63468  0.91957  1.0000
  O   O17       1.0  0.36169  0.27703999999999995  0.59463  1.0000
  O   O18       1.0  0.4593000000000001  0.24991999999999995  0.68026  1.0000
  O   O19       1.0  0.016870000000000013  0.8342  0.5836  1.0000
  O   O20       1.0  0.9095999999999999  0.8518499999999998  0.5028  1.0000
  O   O21       1.0  0.7482899999999999  0.01793  0.02299  1.0000
  O   O22       1.0  0.9312400000000002  0.88637  0.98716  1.0000
  O   O23       1.0  0.26328000000000007  0.21306  0.79124  1.0000
  O   O24       1.0  0.09872  0.34274  0.83413  1.0000
