data_image0
_chemical_formula_structural       Zn8H104C128N16O32
_chemical_formula_sum              "Zn8 H104 C128 N16 O32"
_cell_length_a       11.32066
_cell_length_b       17.365360000000003
_cell_length_c       19.90639
_cell_angle_alpha    90.17538
_cell_angle_beta     90.04432999999999
_cell_angle_gamma    90.18058

_space_group_name_H-M_alt    "P 1"
_space_group_IT_number       1

loop_
  _space_group_symop_operation_xyz
  'x, y, z'

loop_
  _atom_site_type_symbol
  _atom_site_label
  _atom_site_symmetry_multiplicity
  _atom_site_fract_x
  _atom_site_fract_y
  _atom_site_fract_z
  _atom_site_occupancy
  Zn  Zn1       1.0  0.4079400000000001  0.0333  0.6684  1.0000
  Zn  Zn2       1.0  0.09236000000000003  0.03322  0.83044  1.0000
  Zn  Zn3       1.0  0.9076100000000002  0.46690999999999994  0.33158  1.0000
  Zn  Zn4       1.0  0.5920900000000001  0.46635  0.16946  1.0000
  Zn  Zn5       1.0  0.59205  0.9667  0.33161  1.0000
  Zn  Zn6       1.0  0.9076400000000001  0.9667700000000001  0.16956  1.0000
  Zn  Zn7       1.0  0.09239000000000001  0.53308  0.66843  1.0000
  Zn  Zn8       1.0  0.40791  0.53365  0.83054  1.0000
  H   H1        1.0  0.60503  0.13647  0.6665700000000001  1.0000
  H   H2        1.0  0.7892800000000002  0.16061  0.60156  1.0000
  H   H3        1.0  0.7107600000000001  0.95584  0.48614000000000007  1.0000
  H   H4        1.0  0.53471  0.9358099999999999  0.5603800000000001  1.0000
  H   H5        1.0  0.8841700000000001  0.14056  0.49411  1.0000
  H   H6        1.0  0.85082  0.05979  0.44335  1.0000
  H   H7        1.0  0.060530000000000014  0.07855  0.49792  1.0000
  H   H8        1.0  0.09266000000000003  0.148  0.59665  1.0000
  H   H9        1.0  0.12282000000000003  0.14203  0.72092  1.0000
  H   H10       1.0  0.9191200000000003  0.9268799999999999  0.60972  1.0000
  H   H11       1.0  0.9627700000000001  0.9283099999999999  0.73254  1.0000
  H   H12       1.0  0.17238000000000006  0.24086999999999997  0.65409  1.0000
  H   H13       1.0  0.3750299999999999  0.3561299999999999  0.63895  1.0000
  H   H14       1.0  0.89557  0.13609  0.83239  1.0000
  H   H15       1.0  0.71121  0.16015  0.89722  1.0000
  H   H16       1.0  0.7900200000000001  0.9571  0.0134  1.0000
  H   H17       1.0  0.96584  0.9368999999999998  0.93918  1.0000
  H   H18       1.0  0.61653  0.14085999999999999  0.00526  1.0000
  H   H19       1.0  0.6500300000000001  0.06057  0.05595000000000001  1.0000
  H   H20       1.0  0.44002000000000013  0.07853  0.00226  1.0000
  H   H21       1.0  0.4060800000000001  0.14719  0.90356  1.0000
  H   H22       1.0  0.37691  0.14142  0.77923  1.0000
  H   H23       1.0  0.5788100000000002  0.92645  0.88929  1.0000
  H   H24       1.0  0.5356200000000001  0.9280499999999999  0.7665  1.0000
  H   H25       1.0  0.32993000000000006  0.24057999999999996  0.84105  1.0000
  H   H26       1.0  0.12795  0.3551  0.86013  1.0000
  H   H27       1.0  0.10339  0.36358  0.33279000000000003  1.0000
  H   H28       1.0  0.28807  0.33902  0.3973400000000001  1.0000
  H   H29       1.0  0.21214000000000002  0.54298  0.51395  1.0000
  H   H30       1.0  0.03622  0.56381  0.43977  1.0000
  H   H31       1.0  0.38455  0.35866999999999993  0.50489  1.0000
  H   H32       1.0  0.35112  0.43886  0.55616  1.0000
  H   H33       1.0  0.5608200000000001  0.42177  0.50235  1.0000
  H   H34       1.0  0.59439  0.35253  0.40358  1.0000
  H   H35       1.0  0.6241600000000002  0.35849  0.2792  1.0000
  H   H36       1.0  0.41973  0.5726  0.39014  1.0000
  H   H37       1.0  0.46319000000000005  0.57122  0.26736  1.0000
  H   H38       1.0  0.6723600000000001  0.25895  0.34315  1.0000
  H   H39       1.0  0.87326  0.14361  0.36172000000000004  1.0000
  H   H40       1.0  0.3939800000000001  0.36391  0.16709  1.0000
  H   H41       1.0  0.20977  0.3397899999999999  0.10166  1.0000
  H   H42       1.0  0.29004  0.54359  0.98646  1.0000
  H   H43       1.0  0.4655400000000001  0.56387  0.06132  1.0000
  H   H44       1.0  0.11563000000000001  0.35938  0.99369  1.0000
  H   H45       1.0  0.14899000000000004  0.44004999999999994  0.94338  1.0000
  H   H46       1.0  0.93933  0.4215  0.9979100000000001  1.0000
  H   H47       1.0  0.90626  0.35281  0.09652000000000001  1.0000
  H   H48       1.0  0.8760400000000003  0.35917  0.2207  1.0000
  H   H49       1.0  0.08  0.57393  0.11041  1.0000
  H   H50       1.0  0.03621  0.57293  0.23305  1.0000
  H   H51       1.0  0.8250100000000002  0.2593  0.15648  1.0000
  H   H52       1.0  0.62476  0.14228  0.13966  1.0000
  H   H53       1.0  0.3949700000000001  0.86352  0.33344000000000007  1.0000
  H   H54       1.0  0.21072000000000005  0.83939  0.39844  1.0000
  H   H55       1.0  0.28924  0.04416  0.51386  1.0000
  H   H56       1.0  0.46529  0.06419  0.43962  1.0000
  H   H57       1.0  0.11583  0.85944  0.50589  1.0000
  H   H58       1.0  0.14918  0.9402  0.55665  1.0000
  H   H59       1.0  0.93947  0.9214499999999999  0.50208  1.0000
  H   H60       1.0  0.90734  0.852  0.40335000000000004  1.0000
  H   H61       1.0  0.8771800000000001  0.85796  0.27908  1.0000
  H   H62       1.0  0.08088  0.07312  0.39028  1.0000
  H   H63       1.0  0.03722  0.07169  0.26746000000000003  1.0000
  H   H64       1.0  0.8276200000000002  0.75913  0.34592  1.0000
  H   H65       1.0  0.62496  0.64386  0.36105  1.0000
  H   H66       1.0  0.10443000000000002  0.8639  0.16761  1.0000
  H   H67       1.0  0.28879000000000005  0.8398499999999998  0.10278  1.0000
  H   H68       1.0  0.20998000000000003  0.0429  0.9866  1.0000
  H   H69       1.0  0.03416  0.0631  0.06082  1.0000
  H   H70       1.0  0.3834700000000001  0.8591399999999998  0.9947400000000001  1.0000
  H   H71       1.0  0.34997  0.9394299999999999  0.94405  1.0000
  H   H72       1.0  0.5599800000000001  0.92147  0.99774  1.0000
  H   H73       1.0  0.59392  0.85281  0.09645  1.0000
  H   H74       1.0  0.6230900000000001  0.85857  0.22077  1.0000
  H   H75       1.0  0.4211800000000001  0.07355  0.11071000000000002  1.0000
  H   H76       1.0  0.46438  0.07195  0.2335  1.0000
  H   H77       1.0  0.6700700000000002  0.75942  0.15895  1.0000
  H   H78       1.0  0.8720500000000001  0.6449  0.13987  1.0000
  H   H79       1.0  0.8966000000000001  0.63642  0.66721  1.0000
  H   H80       1.0  0.7119300000000002  0.66098  0.60266  1.0000
  H   H81       1.0  0.78785  0.45701  0.48605000000000004  1.0000
  H   H82       1.0  0.9637700000000002  0.43619  0.5602300000000001  1.0000
  H   H83       1.0  0.6154500000000002  0.64133  0.49511  1.0000
  H   H84       1.0  0.64888  0.56114  0.44384000000000007  1.0000
  H   H85       1.0  0.43918  0.5782299999999999  0.49765000000000004  1.0000
  H   H86       1.0  0.4056100000000001  0.64746  0.59642  1.0000
  H   H87       1.0  0.37584  0.6415  0.72081  1.0000
  H   H88       1.0  0.58027  0.4274  0.60986  1.0000
  H   H89       1.0  0.5368  0.42878  0.73264  1.0000
  H   H90       1.0  0.32764  0.74105  0.65685  1.0000
  H   H91       1.0  0.12674  0.8563799999999998  0.63828  1.0000
  H   H92       1.0  0.60602  0.63609  0.8329100000000002  1.0000
  H   H93       1.0  0.79023  0.66021  0.8983400000000001  1.0000
  H   H94       1.0  0.70996  0.45641  0.01354  1.0000
  H   H95       1.0  0.53446  0.4361299999999999  0.93869  1.0000
  H   H96       1.0  0.88437  0.64062  0.00631  1.0000
  H   H97       1.0  0.85101  0.55995  0.05663000000000001  1.0000
  H   H98       1.0  0.060670000000000016  0.5785  0.00209  1.0000
  H   H99       1.0  0.09374000000000003  0.64719  0.90348  1.0000
  H   H100      1.0  0.12396  0.64082  0.7793  1.0000
  H   H101      1.0  0.9199900000000002  0.42605999999999994  0.88959  1.0000
  H   H102      1.0  0.96379  0.42707  0.7669500000000001  1.0000
  H   H103      1.0  0.17499  0.7407  0.84352  1.0000
  H   H104      1.0  0.37524  0.85772  0.86035  1.0000
  C   C1        1.0  0.63372  0.09669999999999997  0.62766  1.0000
  C   C2        1.0  0.73538  0.11010999999999997  0.59068  1.0000
  C   C3        1.0  0.7660000000000001  0.06018  0.53811  1.0000
  C   C4        1.0  0.6928100000000001  0.9959599999999998  0.52703  1.0000
  C   C5        1.0  0.59347  0.9849700000000001  0.5671800000000001  1.0000
  C   C6        1.0  0.8713000000000001  0.07786  0.49492  1.0000
  C   C7        1.0  0.9907600000000001  0.03987  0.51643  1.0000
  C   C8        1.0  0.003930000000000002  0.03778  0.59201  1.0000
  C   C9        1.0  0.05918  0.09908  0.62495  1.0000
  C   C10       1.0  0.07636  0.09661  0.694  1.0000
  C   C11       1.0  0.9638300000000001  0.9763899999999999  0.63179  1.0000
  C   C12       1.0  0.9859000000000002  0.9766999999999999  0.70043  1.0000
  C   C13       1.0  0.35535  0.19868  0.63403  1.0000
  C   C14       1.0  0.26297  0.25928  0.64483  1.0000
  C   C15       1.0  0.28549  0.3351199999999999  0.6461000000000001  1.0000
  C   C16       1.0  0.19082  0.3935  0.65568  1.0000
  C   C17       1.0  0.8668400000000002  0.09662  0.8714100000000001  1.0000
  C   C18       1.0  0.7651  0.10999  0.9083300000000001  1.0000
  C   C19       1.0  0.7343800000000003  0.06049999999999999  0.96105  1.0000
  C   C20       1.0  0.8077800000000002  0.9967999999999999  0.97233  1.0000
  C   C21       1.0  0.90708  0.98574  0.9321900000000001  1.0000
  C   C22       1.0  0.6292500000000001  0.07818  0.00441  1.0000
  C   C23       1.0  0.50921  0.03977  0.9834100000000001  1.0000
  C   C24       1.0  0.4950200000000001  0.03733999999999999  0.90777  1.0000
  C   C25       1.0  0.43982  0.09842999999999999  0.87505  1.0000
  C   C26       1.0  0.4231000000000001  0.09606999999999999  0.8059  1.0000
  C   C27       1.0  0.53466  0.9760400000000001  0.86755  1.0000
  C   C28       1.0  0.51286  0.97644  0.7988300000000002  1.0000
  C   C29       1.0  0.14799  0.19869  0.86438  1.0000
  C   C30       1.0  0.24019  0.25924  0.85196  1.0000
  C   C31       1.0  0.21739  0.33492  0.8513  1.0000
  C   C32       1.0  0.31055  0.39443  0.84109  1.0000
  C   C33       1.0  0.13279000000000002  0.40303999999999995  0.37191  1.0000
  C   C34       1.0  0.23468  0.38941  0.40864000000000006  1.0000
  C   C35       1.0  0.26617  0.43903  0.46140000000000003  1.0000
  C   C36       1.0  0.19360000000000005  0.50315  0.47286000000000006  1.0000
  C   C37       1.0  0.09423  0.51454  0.43283000000000005  1.0000
  C   C38       1.0  0.37158000000000013  0.42131  0.5045  1.0000
  C   C39       1.0  0.49112  0.46006  0.48354  1.0000
  C   C40       1.0  0.50494  0.46218999999999993  0.40802  1.0000
  C   C41       1.0  0.5607100000000002  0.40123  0.37521  1.0000
  C   C42       1.0  0.5777200000000001  0.40369  0.30616  1.0000
  C   C43       1.0  0.46458  0.52329  0.36816  1.0000
  C   C44       1.0  0.48660000000000003  0.52301  0.29952  1.0000
  C   C45       1.0  0.85481  0.30068  0.36604  1.0000
  C   C46       1.0  0.76215  0.24029999999999999  0.35397  1.0000
  C   C47       1.0  0.78418  0.16455  0.35305  1.0000
  C   C48       1.0  0.6902700000000002  0.10559  0.34266  1.0000
  C   C49       1.0  0.3657000000000001  0.40346  0.12808  1.0000
  C   C50       1.0  0.2640600000000001  0.39006  0.09089  1.0000
  C   C51       1.0  0.23394000000000006  0.43971  0.03826  1.0000
  C   C52       1.0  0.30756  0.50369  0.027380000000000005  1.0000
  C   C53       1.0  0.4066900000000001  0.51476  0.06784  1.0000
  C   C54       1.0  0.12860000000000002  0.42207  0.9948800000000002  1.0000
  C   C55       1.0  0.009180000000000002  0.46023999999999987  0.016490000000000005  1.0000
  C   C56       1.0  0.99562  0.46284  0.09214000000000001  1.0000
  C   C57       1.0  0.9398200000000001  0.40185  0.12492  1.0000
  C   C58       1.0  0.9224200000000001  0.40458  0.19397  1.0000
  C   C59       1.0  0.03536000000000001  0.52441  0.13223  1.0000
  C   C60       1.0  0.012960000000000003  0.52436  0.20088  1.0000
  C   C61       1.0  0.6419  0.29902  0.13390000000000002  1.0000
  C   C62       1.0  0.7353300000000002  0.23970999999999998  0.14604  1.0000
  C   C63       1.0  0.71376  0.16387  0.14787  1.0000
  C   C64       1.0  0.80862  0.10622  0.15877  1.0000
  C   C65       1.0  0.36628  0.9033  0.37234  1.0000
  C   C66       1.0  0.26462  0.88989  0.40933  1.0000
  C   C67       1.0  0.23400000000000004  0.9398199999999999  0.4618900000000001  1.0000
  C   C68       1.0  0.3071900000000001  0.00404  0.4729700000000001  1.0000
  C   C69       1.0  0.40652  0.015029999999999998  0.43282  1.0000
  C   C70       1.0  0.1287  0.9221399999999998  0.50508  1.0000
  C   C71       1.0  0.009240000000000002  0.96013  0.48357  1.0000
  C   C72       1.0  0.9960600000000001  0.96221  0.40800000000000003  1.0000
  C   C73       1.0  0.94082  0.90091  0.37505000000000005  1.0000
  C   C74       1.0  0.92363  0.90339  0.306  1.0000
  C   C75       1.0  0.03617000000000001  0.02361  0.36821  1.0000
  C   C76       1.0  0.0141  0.0233  0.29957  1.0000
  C   C77       1.0  0.64465  0.80132  0.36597  1.0000
  C   C78       1.0  0.7370300000000001  0.74072  0.35517  1.0000
  C   C79       1.0  0.71451  0.66488  0.3539  1.0000
  C   C80       1.0  0.80918  0.60649  0.34433  1.0000
  C   C81       1.0  0.13316000000000003  0.90338  0.12859  1.0000
  C   C82       1.0  0.23490000000000005  0.89001  0.09167  1.0000
  C   C83       1.0  0.26562  0.9395  0.03895  1.0000
  C   C84       1.0  0.19222  0.0031999999999999993  0.02767  1.0000
  C   C85       1.0  0.09292000000000002  0.014259999999999997  0.06782000000000002  1.0000
  C   C86       1.0  0.37075  0.92181  0.9955900000000001  1.0000
  C   C87       1.0  0.49079  0.9602300000000001  0.01659  1.0000
  C   C88       1.0  0.50498  0.9626599999999998  0.09224  1.0000
  C   C89       1.0  0.5601800000000001  0.90156  0.12495000000000002  1.0000
  C   C90       1.0  0.5769  0.90393  0.1941  1.0000
  C   C91       1.0  0.4653400000000001  0.02395  0.13245000000000004  1.0000
  C   C92       1.0  0.48713  0.02356  0.20117  1.0000
  C   C93       1.0  0.8520100000000002  0.80131  0.13562  1.0000
  C   C94       1.0  0.7598100000000001  0.74076  0.14804  1.0000
  C   C95       1.0  0.78261  0.66507  0.14871  1.0000
  C   C96       1.0  0.68944  0.60557  0.15891  1.0000
  C   C97       1.0  0.86721  0.59696  0.62809  1.0000
  C   C98       1.0  0.7653200000000001  0.61059  0.59136  1.0000
  C   C99       1.0  0.73383  0.56096  0.5386  1.0000
  C   C100      1.0  0.8064000000000001  0.49683999999999995  0.52714  1.0000
  C   C101      1.0  0.90577  0.48546  0.5671800000000001  1.0000
  C   C102      1.0  0.62842  0.57868  0.4955  1.0000
  C   C103      1.0  0.5088800000000001  0.53994  0.51647  1.0000
  C   C104      1.0  0.49506000000000006  0.5378  0.59198  1.0000
  C   C105      1.0  0.43929  0.59877  0.6248  1.0000
  C   C106      1.0  0.42227  0.59631  0.69385  1.0000
  C   C107      1.0  0.5354200000000001  0.47671  0.63184  1.0000
  C   C108      1.0  0.5134000000000001  0.47698  0.7004800000000001  1.0000
  C   C109      1.0  0.14519  0.69932  0.63396  1.0000
  C   C110      1.0  0.23785000000000003  0.7596999999999999  0.6460300000000001  1.0000
  C   C111      1.0  0.21582000000000007  0.83545  0.64695  1.0000
  C   C112      1.0  0.30973  0.8944099999999998  0.6573500000000001  1.0000
  C   C113      1.0  0.63429  0.59654  0.87192  1.0000
  C   C114      1.0  0.7359400000000001  0.60993  0.90912  1.0000
  C   C115      1.0  0.7660500000000001  0.56029  0.96174  1.0000
  C   C116      1.0  0.69244  0.49631  0.97262  1.0000
  C   C117      1.0  0.59331  0.48524  0.9321600000000001  1.0000
  C   C118      1.0  0.8714  0.57793  0.00512  1.0000
  C   C119      1.0  0.9908200000000003  0.53976  0.98352  1.0000
  C   C120      1.0  0.004380000000000001  0.53715  0.90786  1.0000
  C   C121      1.0  0.06018000000000001  0.59814  0.87508  1.0000
  C   C122      1.0  0.07758  0.59542  0.8060300000000001  1.0000
  C   C123      1.0  0.9646400000000003  0.47559  0.86777  1.0000
  C   C124      1.0  0.9870300000000002  0.47563999999999995  0.79912  1.0000
  C   C125      1.0  0.35810000000000003  0.7009799999999998  0.8661  1.0000
  C   C126      1.0  0.26467  0.76028  0.8539700000000001  1.0000
  C   C127      1.0  0.28624  0.83613  0.85213  1.0000
  C   C128      1.0  0.19138  0.89378  0.84123  1.0000
  N   N1        1.0  0.5631600000000001  0.03517000000000001  0.61617  1.0000
  N   N2        1.0  0.04185  0.035919999999999994  0.73126  1.0000
  N   N3        1.0  0.9373900000000002  0.03545  0.8830000000000001  1.0000
  N   N4        1.0  0.45767  0.03565  0.76816  1.0000
  N   N5        1.0  0.06307000000000001  0.46462  0.38367  1.0000
  N   N6        1.0  0.54271  0.46408000000000005  0.2688  1.0000
  N   N7        1.0  0.43660000000000004  0.4648  0.11686000000000002  1.0000
  N   N8        1.0  0.95703  0.46529000000000004  0.23160000000000003  1.0000
  N   N9        1.0  0.43684  0.96483  0.38383  1.0000
  N   N10       1.0  0.9581500000000002  0.96408  0.26874  1.0000
  N   N11       1.0  0.0626  0.9645399999999998  0.117  1.0000
  N   N12       1.0  0.5423300000000001  0.9643399999999999  0.23184000000000002  1.0000
  N   N13       1.0  0.93693  0.53538  0.61633  1.0000
  N   N14       1.0  0.4572900000000001  0.53592  0.7312  1.0000
  N   N15       1.0  0.5634  0.5352  0.8831400000000001  1.0000
  N   N16       1.0  0.04297  0.5347099999999999  0.7684  1.0000
  O   O1        1.0  0.32703000000000004  0.13368  0.66328  1.0000
  O   O2        1.0  0.44615  0.21152  0.60063  1.0000
  O   O3        1.0  0.22573  0.46488999999999997  0.6464100000000002  1.0000
  O   O4        1.0  0.08688000000000001  0.3753499999999999  0.67021  1.0000
  O   O5        1.0  0.17428  0.13341  0.83498  1.0000
  O   O6        1.0  0.05887  0.21181  0.89906  1.0000
  O   O7        1.0  0.2744  0.46512000000000003  0.852  1.0000
  O   O8        1.0  0.41460000000000014  0.37836  0.82501  1.0000
  O   O9        1.0  0.8318400000000001  0.36421  0.3333  1.0000
  O   O10       1.0  0.9410300000000003  0.28889  0.40336  1.0000
  O   O11       1.0  0.7259  0.03491  0.35352  1.0000
  O   O12       1.0  0.5863100000000001  0.12182  0.32652000000000003  1.0000
  O   O13       1.0  0.66708  0.36375  0.16483000000000003  1.0000
  O   O14       1.0  0.5535200000000001  0.2852799999999999  0.09855000000000001  1.0000
  O   O15       1.0  0.7746900000000001  0.03489  0.14806  1.0000
  O   O16       1.0  0.9116100000000003  0.12478  0.17516000000000004  1.0000
  O   O17       1.0  0.67297  0.86632  0.33673  1.0000
  O   O18       1.0  0.5538400000000001  0.78848  0.39936  1.0000
  O   O19       1.0  0.77426  0.53511  0.35359  1.0000
  O   O20       1.0  0.9131200000000002  0.62465  0.32979  1.0000
  O   O21       1.0  0.8257200000000001  0.86658  0.16502000000000003  1.0000
  O   O22       1.0  0.94112  0.78819  0.10094  1.0000
  O   O23       1.0  0.7256  0.5348799999999998  0.148  1.0000
  O   O24       1.0  0.5854  0.62164  0.17499000000000003  1.0000
  O   O25       1.0  0.16816000000000003  0.63579  0.6667  1.0000
  O   O26       1.0  0.05896  0.71111  0.59664  1.0000
  O   O27       1.0  0.27410000000000007  0.96509  0.64648  1.0000
  O   O28       1.0  0.41369  0.87818  0.67348  1.0000
  O   O29       1.0  0.33292000000000005  0.63624  0.8351700000000001  1.0000
  O   O30       1.0  0.44648  0.71471  0.90145  1.0000
  O   O31       1.0  0.22531  0.96511  0.8519400000000001  1.0000
  O   O32       1.0  0.08838000000000001  0.87522  0.8248400000000001  1.0000
