data_image0
_chemical_formula_structural       Zn12H84C132N8O44
_chemical_formula_sum              "Zn12 H84 C132 N8 O44"
_cell_length_a       11.23525
_cell_length_b       12.289119999999999
_cell_length_c       34.92458
_cell_angle_alpha    89.92743
_cell_angle_beta     90.11029999999998
_cell_angle_gamma    116.83927

_symmetry_space_group_name_H-M    'P 1'
_symmetry_Int_Tables_number       1

loop_
  _symmetry_equiv_pos_as_xyz
  'x,y,z'

loop_
  _atom_site_type_symbol
  _atom_site_label
  _atom_site_symmetry_multiplicity
  _atom_site_fract_x
  _atom_site_fract_y
  _atom_site_fract_z
  _atom_site_occupancy
  Zn  Zn1       1.0  0.24835000000000004  0.2749  0.8694100000000002  1.0000
  Zn  Zn2       1.0  0.5478  0.26137  0.87135  1.0000
  Zn  Zn3       1.0  0.25398  0.02027  0.86006  1.0000
  Zn  Zn4       1.0  0.75547  0.22707  0.3685  1.0000
  Zn  Zn5       1.0  0.45331000000000005  0.23723  0.37046  1.0000
  Zn  Zn6       1.0  0.74584  0.48107  0.35911  1.0000
  Zn  Zn7       1.0  0.75166  0.72509  0.1306  1.0000
  Zn  Zn8       1.0  0.4522  0.73863  0.12865  1.0000
  Zn  Zn9       1.0  0.7460199999999999  0.97973  0.13994  1.0000
  Zn  Zn10      1.0  0.2445300000000001  0.7729300000000001  0.6315  1.0000
  Zn  Zn11      1.0  0.54669  0.76276  0.62954  1.0000
  Zn  Zn12      1.0  0.25416  0.51893  0.64089  1.0000
  H   H1        1.0  0.99198  0.24052  0.8936  1.0000
  H   H2        1.0  0.8652000000000001  0.358  0.9004400000000001  1.0000
  H   H3        1.0  0.19426999999999997  0.66004  0.84435  1.0000
  H   H4        1.0  0.30761  0.52966  0.84029  1.0000
  H   H5        1.0  0.8065  0.4872  0.9215700000000001  1.0000
  H   H6        1.0  0.68534  0.61043  0.92348  1.0000
  H   H7        1.0  0.9184  0.8357  0.8350000000000001  1.0000
  H   H8        1.0  0.05586000000000007  0.7290800000000002  0.83184  1.0000
  H   H9        1.0  0.3749  0.21645999999999999  0.82005  1.0000
  H   H10       1.0  0.52893  0.6285  0.88432  1.0000
  H   H11       1.0  0.3935100000000001  0.7423300000000002  0.88176  1.0000
  H   H12       1.0  0.75065  0.08091  0.87186  1.0000
  H   H13       1.0  0.88823  0.96958  0.87391  1.0000
  H   H14       1.0  0.87378  0.32222  0.79951  1.0000
  H   H15       1.0  0.036559999999999995  0.38148  0.74496  1.0000
  H   H16       1.0  0.91803  0.65365  0.7102  1.0000
  H   H17       1.0  0.75138  0.59075  0.76419  1.0000
  H   H18       1.0  0.61248  0.37027000000000004  0.9865  1.0000
  H   H19       1.0  0.36545  0.5329  0.94865  1.0000
  H   H20       1.0  0.01155999999999996  0.84381  0.9567999999999999  1.0000
  H   H21       1.0  0.11113  0.2181  0.9805300000000001  1.0000
  H   H22       1.0  0.01079  0.25954  0.39325  1.0000
  H   H23       1.0  0.13676  0.14124  0.40027  1.0000
  H   H24       1.0  0.80606  0.8396600000000001  0.34443  1.0000
  H   H25       1.0  0.6937600000000002  0.9709500000000001  0.34011  1.0000
  H   H26       1.0  0.19409000000000004  0.01086  0.42178  1.0000
  H   H27       1.0  0.31478  0.8871600000000001  0.42362  1.0000
  H   H28       1.0  0.08138000000000005  0.66346  0.33486  1.0000
  H   H29       1.0  0.9446300000000001  0.77084  0.33160000000000006  1.0000
  H   H30       1.0  0.62745  0.28593  0.31892  1.0000
  H   H31       1.0  0.47043  0.86945  0.38404  1.0000
  H   H32       1.0  0.60554  0.75531  0.38164  1.0000
  H   H33       1.0  0.24767  0.41679  0.37212  1.0000
  H   H34       1.0  0.1107  0.52893  0.37382000000000004  1.0000
  H   H35       1.0  0.12649  0.17729  0.29868000000000006  1.0000
  H   H36       1.0  0.9660500000000001  0.11991  0.24343  1.0000
  H   H37       1.0  0.07747999999999998  0.84163  0.2108  1.0000
  H   H38       1.0  0.23946000000000006  0.90075  0.26611000000000007  1.0000
  H   H39       1.0  0.38937  0.13076  0.48567000000000005  1.0000
  H   H40       1.0  0.6363800000000001  0.9670900000000001  0.44938  1.0000
  H   H41       1.0  0.9879000000000001  0.65711  0.45721  1.0000
  H   H42       1.0  0.88971  0.28253  0.48006999999999994  1.0000
  H   H43       1.0  0.008029999999999973  0.75948  0.1064  1.0000
  H   H44       1.0  0.13481  0.642  0.09956  1.0000
  H   H45       1.0  0.8057300000000001  0.33995  0.15566  1.0000
  H   H46       1.0  0.6924  0.47034000000000004  0.15971000000000002  1.0000
  H   H47       1.0  0.1935  0.5128  0.07843  1.0000
  H   H48       1.0  0.31466  0.3895700000000001  0.07652  1.0000
  H   H49       1.0  0.0816  0.1643  0.165  1.0000
  H   H50       1.0  0.94415  0.27092  0.16817  1.0000
  H   H51       1.0  0.6251  0.78354  0.17996  1.0000
  H   H52       1.0  0.47108  0.3715  0.11568000000000002  1.0000
  H   H53       1.0  0.6065  0.25767  0.11824000000000001  1.0000
  H   H54       1.0  0.2493499999999999  0.91909  0.12814  1.0000
  H   H55       1.0  0.11177000000000001  0.030420000000000003  0.12609  1.0000
  H   H56       1.0  0.12621999999999997  0.67778  0.20049  1.0000
  H   H57       1.0  0.96344  0.61852  0.25505000000000005  1.0000
  H   H58       1.0  0.08198  0.34634  0.2898  1.0000
  H   H59       1.0  0.24862  0.40924999999999995  0.23582000000000003  1.0000
  H   H60       1.0  0.38753  0.62973  0.0135  1.0000
  H   H61       1.0  0.63456  0.4671  0.05135  1.0000
  H   H62       1.0  0.98845  0.15619  0.0432  1.0000
  H   H63       1.0  0.88887  0.7819  0.01948  1.0000
  H   H64       1.0  0.9892100000000001  0.74046  0.60676  1.0000
  H   H65       1.0  0.86325  0.85876  0.59973  1.0000
  H   H66       1.0  0.19395000000000004  0.16034  0.65557  1.0000
  H   H67       1.0  0.30624  0.02905  0.65989  1.0000
  H   H68       1.0  0.80591  0.98914  0.57822  1.0000
  H   H69       1.0  0.6852199999999999  0.11284  0.57638  1.0000
  H   H70       1.0  0.91862  0.33654  0.66514  1.0000
  H   H71       1.0  0.05536999999999999  0.22916000000000003  0.6684  1.0000
  H   H72       1.0  0.37256  0.71406  0.68108  1.0000
  H   H73       1.0  0.52957  0.13055  0.61597  1.0000
  H   H74       1.0  0.39446000000000003  0.24469  0.6183600000000001  1.0000
  H   H75       1.0  0.75233  0.5832  0.62788  1.0000
  H   H76       1.0  0.8893100000000002  0.47106  0.62618  1.0000
  H   H77       1.0  0.8735100000000001  0.8227100000000002  0.70132  1.0000
  H   H78       1.0  0.03395000000000004  0.88009  0.75658  1.0000
  H   H79       1.0  0.92252  0.15837  0.7892  1.0000
  H   H80       1.0  0.76054  0.09925000000000002  0.73389  1.0000
  H   H81       1.0  0.6106299999999999  0.8692399999999999  0.51433  1.0000
  H   H82       1.0  0.36362  0.03291  0.55062  1.0000
  H   H83       1.0  0.012100000000000003  0.34289  0.5427900000000001  1.0000
  H   H84       1.0  0.11029000000000003  0.71747  0.51993  1.0000
  C   C1        1.0  0.032900000000000006  0.33406  0.88335  1.0000
  C   C2        1.0  0.9636500000000001  0.40146  0.88752  1.0000
  C   C3        1.0  0.017000000000000036  0.52293  0.87334  1.0000
  C   C4        1.0  0.14426  0.5675  0.85549  1.0000
  C   C5        1.0  0.20895999999999995  0.49532999999999994  0.85305  1.0000
  C   C6        1.0  0.94534  0.59426  0.87622  1.0000
  C   C7        1.0  0.8354800000000001  0.56311  0.90171  1.0000
  C   C8        1.0  0.76481  0.62887  0.9031  1.0000
  C   C9        1.0  0.902  0.7614700000000001  0.85435  1.0000
  C   C10       1.0  0.97656  0.69937  0.85302  1.0000
  C   C11       1.0  0.71699  0.79207  0.8791400000000001  1.0000
  C   C12       1.0  0.57734  0.72759  0.88204  1.0000
  C   C13       1.0  0.50169  0.79126  0.88025  1.0000
  C   C14       1.0  0.56353  0.91875  0.87644  1.0000
  C   C15       1.0  0.70343  0.9821  0.8744  1.0000
  C   C16       1.0  0.7800700000000002  0.91963  0.87533  1.0000
  C   C17       1.0  0.48537  0.9891800000000001  0.87435  1.0000
  C   C18       1.0  0.6964200000000002  0.40875  0.8149600000000002  1.0000
  C   C19       1.0  0.80223  0.45191  0.78461  1.0000
  C   C20       1.0  0.8840800000000001  0.39407  0.77964  1.0000
  C   C21       1.0  0.9747000000000001  0.42741  0.74953  1.0000
  C   C22       1.0  0.9860500000000001  0.52071  0.72428  1.0000
  C   C23       1.0  0.90714  0.58129  0.72996  1.0000
  C   C24       1.0  0.81531  0.54671  0.7598100000000001  1.0000
  C   C25       1.0  0.07881000000000003  0.55362  0.69097  1.0000
  C   C26       1.0  0.47643  0.39016  0.9255  1.0000
  C   C27       1.0  0.4881400000000001  0.44657  0.9640200000000001  1.0000
  C   C28       1.0  0.56422  0.42746000000000006  0.99283  1.0000
  C   C29       1.0  0.42389  0.51932  0.9713299999999999  1.0000
  C   C30       1.0  0.14055  0.0729  0.92798  1.0000
  C   C31       1.0  0.06809  0.03443  0.96517  1.0000
  C   C32       1.0  0.005850000000000038  0.9111  0.97593  1.0000
  C   C33       1.0  0.06187  0.12305000000000002  0.98936  1.0000
  C   C34       1.0  0.96953  0.16602  0.38297  1.0000
  C   C35       1.0  0.03822000000000001  0.0981  0.38731  1.0000
  C   C36       1.0  0.98408  0.97652  0.37325  1.0000
  C   C37       1.0  0.85667  0.9323500000000001  0.35542  1.0000
  C   C38       1.0  0.79265  0.00509  0.35280000000000006  1.0000
  C   C39       1.0  0.05521999999999997  0.90466  0.37622  1.0000
  C   C40       1.0  0.16481  0.93519  0.40186  1.0000
  C   C41       1.0  0.23519999999999996  0.86917  0.40322  1.0000
  C   C42       1.0  0.09785000000000009  0.73746  0.35427  1.0000
  C   C43       1.0  0.02366000000000008  0.7998700000000001  0.35292000000000007  1.0000
  C   C44       1.0  0.28225  0.70601  0.37912  1.0000
  C   C45       1.0  0.4219  0.7703  0.38199  1.0000
  C   C46       1.0  0.49732  0.70645  0.38024  1.0000
  C   C47       1.0  0.43525  0.57888  0.37654  1.0000
  C   C48       1.0  0.29528000000000004  0.51565  0.3745800000000001  1.0000
  C   C49       1.0  0.21890999999999994  0.57842  0.37538  1.0000
  C   C50       1.0  0.51369  0.50875  0.37434000000000006  1.0000
  C   C51       1.0  0.29765  0.08479  0.316  1.0000
  C   C52       1.0  0.19319  0.04342  0.28517  1.0000
  C   C53       1.0  0.11473  0.10421000000000001  0.27919  1.0000
  C   C54       1.0  0.025659999999999995  0.07206  0.24863000000000002  1.0000
  C   C55       1.0  0.013179999999999973  0.97771  0.22374  1.0000
  C   C56       1.0  0.08900999999999998  0.9145899999999999  0.23034000000000002  1.0000
  C   C57       1.0  0.1784100000000001  0.94722  0.26085  1.0000
  C   C58       1.0  0.92222  0.94623  0.18995  1.0000
  C   C59       1.0  0.52639  0.11054  0.42538  1.0000
  C   C60       1.0  0.5136  0.05385  0.46397  1.0000
  C   C61       1.0  0.43663  0.07296  0.49237  1.0000
  C   C62       1.0  0.5770500000000001  0.9805900000000001  0.47173000000000004  1.0000
  C   C63       1.0  0.8614600000000001  0.42837  0.42736  1.0000
  C   C64       1.0  0.9321500000000001  0.46627  0.46497  1.0000
  C   C65       1.0  0.9937600000000001  0.58924  0.47611  1.0000
  C   C66       1.0  0.9387  0.37738  0.48908  1.0000
  C   C67       1.0  0.96711  0.66593  0.11665000000000002  1.0000
  C   C68       1.0  0.03634999999999999  0.59853  0.11248000000000001  1.0000
  C   C69       1.0  0.9830100000000002  0.47707  0.12666  1.0000
  C   C70       1.0  0.85575  0.4325  0.14451  1.0000
  C   C71       1.0  0.7910399999999999  0.50467  0.14695  1.0000
  C   C72       1.0  0.05467000000000001  0.40574  0.12378  1.0000
  C   C73       1.0  0.16453000000000007  0.43689000000000006  0.09829  1.0000
  C   C74       1.0  0.23519  0.37113  0.0969  1.0000
  C   C75       1.0  0.09801  0.23853  0.14565  1.0000
  C   C76       1.0  0.023450000000000002  0.30063  0.14698  1.0000
  C   C77       1.0  0.28301  0.20793000000000003  0.12086000000000001  1.0000
  C   C78       1.0  0.42266  0.2724  0.11796000000000001  1.0000
  C   C79       1.0  0.49831  0.20874000000000004  0.11975  1.0000
  C   C80       1.0  0.43648000000000003  0.08125  0.12357000000000001  1.0000
  C   C81       1.0  0.29657  0.0179  0.1256  1.0000
  C   C82       1.0  0.21994  0.08037  0.12467  1.0000
  C   C83       1.0  0.51463  0.01082  0.12565  1.0000
  C   C84       1.0  0.30359  0.59125  0.18504  1.0000
  C   C85       1.0  0.19777  0.54808  0.21539  1.0000
  C   C86       1.0  0.11591999999999997  0.60593  0.22037  1.0000
  C   C87       1.0  0.02530000000000001  0.57259  0.25048  1.0000
  C   C88       1.0  0.013949999999999992  0.47928  0.27573  1.0000
  C   C89       1.0  0.09286000000000004  0.4187  0.27004  1.0000
  C   C90       1.0  0.18469000000000002  0.45329  0.24018999999999996  1.0000
  C   C91       1.0  0.92119  0.44638  0.30903  1.0000
  C   C92       1.0  0.52357  0.60983  0.07450000000000001  1.0000
  C   C93       1.0  0.51187  0.55343  0.03598  1.0000
  C   C94       1.0  0.43579  0.57254  0.00718  1.0000
  C   C95       1.0  0.57612  0.48068000000000005  0.02867  1.0000
  C   C96       1.0  0.8594600000000001  0.9271000000000001  0.07202000000000001  1.0000
  C   C97       1.0  0.9319200000000001  0.9655600000000001  0.03483  1.0000
  C   C98       1.0  0.99416  0.0889  0.024070000000000005  1.0000
  C   C99       1.0  0.9381300000000001  0.87695  0.01064  1.0000
  C   C100      1.0  0.030470000000000004  0.83397  0.61703  1.0000
  C   C101      1.0  0.96179  0.9019  0.6127  1.0000
  C   C102      1.0  0.01592  0.02347  0.62675  1.0000
  C   C103      1.0  0.14333  0.06765  0.64458  1.0000
  C   C104      1.0  0.2073600000000001  0.9949100000000001  0.6472  1.0000
  C   C105      1.0  0.94479  0.09534  0.62378  1.0000
  C   C106      1.0  0.83519  0.06481  0.59814  1.0000
  C   C107      1.0  0.76481  0.13083  0.5967800000000001  1.0000
  C   C108      1.0  0.9021500000000001  0.26254  0.64574  1.0000
  C   C109      1.0  0.97634  0.20013000000000003  0.64708  1.0000
  C   C110      1.0  0.71775  0.29399  0.62089  1.0000
  C   C111      1.0  0.5781000000000001  0.2297  0.61801  1.0000
  C   C112      1.0  0.50268  0.29354  0.61977  1.0000
  C   C113      1.0  0.56475  0.42112000000000005  0.62346  1.0000
  C   C114      1.0  0.70472  0.48435  0.62542  1.0000
  C   C115      1.0  0.7810999999999999  0.42157  0.62462  1.0000
  C   C116      1.0  0.48632000000000003  0.49125  0.62566  1.0000
  C   C117      1.0  0.70235  0.91521  0.68401  1.0000
  C   C118      1.0  0.80682  0.95658  0.7148300000000001  1.0000
  C   C119      1.0  0.88527  0.8957900000000001  0.72081  1.0000
  C   C120      1.0  0.97434  0.92794  0.75137  1.0000
  C   C121      1.0  0.98682  0.02229  0.77626  1.0000
  C   C122      1.0  0.91099  0.08541  0.7696600000000001  1.0000
  C   C123      1.0  0.8216000000000001  0.052779999999999994  0.73915  1.0000
  C   C124      1.0  0.07779000000000003  0.05377  0.81005  1.0000
  C   C125      1.0  0.47361  0.88946  0.57462  1.0000
  C   C126      1.0  0.4864  0.94614  0.53603  1.0000
  C   C127      1.0  0.56337  0.9270400000000001  0.50763  1.0000
  C   C128      1.0  0.42295000000000005  0.01941  0.52827  1.0000
  C   C129      1.0  0.13854  0.57163  0.57264  1.0000
  C   C130      1.0  0.06785999999999998  0.53373  0.53503  1.0000
  C   C131      1.0  0.006249999999999965  0.41076  0.5239  1.0000
  C   C132      1.0  0.061310000000000024  0.62262  0.5109200000000002  1.0000
  N   N1        1.0  0.15530000000000008  0.3788500000000001  0.8664700000000001  1.0000
  N   N2        1.0  0.79517  0.72791  0.8791600000000002  1.0000
  N   N3        1.0  0.8471499999999998  0.12174  0.36601  1.0000
  N   N4        1.0  0.20443000000000003  0.77044  0.37919  1.0000
  N   N5        1.0  0.8447000000000001  0.62115  0.13353  1.0000
  N   N6        1.0  0.20483  0.27208  0.12084000000000002  1.0000
  N   N7        1.0  0.15285  0.87826  0.63399  1.0000
  N   N8        1.0  0.7955700000000001  0.22956  0.62081  1.0000
  O   O1        1.0  0.36295000000000005  0.9327200000000001  0.86285  1.0000
  O   O2        1.0  0.54522  0.10066  0.88407  1.0000
  O   O3        1.0  0.69796  0.32346  0.83737  1.0000
  O   O4        1.0  0.61301  0.44931000000000004  0.81723  1.0000
  O   O5        1.0  0.13961000000000004  0.48655000000000004  0.686  1.0000
  O   O6        1.0  0.09038000000000003  0.64091  0.66944  1.0000
  O   O7        1.0  0.4126200000000001  0.41307  0.89927  1.0000
  O   O8        1.0  0.53566  0.3222  0.9218600000000001  1.0000
  O   O9        1.0  0.18065  0.18378000000000003  0.91832  1.0000
  O   O10       1.0  0.15669999999999992  0.99189  0.90867  1.0000
  O   O11       1.0  0.36459  0.20293  0.84756  1.0000
  O   O12       1.0  0.6351  0.56571  0.36197  1.0000
  O   O13       1.0  0.45572000000000007  0.3977800000000001  0.38472  1.0000
  O   O14       1.0  0.30219  0.17574  0.33676  1.0000
  O   O15       1.0  0.37483  0.03798  0.32008000000000003  1.0000
  O   O16       1.0  0.8599500000000001  0.01229  0.18532  1.0000
  O   O17       1.0  0.91336  0.86146  0.16773  1.0000
  O   O18       1.0  0.59362  0.08981  0.39985  1.0000
  O   O19       1.0  0.46443999999999996  0.17594  0.42098  1.0000
  O   O20       1.0  0.8247300000000001  0.31823  0.41741000000000006  1.0000
  O   O21       1.0  0.84378  0.50849  0.40789  1.0000
  O   O22       1.0  0.63578  0.29665  0.34657  1.0000
  O   O23       1.0  0.63705  0.06727  0.13716  1.0000
  O   O24       1.0  0.45478  0.8993400000000001  0.11593000000000002  1.0000
  O   O25       1.0  0.30204  0.67654  0.16263  1.0000
  O   O26       1.0  0.38699000000000006  0.55069  0.18277  1.0000
  O   O27       1.0  0.86039  0.51345  0.31401  1.0000
  O   O28       1.0  0.90962  0.35909  0.33056  1.0000
  O   O29       1.0  0.58738  0.58693  0.10073  1.0000
  O   O30       1.0  0.46434000000000003  0.6778  0.07814  1.0000
  O   O31       1.0  0.81935  0.81622  0.08168  1.0000
  O   O32       1.0  0.8433  0.00811  0.09133  1.0000
  O   O33       1.0  0.6354199999999999  0.79707  0.15244  1.0000
  O   O34       1.0  0.3649099999999999  0.43429  0.63803  1.0000
  O   O35       1.0  0.54428  0.60222  0.61529  1.0000
  O   O36       1.0  0.69781  0.8242600000000001  0.6632400000000002  1.0000
  O   O37       1.0  0.6251699999999999  0.96202  0.67992  1.0000
  O   O38       1.0  0.1400600000000001  0.9877100000000001  0.81468  1.0000
  O   O39       1.0  0.08665  0.13854  0.83227  1.0000
  O   O40       1.0  0.40638  0.91019  0.60015  1.0000
  O   O41       1.0  0.5355699999999999  0.8240599999999999  0.57903  1.0000
  O   O42       1.0  0.17527  0.68177  0.58259  1.0000
  O   O43       1.0  0.15622  0.49151  0.59211  1.0000
  O   O44       1.0  0.36423  0.70335  0.65343  1.0000
