data_image0
_chemical_formula_structural       Cd6H96C128N8O24
_chemical_formula_sum              "Cd6 H96 C128 N8 O24"
_cell_length_a       13.91002
_cell_length_b       14.3299
_cell_length_c       20.745009999999997
_cell_angle_alpha    80.41976
_cell_angle_beta     86.27641
_cell_angle_gamma    66.24187

_symmetry_space_group_name_H-M    'P 1'
_symmetry_Int_Tables_number       1

loop_
  _symmetry_equiv_pos_as_xyz
  'x,y,z'

loop_
  _atom_site_type_symbol
  _atom_site_label
  _atom_site_symmetry_multiplicity
  _atom_site_fract_x
  _atom_site_fract_y
  _atom_site_fract_z
  _atom_site_occupancy
  Cd  Cd1       1.0  0.5375999999999997  0.72231  0.04676000000000002  1.0000
  Cd  Cd2       1.0  0.46232999999999985  0.27779  0.95322  1.0000
  Cd  Cd3       1.0  0.97687  0.76994  0.43046000000000006  1.0000
  Cd  Cd4       1.0  0.50005  0.9999800000000001  0.9999800000000001  1.0000
  Cd  Cd5       1.0  0.02314000000000002  0.23006  0.56955  1.0000
  Cd  Cd6       1.0  1.9999999999994845e-05  0.49999  0.50001  1.0000
  H   H1        1.0  0.71299  0.12965999999999994  0.9427700000000001  1.0000
  H   H2        1.0  0.5867100000000001  0.5727099999999999  0.5746500000000001  1.0000
  H   H3        1.0  0.6295399999999998  0.6903300000000001  0.9102300000000001  1.0000
  H   H4        1.0  0.03862999999999992  0.71232  0.92406  1.0000
  H   H5        1.0  0.25211999999999996  0.88477  0.8514700000000002  1.0000
  H   H6        1.0  0.9183499999999998  0.26966  0.27987  1.0000
  H   H7        1.0  0.6121600000000001  0.6443899999999999  0.8388000000000001  1.0000
  H   H8        1.0  0.9482099999999997  0.32455  0.7831100000000001  1.0000
  H   H9        1.0  0.9696899999999998  0.03724000000000003  0.32217  1.0000
  H   H10       1.0  0.4420599999999998  0.81877  0.41671  1.0000
  H   H11       1.0  0.7558699999999998  0.23556000000000002  0.65954  1.0000
  H   H12       1.0  0.7112699999999997  0.4849  0.10944000000000002  1.0000
  H   H13       1.0  0.76801  0.4552300000000001  0.9052  1.0000
  H   H14       1.0  0.5812199999999997  0.35127  0.27959  1.0000
  H   H15       1.0  0.70042  0.22272000000000003  0.77588  1.0000
  H   H16       1.0  0.21457999999999974  0.85445  0.7305100000000001  1.0000
  H   H17       1.0  0.75186  0.6010199999999999  0.558  1.0000
  H   H18       1.0  0.08902  0.85203  0.87363  1.0000
  H   H19       1.0  0.9162999999999999  0.04517000000000001  0.76453  1.0000
  H   H20       1.0  0.8536800000000001  0.11388000000000002  0.59919  1.0000
  H   H21       1.0  0.64099  0.3714  0.90622  1.0000
  H   H22       1.0  0.3704499999999999  0.30967  0.08977000000000002  1.0000
  H   H23       1.0  0.24813999999999986  0.39903  0.44199  1.0000
  H   H24       1.0  0.40115999999999996  0.65947  0.60636  1.0000
  H   H25       1.0  0.7185699999999998  0.9799700000000001  0.47690000000000005  1.0000
  H   H26       1.0  0.41331  0.42729  0.42535  1.0000
  H   H27       1.0  0.07044999999999996  0.06226999999999999  0.94517  1.0000
  H   H28       1.0  0.74941  0.39474  0.38001  1.0000
  H   H29       1.0  0.9806299999999997  0.70269  0.6369  1.0000
  H   H30       1.0  0.40387999999999985  0.73924  0.77228  1.0000
  H   H31       1.0  0.5961199999999998  0.26076  0.22772  1.0000
  H   H32       1.0  0.14629999999999993  0.88613  0.40082000000000007  1.0000
  H   H33       1.0  0.8175600000000001  0.02139000000000001  0.38059  1.0000
  H   H34       1.0  0.23406999999999997  0.09245999999999996  0.9264900000000003  1.0000
  H   H35       1.0  0.91103  0.14794999999999997  0.12636  1.0000
  H   H36       1.0  0.12864999999999993  0.31431  0.058800000000000005  1.0000
  H   H37       1.0  0.86722  0.024329999999999977  0.8826  1.0000
  H   H38       1.0  0.2870999999999999  0.8704100000000001  0.05719000000000001  1.0000
  H   H39       1.0  0.23198  0.54478  0.0948  1.0000
  H   H40       1.0  0.08362  0.95484  0.23549000000000006  1.0000
  H   H41       1.0  0.3920399999999999  0.15301  0.59967  1.0000
  H   H42       1.0  0.057489999999999944  0.8199800000000002  0.77397  1.0000
  H   H43       1.0  0.060599999999999966  0.09454000000000003  0.31833  1.0000
  H   H44       1.0  0.10159  0.24859999999999996  0.43293000000000004  1.0000
  H   H45       1.0  0.35900000000000004  0.62861  0.09378  1.0000
  H   H46       1.0  0.8983899999999998  0.75143  0.56708  1.0000
  H   H47       1.0  0.6079299999999999  0.8470200000000001  0.40033  1.0000
  H   H48       1.0  0.28873000000000004  0.5150899999999999  0.89056  1.0000
  H   H49       1.0  0.7854199999999998  0.14556  0.2695  1.0000
  H   H50       1.0  0.8722999999999996  0.8248099999999999  0.6326700000000001  1.0000
  H   H51       1.0  0.9613899999999999  0.28769  0.07592  1.0000
  H   H52       1.0  0.7479099999999997  0.11528  0.14854000000000003  1.0000
  H   H53       1.0  0.43449  0.51421  0.8219200000000001  1.0000
  H   H54       1.0  0.03030000000000001  0.96278  0.67785  1.0000
  H   H55       1.0  0.9022099999999997  0.30292000000000013  0.90179  1.0000
  H   H56       1.0  0.6184999999999998  0.58571  0.28152  1.0000
  H   H57       1.0  0.019360000000000006  0.29731  0.3631100000000001  1.0000
  H   H58       1.0  0.87139  0.68571  0.9411800000000001  1.0000
  H   H59       1.0  0.26496999999999993  0.9741000000000001  0.41542000000000007  1.0000
  H   H60       1.0  0.09774999999999995  0.6970699999999999  0.09822000000000002  1.0000
  H   H61       1.0  0.08164999999999997  0.73035  0.7201300000000002  1.0000
  H   H62       1.0  0.2505799999999998  0.6052600000000002  0.62  1.0000
  H   H63       1.0  0.7589599999999999  0.38046  0.58725  1.0000
  H   H64       1.0  0.52771  0.77121  0.85351  1.0000
  H   H65       1.0  0.1277  0.1752  0.36734  1.0000
  H   H66       1.0  0.38149999999999984  0.4142799999999999  0.7184900000000001  1.0000
  H   H67       1.0  0.051729999999999964  0.67545  0.21688  1.0000
  H   H68       1.0  0.5644099999999997  0.57333  0.39831000000000005  1.0000
  H   H69       1.0  0.8037  0.5087  0.00516  1.0000
  H   H70       1.0  0.5579099999999999  0.18123999999999998  0.5833000000000002  1.0000
  H   H71       1.0  0.73502  0.025909999999999992  0.58459  1.0000
  H   H72       1.0  0.28143  0.020039999999999995  0.5231  1.0000
  H   H73       1.0  0.53949  0.55426  0.80884  1.0000
  H   H74       1.0  0.47227999999999976  0.22881  0.1465  1.0000
  H   H75       1.0  0.7626499999999998  0.23062000000000002  0.32602  1.0000
  H   H76       1.0  0.26047999999999993  0.6235999999999999  0.76868  1.0000
  H   H77       1.0  0.24467  0.7097700000000001  0.82346  1.0000
  H   H78       1.0  0.9393899999999996  0.90546  0.68168  1.0000
  H   H79       1.0  0.18245000000000003  0.97863  0.61941  1.0000
  H   H80       1.0  0.7553299999999997  0.29024  0.17655  1.0000
  H   H81       1.0  0.41877999999999993  0.6487299999999999  0.7204200000000002  1.0000
  H   H82       1.0  0.9295699999999998  0.93775  0.05482000000000001  1.0000
  H   H83       1.0  0.4355799999999998  0.42667000000000005  0.6017  1.0000
  H   H84       1.0  0.38782999999999995  0.3556300000000001  0.1612  1.0000
  H   H85       1.0  0.9425099999999997  0.18002000000000004  0.22604000000000002  1.0000
  H   H86       1.0  0.1327399999999999  0.97568  0.11742  1.0000
  H   H87       1.0  0.7659699999999999  0.9075600000000001  0.07349000000000001  1.0000
  H   H88       1.0  0.23734000000000002  0.76938  0.6739900000000001  1.0000
  H   H89       1.0  0.29956  0.77727  0.22413000000000002  1.0000
  H   H90       1.0  0.1963  0.4913  0.99484  1.0000
  H   H91       1.0  0.24412999999999999  0.7644299999999999  0.34046000000000004  1.0000
  H   H92       1.0  0.24103999999999992  0.61954  0.41276000000000007  1.0000
  H   H93       1.0  0.46050999999999986  0.44575  0.19117  1.0000
  H   H94       1.0  0.59883  0.34052999999999994  0.39365  1.0000
  H   H95       1.0  0.7395199999999998  0.3764  0.23133  1.0000
  H   H96       1.0  0.56551  0.48579  0.17809000000000003  1.0000
  C   C1        1.0  0.7202900000000001  0.12028999999999998  0.046880000000000005  1.0000
  C   C2        1.0  0.11188999999999996  0.9059099999999999  0.5638900000000001  1.0000
  C   C3        1.0  0.022390000000000007  0.24331  0.04437  1.0000
  C   C4        1.0  0.3164799999999998  0.35069  0.47236  1.0000
  C   C5        1.0  0.7918699999999996  0.73775  0.46425  1.0000
  C   C6        1.0  0.9965599999999999  0.17574999999999993  0.4272500000000001  1.0000
  C   C7        1.0  0.35674  0.73291  0.26266  1.0000
  C   C8        1.0  0.8251599999999999  0.86678  0.03984  1.0000
  C   C9        1.0  0.45549  0.5806499999999999  0.8203100000000001  1.0000
  C   C10       1.0  0.003429999999999994  0.82427  0.57276  1.0000
  C   C11       1.0  0.6261799999999997  0.0944  0.059500000000000004  1.0000
  C   C12       1.0  0.24264999999999992  0.8675600000000001  0.01689  1.0000
  C   C13       1.0  0.7756699999999997  0.12682  0.09880000000000001  1.0000
  C   C14       1.0  0.27236000000000005  0.69336  0.77409  1.0000
  C   C15       1.0  0.09014999999999998  0.8016999999999999  0.7256100000000001  1.0000
  C   C16       1.0  0.9343800000000001  0.77362  0.60403  1.0000
  C   C17       1.0  0.30893  0.27531  0.52271  1.0000
  C   C18       1.0  0.13381999999999994  0.85423  0.91401  1.0000
  C   C19       1.0  0.5096799999999999  0.7716600000000001  0.44789000000000007  1.0000
  C   C20       1.0  0.7479899999999998  0.47265  0.00707  1.0000
  C   C21       1.0  0.3666399999999998  0.64951  0.56374  1.0000
  C   C22       1.0  0.4935699999999998  0.69111  0.17564000000000002  1.0000
  C   C23       1.0  0.6835099999999996  0.64933  0.5276400000000001  1.0000
  C   C24       1.0  0.59959  0.33181999999999995  0.6222500000000001  1.0000
  C   C25       1.0  0.8980799999999998  0.12106000000000001  0.49719  1.0000
  C   C26       1.0  0.88053  0.16285  0.9  1.0000
  C   C27       1.0  0.09564999999999994  0.75286  0.12847  1.0000
  C   C28       1.0  0.06428999999999999  0.81383  0.23326000000000005  1.0000
  C   C29       1.0  0.7269699999999996  0.4427200000000001  0.95006  1.0000
  C   C30       1.0  0.6550699999999996  0.3974900000000001  0.94968  1.0000
  C   C31       1.0  0.59036  0.33298000000000005  0.49826000000000004  1.0000
  C   C32       1.0  0.5904400000000001  0.63407  0.53719  1.0000
  C   C33       1.0  0.23563  0.61033  0.51673  1.0000
  C   C34       1.0  0.5064399999999999  0.3088900000000001  0.82437  1.0000
  C   C35       1.0  0.10191000000000001  0.87895  0.50282  1.0000
  C   C36       1.0  0.17486999999999997  0.13324  0.96014  1.0000
  C   C37       1.0  0.88453  0.09035  0.86063  1.0000
  C   C38       1.0  0.1511000000000001  0.8495799999999999  0.030480000000000004  1.0000
  C   C39       1.0  0.7643599999999997  0.38966  0.48329  1.0000
  C   C40       1.0  0.7183700000000001  0.37938  0.42826  1.0000
  C   C41       1.0  0.8241599999999998  0.042909999999999976  0.4274300000000001  1.0000
  C   C42       1.0  0.2081299999999999  0.26225  0.53575  1.0000
  C   C43       1.0  0.2210900000000001  0.9541599999999999  0.4568900000000001  1.0000
  C   C44       1.0  0.85229  0.42461  0.47851000000000005  1.0000
  C   C45       1.0  0.2797  0.87976  0.95308  1.0000
  C   C46       1.0  0.84896  0.15040999999999996  0.9695300000000001  1.0000
  C   C47       1.0  0.40963999999999995  0.6670099999999999  0.50175  1.0000
  C   C48       1.0  0.72406  0.36998  0.54507  1.0000
  C   C49       1.0  0.49678  0.3072899999999999  0.5038800000000001  1.0000
  C   C50       1.0  0.50242  0.3492  0.08611000000000002  1.0000
  C   C51       1.0  0.09510999999999999  0.84253  0.97797  1.0000
  C   C52       1.0  0.5444999999999998  0.41935  0.17969  1.0000
  C   C53       1.0  0.17584999999999995  0.9571  0.5725800000000001  1.0000
  C   C54       1.0  0.19259999999999997  0.20348999999999998  0.9923300000000002  1.0000
  C   C55       1.0  0.8074400000000002  0.7965199999999999  0.00765  1.0000
  C   C56       1.0  0.4095599999999999  0.36594  0.46281  1.0000
  C   C57       1.0  0.9305999999999998  0.25917  0.80575  1.0000
  C   C58       1.0  0.36266999999999977  0.65686  0.44602  1.0000
  C   C59       1.0  0.9356899999999998  0.18616  0.7667400000000001  1.0000
  C   C60       1.0  0.27303  0.55729  0.04994  1.0000
  C   C61       1.0  0.9098499999999998  0.1983  0.27440000000000003  1.0000
  C   C62       1.0  0.15628  0.90404  0.44819  1.0000
  C   C63       1.0  0.90435  0.24712  0.8715400000000001  1.0000
  C   C64       1.0  0.022900000000000004  0.89031  0.6743900000000002  1.0000
  C   C65       1.0  0.3978599999999999  0.21229999999999996  0.5613600000000001  1.0000
  C   C66       1.0  0.06561  0.22638999999999998  0.39598  1.0000
  C   C67       1.0  0.6021199999999999  0.7877199999999999  0.43864000000000003  1.0000
  C   C68       1.0  0.7789  0.045850000000000016  0.54312  1.0000
  C   C69       1.0  0.11547000000000003  0.90963  0.13939  1.0000
  C   C70       1.0  0.1195  0.83713  0.10002000000000001  1.0000
  C   C71       1.0  0.6233799999999999  0.41599  0.0651  1.0000
  C   C72       1.0  0.40041  0.66817  0.37776000000000004  1.0000
  C   C73       1.0  0.72764  0.3066499999999999  0.22591000000000003  1.0000
  C   C74       1.0  0.34492999999999985  0.60251  0.050320000000000004  1.0000
  C   C75       1.0  0.49372000000000005  0.3819199999999999  0.6396000000000001  1.0000
  C   C76       1.0  0.32630999999999993  0.7252700000000001  0.3278400000000001  1.0000
  C   C77       1.0  0.29212  0.21889999999999996  0.9801700000000001  1.0000
  C   C78       1.0  0.9659599999999996  0.19963  0.6965  1.0000
  C   C79       1.0  0.22431999999999988  0.8731800000000001  0.9011900000000002  1.0000
  C   C80       1.0  0.20650999999999994  0.7835900000000001  0.72319  1.0000
  C   C81       1.0  0.004209999999999992  0.17284  0.012050000000000002  1.0000
  C   C82       1.0  0.30357000000000006  0.53997  0.9342100000000001  1.0000
  C   C83       1.0  0.8881099999999998  0.09410000000000002  0.43613  1.0000
  C   C84       1.0  0.27593  0.63002  0.45494000000000007  1.0000
  C   C85       1.0  0.38992999999999994  0.66994  0.76882  1.0000
  C   C86       1.0  0.9958399999999998  0.82716  0.98795  1.0000
  C   C87       1.0  0.6910599999999998  0.7247099999999997  0.4772900000000001  1.0000
  C   C88       1.0  0.70792  0.78108  0.01982  1.0000
  C   C89       1.0  0.8661799999999997  0.14578000000000005  0.08599  1.0000
  C   C90       1.0  0.4975799999999998  0.65081  0.9139  1.0000
  C   C91       1.0  0.8847899999999996  0.74109  0.9654700000000003  1.0000
  C   C92       1.0  0.08231999999999995  0.11771999999999998  0.9700900000000002  1.0000
  C   C93       1.0  0.53673  0.62462  0.29506000000000004  1.0000
  C   C94       1.0  0.46326999999999985  0.37538  0.70494  1.0000
  C   C95       1.0  0.2520099999999999  0.5273500000000001  0.99294  1.0000
  C   C96       1.0  0.9776600000000002  0.7566999999999998  0.9556200000000001  1.0000
  C   C97       1.0  0.9126299999999998  0.10146999999999996  0.7949000000000002  1.0000
  C   C98       1.0  0.50628  0.6180699999999999  0.36041000000000006  1.0000
  C   C99       1.0  0.6964299999999998  0.46002  0.0658  1.0000
  C   C100      1.0  0.6736899999999999  0.27473  0.67216  1.0000
  C   C101      1.0  0.11523999999999998  0.25893  0.03451  1.0000
  C   C102      1.0  0.9049199999999997  0.15748  0.02204  1.0000
  C   C103      1.0  0.8437099999999997  0.09597000000000001  0.55182  1.0000
  C   C104      1.0  0.37662000000000007  0.58401  0.93491  1.0000
  C   C105      1.0  0.1476799999999999  0.5754100000000002  0.52149  1.0000
  C   C106      1.0  0.63732  0.34313  0.5539900000000001  1.0000
  C   C107      1.0  0.034029999999999956  0.80037  0.30349  1.0000
  C   C108      1.0  0.28162000000000004  0.6206199999999998  0.57174  1.0000
  C   C109      1.0  0.23113999999999996  0.98003  0.51799  1.0000
  C   C110      1.0  0.08734999999999994  0.89852  0.20511000000000001  1.0000
  C   C111      1.0  0.76886  0.019979999999999984  0.4820100000000001  1.0000
  C   C112      1.0  0.6100699999999998  0.33006  0.23118  1.0000
  C   C113      1.0  0.53771  0.31755  0.7543300000000002  1.0000
  C   C114      1.0  0.57125  0.6909299999999999  0.8768200000000003  1.0000
  C   C115      1.0  0.4903  0.22835  0.55211  1.0000
  C   C116      1.0  0.79349  0.21642  0.27682  1.0000
  C   C117      1.0  0.91771  0.88229  0.0299  1.0000
  C   C118      1.0  0.06938999999999998  0.74081  0.19426000000000004  1.0000
  C   C119      1.0  0.75742  0.13244999999999996  0.9830900000000002  1.0000
  C   C120      1.0  0.60284  0.38461  0.00822  1.0000
  C   C121      1.0  0.4622799999999998  0.68244  0.24567000000000003  1.0000
  C   C122      1.0  0.4287399999999999  0.30908  0.12319000000000001  1.0000
  C   C123      1.0  0.6333599999999999  0.35049  0.43627  1.0000
  C   C124      1.0  0.9770899999999998  0.10969999999999998  0.3256200000000001  1.0000
  C   C125      1.0  0.5032099999999999  0.6927200000000001  0.49613  1.0000
  C   C126      1.0  0.39714999999999995  0.6154  0.99179  1.0000
  C   C127      1.0  0.6432499999999998  0.26708  0.73734  1.0000
  C   C128      1.0  0.37381999999999954  0.90564  0.94023  1.0000
  N   N1        1.0  0.5273399999999999  0.34357  0.023060000000000004  1.0000
  N   N2        1.0  0.5581599999999998  0.39314  0.11335  1.0000
  N   N3        1.0  0.47266  0.65645  0.97694  1.0000
  N   N4        1.0  0.9518199999999998  0.1292  0.39313000000000003  1.0000
  N   N5        1.0  0.04818  0.87081  0.60688  1.0000
  N   N6        1.0  0.44182999999999995  0.60687  0.88666  1.0000
  N   N7        1.0  0.03360000000000002  0.82822  0.51008  1.0000
  N   N8        1.0  0.9663999999999999  0.17179  0.48993  1.0000
  O   O1        1.0  0.10060999999999994  0.5873500000000001  0.46594  1.0000
  O   O2        1.0  0.7940899999999999  0.81516  0.42512000000000005  1.0000
  O   O3        1.0  0.57558  0.10226  0.00514  1.0000
  O   O4        1.0  0.12348999999999997  0.32869  0.5057  1.0000
  O   O5        1.0  0.29929  0.29746  0.99719  1.0000
  O   O6        1.0  0.023709999999999874  0.8706  0.33789  1.0000
  O   O7        1.0  0.4245100000000001  0.8978299999999999  0.99454  1.0000
  O   O8        1.0  0.12141999999999996  0.53504  0.5743200000000002  1.0000
  O   O9        1.0  0.019629999999999967  0.71911  0.32789  1.0000
  O   O10       1.0  0.4248  0.75506  0.13351000000000002  1.0000
  O   O11       1.0  0.9762799999999998  0.1294  0.66212  1.0000
  O   O12       1.0  0.60027  0.06637  0.11507000000000002  1.0000
  O   O13       1.0  0.8993999999999998  0.41265  0.53405  1.0000
  O   O14       1.0  0.8784799999999998  0.46504  0.42569  1.0000
  O   O15       1.0  0.36851999999999996  0.15403999999999993  0.9512300000000002  1.0000
  O   O16       1.0  0.5861699999999999  0.63476  0.15878  1.0000
  O   O17       1.0  0.57521  0.24498000000000003  0.8665  1.0000
  O   O18       1.0  0.63151  0.8459300000000001  0.04878  1.0000
  O   O19       1.0  0.4138299999999998  0.36524  0.84122  1.0000
  O   O20       1.0  0.39959999999999996  0.9335199999999999  0.8846100000000001  1.0000
  O   O21       1.0  0.9803899999999999  0.28087  0.6721  1.0000
  O   O22       1.0  0.8764999999999995  0.6713000000000001  0.4943000000000001  1.0000
  O   O23       1.0  0.70074  0.70253  0.0028000000000000004  1.0000
  O   O24       1.0  0.20591000000000004  0.18484999999999996  0.5748800000000001  1.0000
