data_image0
_chemical_formula_structural       U12H84C72O72
_chemical_formula_sum              "U12 H84 C72 O72"
_cell_length_a       12.04108
_cell_length_b       19.29743
_cell_length_c       19.29261
_cell_angle_alpha    120.34098
_cell_angle_beta     89.99683
_cell_angle_gamma    89.98506999999998

_space_group_name_H-M_alt    "P 1"
_space_group_IT_number       1

loop_
  _space_group_symop_operation_xyz
  'x, y, z'

loop_
  _atom_site_type_symbol
  _atom_site_label
  _atom_site_symmetry_multiplicity
  _atom_site_fract_x
  _atom_site_fract_y
  _atom_site_fract_z
  _atom_site_occupancy
  U   U1        1.0  0.15450000000000003  0.496  0.16745  1.0000
  U   U2        1.0  0.8267900000000002  0.3142900000000001  0.82977  1.0000
  U   U3        1.0  0.53238  0.1678499999999999  0.9934399999999999  1.0000
  U   U4        1.0  0.8210200000000001  0.33004  0.32415999999999995  1.0000
  U   U5        1.0  0.48719000000000007  0.67176  0.50342  1.0000
  U   U6        1.0  0.15758000000000003  0.5156399999999999  0.68627  1.0000
  U   U7        1.0  0.8657  0.8258699999999999  0.8322299999999998  1.0000
  U   U8        1.0  0.15884000000000004  0.9935899999999998  0.6698  1.0000
  U   U9        1.0  0.8219600000000001  0.83271  0.3285499999999999  1.0000
  U   U10       1.0  0.49206  0.16972999999999996  0.48509  1.0000
  U   U11       1.0  0.20039  0.004879999999999971  0.17455999999999994  1.0000
  U   U12       1.0  0.48375000000000007  0.67718  0.00682  1.0000
  H   H1        1.0  0.8589200000000001  0.6332699999999999  0.3901  1.0000
  H   H2        1.0  0.7671  0.6641899999999998  0.33891  1.0000
  H   H3        1.0  0.70312  0.52363  0.24979  1.0000
  H   H4        1.0  0.8487  0.53172  0.23982  1.0000
  H   H5        1.0  0.8722100000000003  0.62616  0.08134  1.0000
  H   H6        1.0  0.8159800000000003  0.63425  0.16982  1.0000
  H   H7        1.0  0.7119300000000002  0.50926  0.09552999999999998  1.0000
  H   H8        1.0  0.6872200000000002  0.56515  0.04877  1.0000
  H   H9        1.0  0.87223  0.24469  0.51745  1.0000
  H   H10       1.0  0.84151  0.29446  0.62131  1.0000
  H   H11       1.0  0.74456  0.40429  0.59567  1.0000
  H   H12       1.0  0.8920600000000002  0.40356  0.59739  1.0000
  H   H13       1.0  0.60838  0.07721999999999989  0.6906399999999998  1.0000
  H   H14       1.0  0.54391  0.13084  0.64869  1.0000
  H   H15       1.0  0.41007  0.10384  0.72651  1.0000
  H   H16       1.0  0.4317500000000001  0.20975999999999992  0.7748599999999999  1.0000
  H   H17       1.0  0.9028500000000002  0.13336  0.035349999999999986  1.0000
  H   H18       1.0  0.86775  0.030809999999999886  0.9880799999999998  1.0000
  H   H19       1.0  0.7937100000000002  0.05352999999999999  0.12307999999999998  1.0000
  H   H20       1.0  0.9375600000000002  0.07001  0.12354  1.0000
  H   H21       1.0  0.29448  0.29267  0.21953  1.0000
  H   H22       1.0  0.25194  0.19032  0.1719  1.0000
  H   H23       1.0  0.12454  0.2185  0.07985  1.0000
  H   H24       1.0  0.08563000000000003  0.26398999999999995  0.18293  1.0000
  H   H25       1.0  0.80318  0.52761  0.41807  1.0000
  H   H26       1.0  0.91698  0.43887  0.0546  1.0000
  H   H27       1.0  0.66539  0.16121  0.84297  1.0000
  H   H28       1.0  0.7319600000000002  0.17829  0.64111  1.0000
  H   H29       1.0  0.19256  0.7563600000000001  0.36689  1.0000
  H   H30       1.0  0.1  0.6742099999999999  0.3352199999999999  1.0000
  H   H31       1.0  0.03649000000000001  0.7259899999999998  0.47556  1.0000
  H   H32       1.0  0.18179000000000003  0.70752  0.46713  1.0000
  H   H33       1.0  0.20537  0.45416  0.37279  1.0000
  H   H34       1.0  0.15  0.53569  0.36667  1.0000
  H   H35       1.0  0.046360000000000005  0.58669  0.4914  1.0000
  H   H36       1.0  0.021380000000000003  0.48354  0.43497  1.0000
  H   H37       1.0  0.20514000000000004  0.27312000000000003  0.75551  1.0000
  H   H38       1.0  0.17479  0.32764  0.70665  1.0000
  H   H39       1.0  0.07857  0.19072999999999996  0.59579  1.0000
  H   H40       1.0  0.22594000000000006  0.19376999999999991  0.59666  1.0000
  H   H41       1.0  0.9417  0.6137099999999999  0.9226199999999998  1.0000
  H   H42       1.0  0.87862  0.5172  0.86679  1.0000
  H   H43       1.0  0.74389  0.62357  0.89645  1.0000
  H   H44       1.0  0.76453  0.56424  0.79037  1.0000
  H   H45       1.0  0.23596000000000006  0.90131  0.8661199999999998  1.0000
  H   H46       1.0  0.20072000000000007  0.95792  0.96846  1.0000
  H   H47       1.0  0.1271  0.06996999999999985  0.9463699999999998  1.0000
  H   H48       1.0  0.27063  0.05379999999999989  0.9298599999999998  1.0000
  H   H49       1.0  0.6273300000000002  0.92667  0.70784  1.0000
  H   H50       1.0  0.58564  0.98297  0.81048  1.0000
  H   H51       1.0  0.45692  0.86228  0.78178  1.0000
  H   H52       1.0  0.4186700000000001  0.92005  0.73724  1.0000
  H   H53       1.0  0.13874000000000003  0.89128  0.4732399999999999  1.0000
  H   H54       1.0  0.25184  0.61587  0.56052  1.0000
  H   H55       1.0  0.9991900000000001  0.6799199999999999  0.8416699999999998  1.0000
  H   H56       1.0  0.06404  0.4630899999999999  0.8199699999999998  1.0000
  H   H57       1.0  0.5256800000000001  0.61003  0.24307999999999996  1.0000
  H   H58       1.0  0.4333500000000001  0.6617699999999999  0.32551999999999987  1.0000
  H   H59       1.0  0.3702200000000001  0.74976  0.27326  1.0000
  H   H60       1.0  0.51501  0.76089  0.29389  1.0000
  H   H61       1.0  0.53942  0.9186899999999999  0.5451  1.0000
  H   H62       1.0  0.4833300000000001  0.8302499999999999  0.46377  1.0000
  H   H63       1.0  0.3798300000000001  0.90398  0.4134499999999999  1.0000
  H   H64       1.0  0.35493  0.9516499999999999  0.51658  1.0000
  H   H65       1.0  0.5386  0.48223999999999995  0.72695  1.0000
  H   H66       1.0  0.50744  0.37827  0.67178  1.0000
  H   H67       1.0  0.41152  0.40489  0.80845  1.0000
  H   H68       1.0  0.5591300000000001  0.40301  0.80533  1.0000
  H   H69       1.0  0.27492000000000005  0.3087  0.3866  1.0000
  H   H70       1.0  0.21014000000000005  0.35195999999999994  0.48274  1.0000
  H   H71       1.0  0.07642  0.27347999999999995  0.37711999999999996  1.0000
  H   H72       1.0  0.09758  0.22639  0.43542  1.0000
  H   H73       1.0  0.56968  0.96509  0.09831  1.0000
  H   H74       1.0  0.53478  0.01081  0.04247  1.0000
  H   H75       1.0  0.46042  0.8764999999999998  0.92998  1.0000
  H   H76       1.0  0.60351  0.87456  0.94638  1.0000
  H   H77       1.0  0.96097  0.78051  0.07264  1.0000
  H   H78       1.0  0.91869  0.82763  0.01778  1.0000
  H   H79       1.0  0.7905000000000002  0.92011  0.13922  1.0000
  H   H80       1.0  0.7527000000000001  0.8169  0.08066999999999998  1.0000
  H   H81       1.0  0.47044000000000014  0.58202  0.10989  1.0000
  H   H82       1.0  0.5853400000000001  0.94459  0.38431  1.0000
  H   H83       1.0  0.33269  0.1589  0.31902  1.0000
  H   H84       1.0  0.39957  0.35875  0.53706  1.0000
  C   C1        1.0  0.6865900000000003  0.6290299999999999  0.41471  1.0000
  C   C2        1.0  0.7797400000000002  0.6184899999999999  0.35698999999999986  1.0000
  C   C3        1.0  0.78294  0.53535  0.28174  1.0000
  C   C4        1.0  0.7997100000000003  0.46764  0.29648  1.0000
  C   C5        1.0  0.9506900000000003  0.5536199999999999  0.11836999999999998  1.0000
  C   C6        1.0  0.8483100000000002  0.58958  0.10781  1.0000
  C   C7        1.0  0.75313  0.53246  0.06040999999999999  1.0000
  C   C8        1.0  0.78154  0.45900999999999986  0.9804399999999999  1.0000
  C   C9        1.0  0.70225  0.24922999999999984  0.5459199999999997  1.0000
  C   C10       1.0  0.8150300000000001  0.28799  0.56381  1.0000
  C   C11       1.0  0.8181900000000002  0.3677199999999999  0.5652899999999997  1.0000
  C   C12       1.0  0.8197600000000003  0.35484999999999994  0.48139999999999994  1.0000
  C   C13       1.0  0.6623000000000001  0.19651999999999994  0.74576  1.0000
  C   C14       1.0  0.57244  0.13566999999999996  0.70582  1.0000
  C   C15       1.0  0.4722100000000001  0.15263999999999997  0.76066  1.0000
  C   C16       1.0  0.50032  0.15706000000000006  0.83722  1.0000
  C   C17       1.0  0.73177  0.11082999999999998  0.021759999999999995  1.0000
  C   C18       1.0  0.84567  0.09059  0.03847  1.0000
  C   C19       1.0  0.8558800000000002  0.09242000000000002  0.11785  1.0000
  C   C20       1.0  0.8418500000000001  0.17540999999999998  0.18964999999999996  1.0000
  C   C21       1.0  0.3524300000000001  0.21825  0.1011  1.0000
  C   C22       1.0  0.26269  0.24198  0.16339  1.0000
  C   C23       1.0  0.15047000000000002  0.26206  0.14137  1.0000
  C   C24       1.0  0.15326000000000004  0.34275999999999995  0.14799  1.0000
  C   C25       1.0  0.02048  0.78699  0.37205  1.0000
  C   C26       1.0  0.11294000000000001  0.7384  0.38143  1.0000
  C   C27       1.0  0.11625000000000003  0.74635  0.46423  1.0000
  C   C28       1.0  0.13222  0.82937  0.53225  1.0000
  C   C29       1.0  0.28584  0.56335  0.44578  1.0000
  C   C30       1.0  0.18228  0.51771  0.41048  1.0000
  C   C31       1.0  0.08744000000000002  0.52799  0.46786  1.0000
  C   C32       1.0  0.11535000000000002  0.5215499999999997  0.5410799999999998  1.0000
  C   C33       1.0  0.03466000000000001  0.29631  0.75036  1.0000
  C   C34       1.0  0.14815000000000003  0.2763  0.71247  1.0000
  C   C35       1.0  0.15215  0.19726  0.63235  1.0000
  C   C36       1.0  0.15453000000000003  0.12605  0.6448  1.0000
  C   C37       1.0  0.99625  0.55072  0.80305  1.0000
  C   C38       1.0  0.90631  0.57069  0.86383  1.0000
  C   C39       1.0  0.80537  0.6080099999999998  0.8472799999999998  1.0000
  C   C40       1.0  0.8342700000000002  0.6797700000000001  0.84235  1.0000
  C   C41       1.0  0.06461  0.9111  0.8888999999999998  1.0000
  C   C42       1.0  0.17865  0.9478299999999998  0.9086899999999998  1.0000
  C   C43       1.0  0.189  0.025360000000000073  0.90713  1.0000
  C   C44       1.0  0.17355000000000004  0.013529999999999855  0.8242899999999997  1.0000
  C   C45       1.0  0.6863900000000001  0.88333  0.78186  1.0000
  C   C46       1.0  0.59619  0.92219  0.7589099999999998  1.0000
  C   C47       1.0  0.48360000000000003  0.8802  0.73872  1.0000
  C   C48       1.0  0.48713000000000006  0.8054599999999998  0.6580799999999998  1.0000
  C   C49       1.0  0.3537000000000001  0.5849999999999999  0.21292  1.0000
  C   C50       1.0  0.4465000000000001  0.64328  0.26139  1.0000
  C   C51       1.0  0.45061000000000007  0.7184  0.25405  1.0000
  C   C52       1.0  0.4705  0.7034  0.17171999999999996  1.0000
  C   C53       1.0  0.61872  0.88156  0.43549  1.0000
  C   C54       1.0  0.51567  0.8922499999999999  0.48168  1.0000
  C   C55       1.0  0.42097000000000007  0.93964  0.4720899999999999  1.0000
  C   C56       1.0  0.4492200000000001  0.019099999999999916  0.4783599999999999  1.0000
  C   C57       1.0  0.3679400000000001  0.45417999999999986  0.7037699999999999  1.0000
  C   C58       1.0  0.48134000000000005  0.43594999999999995  0.72343  1.0000
  C   C59       1.0  0.48506  0.43491  0.80195  1.0000
  C   C60       1.0  0.4873000000000001  0.5188999999999998  0.8736799999999998  1.0000
  C   C61       1.0  0.32856  0.25438  0.45103  1.0000
  C   C62       1.0  0.23874  0.29442  0.43025  1.0000
  C   C63       1.0  0.13848  0.23968  0.39212  1.0000
  C   C64       1.0  0.1681  0.16251  0.32034  1.0000
  C   C65       1.0  0.3979100000000001  0.9779799999999998  0.08898  1.0000
  C   C66       1.0  0.51195  0.9611599999999999  0.052279999999999986  1.0000
  C   C67       1.0  0.52164  0.8812999999999999  0.97455  1.0000
  C   C68       1.0  0.5048100000000001  0.8101799999999999  0.98576  1.0000
  C   C69       1.0  0.019760000000000003  0.89837  0.11695  1.0000
  C   C70       1.0  0.92943  0.8365  0.07824  1.0000
  C   C71       1.0  0.81718  0.8587999999999999  0.12083  1.0000
  C   C72       1.0  0.8197000000000002  0.85226  0.19489  1.0000
  O   O1        1.0  0.61062  0.57501  0.39284  1.0000
  O   O2        1.0  0.6842200000000002  0.69216  0.48408999999999996  1.0000
  O   O3        1.0  0.8087700000000001  0.39426999999999995  0.242  1.0000
  O   O4        1.0  0.83922  0.48198999999999986  0.3721599999999999  1.0000
  O   O5        1.0  0.03529000000000001  0.59367  0.15921  1.0000
  O   O6        1.0  0.9476900000000003  0.4758899999999999  0.10802  1.0000
  O   O7        1.0  0.88261  0.4430399999999998  0.9541699999999997  1.0000
  O   O8        1.0  0.70392  0.4104499999999998  0.9403099999999998  1.0000
  O   O9        1.0  0.6877800000000001  0.18441  0.54816  1.0000
  O   O10       1.0  0.62045  0.28115  0.52956  1.0000
  O   O11       1.0  0.82229  0.28344  0.42083  1.0000
  O   O12       1.0  0.8207  0.41575999999999996  0.47117999999999993  1.0000
  O   O13       1.0  0.6449900000000001  0.2695099999999999  0.80864  1.0000
  O   O14       1.0  0.75255  0.19374  0.69708  1.0000
  O   O15       1.0  0.43702  0.1877  0.90048  1.0000
  O   O16       1.0  0.6042300000000002  0.13139999999999985  0.8507199999999999  1.0000
  O   O17       1.0  0.7234400000000002  0.1338999999999999  0.97004  1.0000
  O   O18       1.0  0.6449800000000001  0.10515999999999999  0.05674  1.0000
  O   O19       1.0  0.8268600000000003  0.236  0.18007999999999993  1.0000
  O   O20       1.0  0.8466500000000002  0.18519  0.26031  1.0000
  O   O21       1.0  0.45513000000000003  0.2226  0.12352  1.0000
  O   O22       1.0  0.3286800000000001  0.19046  0.02738  1.0000
  O   O23       1.0  0.22863000000000006  0.3932399999999999  0.19186999999999996  1.0000
  O   O24       1.0  0.08175  0.36111  0.11041999999999998  1.0000
  O   O25       1.0  0.9437900000000002  0.81893  0.42537999999999987  1.0000
  O   O26       1.0  0.0201  0.7945499999999999  0.30999  1.0000
  O   O27       1.0  0.14303000000000002  0.84875  0.60577  1.0000
  O   O28       1.0  0.17454000000000006  0.89049  0.51855  1.0000
  O   O29       1.0  0.37042  0.56253  0.40507  1.0000
  O   O30       1.0  0.28529  0.6310199999999998  0.5238399999999998  1.0000
  O   O31       1.0  0.21605000000000002  0.51176  0.55761  1.0000
  O   O32       1.0  0.03690000000000001  0.52952  0.5888299999999999  1.0000
  O   O33       1.0  0.016850000000000004  0.3635  0.81542  1.0000
  O   O34       1.0  0.9543100000000001  0.24667999999999998  0.71756  1.0000
  O   O35       1.0  0.15658  0.13777000000000003  0.71627  1.0000
  O   O36       1.0  0.15701  0.05422999999999997  0.58397  1.0000
  O   O37       1.0  0.9735300000000001  0.53332  0.72841  1.0000
  O   O38       1.0  0.08695000000000001  0.5049299999999999  0.80716  1.0000
  O   O39       1.0  0.7710100000000001  0.71305  0.81288  1.0000
  O   O40       1.0  0.9381800000000001  0.7190099999999999  0.86836  1.0000
  O   O41       1.0  0.05641  0.83601  0.86571  1.0000
  O   O42       1.0  0.97769  0.9519299999999999  0.8952799999999997  1.0000
  O   O43       1.0  0.15362  0.94362  0.7638199999999998  1.0000
  O   O44       1.0  0.18257000000000004  0.07445000000000002  0.81494  1.0000
  O   O45       1.0  0.78923  0.9009899999999997  0.7774799999999997  1.0000
  O   O46       1.0  0.66213  0.83722  0.80901  1.0000
  O   O47       1.0  0.56479  0.79715  0.60871  1.0000
  O   O48       1.0  0.41434000000000004  0.7498099999999999  0.6380499999999998  1.0000
  O   O49       1.0  0.27787000000000006  0.60577  0.18006  1.0000
  O   O50       1.0  0.35164000000000006  0.51592  0.20667  1.0000
  O   O51       1.0  0.48203  0.7573  0.15276  1.0000
  O   O52       1.0  0.50654  0.62735  0.10927  1.0000
  O   O53       1.0  0.70288  0.84068  0.43483  1.0000
  O   O54       1.0  0.6181400000000001  0.8922499999999999  0.3684299999999999  1.0000
  O   O55       1.0  0.54978  0.04588999999999993  0.48922999999999994  1.0000
  O   O56       1.0  0.37117  0.058039999999999994  0.469  1.0000
  O   O57       1.0  0.3509600000000001  0.45227  0.63702  1.0000
  O   O58       1.0  0.28698  0.47098  0.75291  1.0000
  O   O59       1.0  0.49404000000000003  0.57909  0.86303  1.0000
  O   O60       1.0  0.48434  0.52969  0.94506  1.0000
  O   O61       1.0  0.31035  0.19449999999999995  0.46489  1.0000
  O   O62       1.0  0.4199700000000001  0.30293  0.49563  1.0000
  O   O63       1.0  0.10406  0.09997  0.28542  1.0000
  O   O64       1.0  0.27158  0.14927999999999997  0.28065  1.0000
  O   O65       1.0  0.38976000000000005  0.028549999999999992  0.16470999999999997  1.0000
  O   O66       1.0  0.31077000000000005  0.94443  0.04761  1.0000
  O   O67       1.0  0.4818600000000001  0.82083  0.05569  1.0000
  O   O68       1.0  0.5159600000000001  0.73946  0.9249799999999999  1.0000
  O   O69       1.0  0.12230000000000006  0.87551  0.09828999999999997  1.0000
  O   O70       1.0  0.9962400000000002  0.9720499999999999  0.16359  1.0000
  O   O71       1.0  0.8951500000000002  0.80842  0.20099  1.0000
  O   O72       1.0  0.7480300000000002  0.8895  0.25117  1.0000
