data_image0
_chemical_formula_structural       Zn16H96C180N12O64
_chemical_formula_sum              "Zn16 H96 C180 N12 O64"
_cell_length_a       19.48062
_cell_length_b       25.654710000000005
_cell_length_c       28.5832
_cell_angle_alpha    90.02992000000002
_cell_angle_beta     95.14289999999998
_cell_angle_gamma    89.77354

_symmetry_space_group_name_H-M    'P 1'
_symmetry_Int_Tables_number       1

loop_
  _symmetry_equiv_pos_as_xyz
  'x,y,z'

loop_
  _atom_site_type_symbol
  _atom_site_label
  _atom_site_symmetry_multiplicity
  _atom_site_fract_x
  _atom_site_fract_y
  _atom_site_fract_z
  _atom_site_occupancy
  Zn  Zn1       1.0  0.17529  0.3918  0.44108  1.0000
  Zn  Zn2       1.0  0.29712  0.4502  0.49933000000000005  1.0000
  Zn  Zn3       1.0  0.17498000000000002  0.40296  0.55435  1.0000
  Zn  Zn4       1.0  0.29002000000000006  0.3295500000000001  0.5080100000000001  1.0000
  Zn  Zn5       1.0  0.32505  0.8914100000000003  0.05896000000000001  1.0000
  Zn  Zn6       1.0  0.20289999999999997  0.95142  0.00091  1.0000
  Zn  Zn7       1.0  0.32520000000000004  0.9027600000000002  0.9457100000000003  1.0000
  Zn  Zn8       1.0  0.20940999999999999  0.8311100000000001  0.9917000000000001  1.0000
  Zn  Zn9       1.0  0.8250800000000001  0.60845  0.5586600000000002  1.0000
  Zn  Zn10      1.0  0.70274  0.55029  0.50134  1.0000
  Zn  Zn11      1.0  0.82474  0.59733  0.4454400000000001  1.0000
  Zn  Zn12      1.0  0.7099  0.67037  0.49107  1.0000
  Zn  Zn13      1.0  0.67507  0.11039000000000003  0.93952  1.0000
  Zn  Zn14      1.0  0.7973300000000001  0.05083  0.9987200000000003  1.0000
  Zn  Zn15      1.0  0.67513  0.10025000000000003  0.05268  1.0000
  Zn  Zn16      1.0  0.79069  0.17105  0.0082  1.0000
  H   H1        1.0  0.9677700000000001  0.34673  0.42365  1.0000
  H   H2        1.0  0.8391200000000001  0.34556  0.41171000000000013  1.0000
  H   H3        1.0  0.82842  0.44481000000000004  0.5319600000000001  1.0000
  H   H4        1.0  0.9577300000000001  0.4447000000000001  0.54487  1.0000
  H   H5        1.0  0.63727  0.30645  0.5223900000000002  1.0000
  H   H6        1.0  0.50912  0.3070300000000001  0.5251  1.0000
  H   H7        1.0  0.50001  0.4620200000000001  0.4679  1.0000
  H   H8        1.0  0.62614  0.4596  0.4611800000000001  1.0000
  H   H9        1.0  0.36419000000000007  0.53411  0.6355100000000002  1.0000
  H   H10       1.0  0.36539  0.5718300000000001  0.71546  1.0000
  H   H11       1.0  0.14293000000000003  0.5872800000000001  0.6974800000000002  1.0000
  H   H12       1.0  0.14083  0.5541100000000001  0.61624  1.0000
  H   H13       1.0  0.18896000000000002  0.6597100000000001  0.8166400000000003  1.0000
  H   H14       1.0  0.17647000000000004  0.7318100000000001  0.8747200000000003  1.0000
  H   H15       1.0  0.38024000000000013  0.7852  0.8534800000000002  1.0000
  H   H16       1.0  0.3966  0.7081900000000002  0.80139  1.0000
  H   H17       1.0  0.28587000000000007  0.5837300000000002  0.42376000000000014  1.0000
  H   H18       1.0  0.2886000000000001  0.65706  0.3663300000000001  1.0000
  H   H19       1.0  0.19024  0.5604300000000001  0.25772  1.0000
  H   H20       1.0  0.18553000000000003  0.48685  0.3153800000000001  1.0000
  H   H21       1.0  0.32112  0.72552  0.23533000000000007  1.0000
  H   H22       1.0  0.33963000000000004  0.78526  0.16893  1.0000
  H   H23       1.0  0.18381  0.7053800000000002  0.08023  1.0000
  H   H24       1.0  0.1648  0.6441800000000002  0.1465  1.0000
  H   H25       1.0  0.53275  0.8515400000000002  0.07741000000000003  1.0000
  H   H26       1.0  0.66128  0.8516100000000002  0.08973000000000003  1.0000
  H   H27       1.0  0.67006  0.94555  0.9658800000000002  1.0000
  H   H28       1.0  0.54087  0.9443500000000002  0.9531300000000003  1.0000
  H   H29       1.0  0.8622800000000002  0.8106100000000003  0.9776900000000002  1.0000
  H   H30       1.0  0.99058  0.80947  0.97584  1.0000
  H   H31       1.0  0.0012300000000000002  0.96325  0.03551  1.0000
  H   H32       1.0  0.8750300000000001  0.9625000000000002  0.04146000000000001  1.0000
  H   H33       1.0  0.13604000000000002  0.03279  0.8634900000000001  1.0000
  H   H34       1.0  0.13516  0.0696  0.78308  1.0000
  H   H35       1.0  0.35707  0.08678  0.8021400000000001  1.0000
  H   H36       1.0  0.3589200000000001  0.05378  0.8834500000000002  1.0000
  H   H37       1.0  0.3095  0.15844000000000005  0.68277  1.0000
  H   H38       1.0  0.32219000000000003  0.23016000000000006  0.6245000000000003  1.0000
  H   H39       1.0  0.12052000000000006  0.28747000000000006  0.6477900000000002  1.0000
  H   H40       1.0  0.10363000000000006  0.21088000000000007  0.7001000000000002  1.0000
  H   H41       1.0  0.21852  0.08339000000000003  0.07517000000000003  1.0000
  H   H42       1.0  0.21338  0.15696  0.13229000000000002  1.0000
  H   H43       1.0  0.3107  0.06088000000000001  0.24212000000000006  1.0000
  H   H44       1.0  0.31741  0.987  0.18479000000000007  1.0000
  H   H45       1.0  0.18028  0.22825000000000006  0.26301  1.0000
  H   H46       1.0  0.1623  0.2879  0.32993  1.0000
  H   H47       1.0  0.31602  0.20524  0.41866  1.0000
  H   H48       1.0  0.33473  0.14399  0.3520500000000001  1.0000
  H   H49       1.0  0.03148000000000002  0.65185  0.5754300000000002  1.0000
  H   H50       1.0  0.16004  0.65285  0.5883600000000001  1.0000
  H   H51       1.0  0.17254000000000003  0.5553500000000001  0.4671300000000001  1.0000
  H   H52       1.0  0.04328000000000001  0.5555  0.4533500000000001  1.0000
  H   H53       1.0  0.36243  0.6925400000000002  0.4774400000000001  1.0000
  H   H54       1.0  0.4906  0.69237  0.475  1.0000
  H   H55       1.0  0.50046  0.5381200000000002  0.53381  1.0000
  H   H56       1.0  0.3742500000000001  0.54015  0.5400800000000002  1.0000
  H   H57       1.0  0.63571  0.46652  0.36517  1.0000
  H   H58       1.0  0.63489  0.43007  0.2847700000000001  1.0000
  H   H59       1.0  0.85734  0.41312  0.3035500000000001  1.0000
  H   H60       1.0  0.85878  0.44566  0.3848900000000001  1.0000
  H   H61       1.0  0.81118  0.34445  0.18148  1.0000
  H   H62       1.0  0.8241100000000001  0.27177000000000007  0.12409000000000003  1.0000
  H   H63       1.0  0.62184  0.21662000000000003  0.14709000000000003  1.0000
  H   H64       1.0  0.60477  0.29401000000000005  0.19846000000000005  1.0000
  H   H65       1.0  0.71748  0.41644  0.57549  1.0000
  H   H66       1.0  0.7133  0.3431600000000001  0.63294  1.0000
  H   H67       1.0  0.81054  0.43973000000000007  0.74205  1.0000
  H   H68       1.0  0.8167400000000001  0.5132  0.68437  1.0000
  H   H69       1.0  0.6794  0.27599  0.76416  1.0000
  H   H70       1.0  0.66126  0.21616  0.83068  1.0000
  H   H71       1.0  0.8144500000000001  0.29814  0.9200000000000002  1.0000
  H   H72       1.0  0.83314  0.35933  0.8535000000000003  1.0000
  H   H73       1.0  0.46640000000000004  0.15512000000000004  0.9218400000000002  1.0000
  H   H74       1.0  0.33778  0.15445000000000003  0.9096500000000002  1.0000
  H   H75       1.0  0.32998  0.05615  0.030820000000000004  1.0000
  H   H76       1.0  0.4592  0.058220000000000015  0.04392  1.0000
  H   H77       1.0  0.13754  0.19377  0.021  1.0000
  H   H78       1.0  0.00948  0.19388000000000005  0.024300000000000006  1.0000
  H   H79       1.0  0.0001599999999999886  0.03861  0.96765  1.0000
  H   H80       1.0  0.12608000000000005  0.04062000000000002  0.9599000000000002  1.0000
  H   H81       1.0  0.8626300000000001  0.9729300000000002  0.13686000000000004  1.0000
  H   H82       1.0  0.86422  0.9335300000000002  0.21615000000000006  1.0000
  H   H83       1.0  0.64319  0.91311  0.19594000000000006  1.0000
  H   H84       1.0  0.64089  0.9495800000000002  0.11572000000000003  1.0000
  H   H85       1.0  0.69016  0.8422700000000002  0.31558  1.0000
  H   H86       1.0  0.67557  0.7703600000000003  0.3732300000000001  1.0000
  H   H87       1.0  0.87709  0.71176  0.35113000000000005  1.0000
  H   H88       1.0  0.8957800000000001  0.78833  0.29927  1.0000
  H   H89       1.0  0.78327  0.9160000000000003  0.9244200000000001  1.0000
  H   H90       1.0  0.78813  0.84298  0.8667200000000003  1.0000
  H   H91       1.0  0.68965  0.9398400000000001  0.7579  1.0000
  H   H92       1.0  0.68273  0.013010000000000002  0.81587  1.0000
  H   H93       1.0  0.82146  0.77327  0.73523  1.0000
  H   H94       1.0  0.8385900000000001  0.7134800000000001  0.66855  1.0000
  H   H95       1.0  0.6841300000000001  0.7961400000000001  0.5801800000000003  1.0000
  H   H96       1.0  0.66638  0.85734  0.64687  1.0000
  C   C1        1.0  0.04729000000000002  0.3980200000000001  0.4899100000000001  1.0000
  C   C2        1.0  0.97033  0.39643000000000006  0.4844900000000001  1.0000
  C   C3        1.0  0.9369  0.3680700000000001  0.4471400000000001  1.0000
  C   C4        1.0  0.86531  0.3676400000000001  0.4404400000000001  1.0000
  C   C5        1.0  0.82623  0.3962900000000001  0.4706100000000001  1.0000
  C   C6        1.0  0.85952  0.4234400000000001  0.50868  1.0000
  C   C7        1.0  0.93131  0.42337000000000014  0.5157300000000001  1.0000
  C   C8        1.0  0.7500800000000002  0.3964900000000001  0.46189000000000013  1.0000
  C   C9        1.0  0.64016  0.3828100000000001  0.49120000000000014  1.0000
  C   C10       1.0  0.60651  0.33983  0.5096100000000001  1.0000
  C   C11       1.0  0.53532  0.34029000000000004  0.51136  1.0000
  C   C12       1.0  0.49633000000000005  0.38449000000000005  0.49664000000000014  1.0000
  C   C13       1.0  0.53005  0.4277  0.4790800000000001  1.0000
  C   C14       1.0  0.60065  0.4266100000000001  0.4756200000000001  1.0000
  C   C15       1.0  0.42083000000000004  0.38664  0.49987000000000004  1.0000
  C   C16       1.0  0.24795  0.49909  0.5847400000000003  1.0000
  C   C17       1.0  0.25449  0.55008  0.6144  1.0000
  C   C18       1.0  0.31732  0.54855  0.64918  1.0000
  C   C19       1.0  0.3180700000000001  0.56958  0.69241  1.0000
  C   C20       1.0  0.25456000000000006  0.58896  0.7104100000000002  1.0000
  C   C21       1.0  0.19034000000000004  0.5786500000000001  0.6815100000000001  1.0000
  C   C22       1.0  0.18933000000000008  0.56139  0.6369300000000002  1.0000
  C   C23       1.0  0.30709  0.63124  0.7786400000000002  1.0000
  C   C24       1.0  0.29391000000000006  0.6791600000000002  0.8063400000000002  1.0000
  C   C25       1.0  0.23079000000000002  0.68683  0.8256400000000003  1.0000
  C   C26       1.0  0.22367000000000004  0.72721  0.8574900000000002  1.0000
  C   C27       1.0  0.27792000000000006  0.7624700000000002  0.8677800000000002  1.0000
  C   C28       1.0  0.3393400000000001  0.7569300000000002  0.8459200000000002  1.0000
  C   C29       1.0  0.34803  0.71459  0.8165600000000002  1.0000
  C   C30       1.0  0.27155000000000007  0.80418  0.9035600000000003  1.0000
  C   C31       1.0  0.23226  0.4887300000000001  0.40852  1.0000
  C   C32       1.0  0.23545999999999997  0.5308300000000001  0.37296000000000007  1.0000
  C   C33       1.0  0.26552  0.5786600000000001  0.3874  1.0000
  C   C34       1.0  0.26720000000000005  0.61938  0.3556100000000001  1.0000
  C   C35       1.0  0.23996  0.61297  0.3088  1.0000
  C   C36       1.0  0.21133  0.5648  0.29403  1.0000
  C   C37       1.0  0.20855  0.52401  0.3260800000000001  1.0000
  C   C38       1.0  0.24097000000000002  0.65933  0.27723  1.0000
  C   C39       1.0  0.23936000000000002  0.6815100000000002  0.19616000000000003  1.0000
  C   C40       1.0  0.29148  0.7212800000000003  0.20159  1.0000
  C   C41       1.0  0.30162  0.7543100000000003  0.16482  1.0000
  C   C42       1.0  0.26162  0.7495800000000002  0.12125  1.0000
  C   C43       1.0  0.21306000000000003  0.7089100000000003  0.11429000000000003  1.0000
  C   C44       1.0  0.20252  0.6753400000000003  0.15062000000000006  1.0000
  C   C45       1.0  0.26837  0.7891000000000002  0.08366000000000001  1.0000
  C   C46       1.0  0.45261  0.8996200000000002  0.0097  1.0000
  C   C47       1.0  0.52946  0.89886  0.015180000000000003  1.0000
  C   C48       1.0  0.56331  0.87213  0.05341000000000001  1.0000
  C   C49       1.0  0.63482  0.8724200000000002  0.060260000000000015  1.0000
  C   C50       1.0  0.67347  0.9000600000000001  0.02932  1.0000
  C   C51       1.0  0.63967  0.9252600000000002  0.99014  1.0000
  C   C52       1.0  0.5679100000000001  0.9245800000000002  0.98303  1.0000
  C   C53       1.0  0.74962  0.90047  0.038320000000000014  1.0000
  C   C54       1.0  0.8600200000000001  0.8865500000000001  0.009760000000000003  1.0000
  C   C55       1.0  0.89342  0.8433200000000002  0.9911900000000002  1.0000
  C   C56       1.0  0.96467  0.8428800000000001  0.98985  1.0000
  C   C57       1.0  0.004069999999999999  0.8864200000000001  0.005230000000000002  1.0000
  C   C58       1.0  0.9707600000000001  0.9295900000000002  0.02358  1.0000
  C   C59       1.0  0.9000500000000001  0.9293800000000002  0.02661000000000001  1.0000
  C   C60       1.0  0.07929  0.88811  0.001  1.0000
  C   C61       1.0  0.25202  0.9990800000000001  0.9151100000000002  1.0000
  C   C62       1.0  0.2453  0.04969000000000001  0.88494  1.0000
  C   C63       1.0  0.18277000000000002  0.04741  0.8499600000000003  1.0000
  C   C64       1.0  0.18209000000000006  0.06797  0.8065900000000003  1.0000
  C   C65       1.0  0.24525  0.08811  0.7889700000000001  1.0000
  C   C66       1.0  0.30961000000000005  0.07789000000000001  0.8178800000000003  1.0000
  C   C67       1.0  0.31052  0.060680000000000005  0.8624600000000001  1.0000
  C   C68       1.0  0.19152  0.13250000000000003  0.72215  1.0000
  C   C69       1.0  0.20524000000000003  0.17986000000000002  0.6940900000000002  1.0000
  C   C70       1.0  0.26806  0.18623  0.6741900000000002  1.0000
  C   C71       1.0  0.27547  0.22647  0.6423400000000002  1.0000
  C   C72       1.0  0.22202  0.26282  0.6326300000000001  1.0000
  C   C73       1.0  0.16093  0.25849  0.655  1.0000
  C   C74       1.0  0.15188  0.21634  0.6843900000000003  1.0000
  C   C75       1.0  0.22860000000000003  0.30429000000000006  0.5967500000000002  1.0000
  C   C76       1.0  0.27216  0.9884500000000002  0.09166000000000003  1.0000
  C   C77       1.0  0.26831  0.03087000000000001  0.12673  1.0000
  C   C78       1.0  0.23815000000000003  0.07860000000000003  0.11170000000000001  1.0000
  C   C79       1.0  0.23524000000000003  0.11940000000000003  0.14327000000000006  1.0000
  C   C80       1.0  0.2616  0.11319000000000003  0.19029000000000001  1.0000
  C   C81       1.0  0.29051  0.06513  0.20560000000000006  1.0000
  C   C82       1.0  0.29434  0.02419  0.17381  1.0000
  C   C83       1.0  0.25938  0.15985  0.22136000000000006  1.0000
  C   C84       1.0  0.26086000000000004  0.18261000000000005  0.3024400000000001  1.0000
  C   C85       1.0  0.20939  0.22320000000000007  0.2969100000000001  1.0000
  C   C86       1.0  0.19963000000000006  0.25621000000000005  0.3338200000000001  1.0000
  C   C87       1.0  0.23919  0.2504700000000001  0.37749  1.0000
  C   C88       1.0  0.2871  0.20916000000000007  0.3845  1.0000
  C   C89       1.0  0.29739  0.17566000000000004  0.3480300000000001  1.0000
  C   C90       1.0  0.2323  0.28945  0.41543000000000013  1.0000
  C   C91       1.0  0.9528000000000001  0.60171  0.50856  1.0000
  C   C92       1.0  0.029790000000000028  0.60285  0.5142500000000002  1.0000
  C   C93       1.0  0.06276  0.63072  0.55208  1.0000
  C   C94       1.0  0.13427000000000003  0.6310100000000002  0.5593200000000002  1.0000
  C   C95       1.0  0.17377000000000004  0.6027500000000002  0.5291600000000001  1.0000
  C   C96       1.0  0.14100000000000001  0.5761800000000001  0.4905200000000001  1.0000
  C   C97       1.0  0.06924000000000001  0.57633  0.4829700000000001  1.0000
  C   C98       1.0  0.24983000000000002  0.6027900000000002  0.53828  1.0000
  C   C99       1.0  0.35986  0.61658  0.5092800000000001  1.0000
  C   C100      1.0  0.39343  0.6594500000000001  0.4906300000000001  1.0000
  C   C101      1.0  0.4646700000000001  0.6591600000000002  0.48903000000000013  1.0000
  C   C102      1.0  0.50382  0.6151900000000001  0.50428  1.0000
  C   C103      1.0  0.47018000000000004  0.57218  0.52223  1.0000
  C   C104      1.0  0.39955  0.57311  0.52546  1.0000
  C   C105      1.0  0.57929  0.61281  0.50115  1.0000
  C   C106      1.0  0.7525900000000001  0.50084  0.41615  1.0000
  C   C107      1.0  0.74531  0.45006000000000007  0.3863300000000001  1.0000
  C   C108      1.0  0.68263  0.4521900000000001  0.35145  1.0000
  C   C109      1.0  0.6821100000000001  0.43178  0.30798  1.0000
  C   C110      1.0  0.7457100000000001  0.41260000000000013  0.2899000000000001  1.0000
  C   C111      1.0  0.80977  0.42205  0.31922  1.0000
  C   C112      1.0  0.81047  0.43879000000000007  0.3638900000000001  1.0000
  C   C113      1.0  0.6935100000000001  0.3715700000000001  0.22092000000000003  1.0000
  C   C114      1.0  0.70676  0.32401  0.19273000000000007  1.0000
  C   C115      1.0  0.7696800000000001  0.31689  0.17305000000000006  1.0000
  C   C116      1.0  0.7771100000000001  0.27623  0.14154000000000005  1.0000
  C   C117      1.0  0.72362  0.24021000000000003  0.13182000000000005  1.0000
  C   C118      1.0  0.6623300000000001  0.24537000000000006  0.15395000000000006  1.0000
  C   C119      1.0  0.65322  0.28797000000000006  0.18300000000000005  1.0000
  C   C120      1.0  0.73101  0.19829  0.09633000000000003  1.0000
  C   C121      1.0  0.7709  0.5112800000000001  0.59121  1.0000
  C   C122      1.0  0.76735  0.46919  0.62664  1.0000
  C   C123      1.0  0.7372800000000002  0.42145  0.61197  1.0000
  C   C124      1.0  0.73489  0.3807700000000001  0.64371  1.0000
  C   C125      1.0  0.7615  0.38728  0.69063  1.0000
  C   C126      1.0  0.7901900000000001  0.4353700000000001  0.7056000000000001  1.0000
  C   C127      1.0  0.79369  0.47608  0.6736  1.0000
  C   C128      1.0  0.75971  0.34124  0.72242  1.0000
  C   C129      1.0  0.7602500000000002  0.32056000000000007  0.80364  1.0000
  C   C130      1.0  0.7086100000000001  0.28047  0.7980700000000002  1.0000
  C   C131      1.0  0.6987500000000001  0.24745000000000003  0.8348900000000001  1.0000
  C   C132      1.0  0.7383  0.25265000000000004  0.8786200000000002  1.0000
  C   C133      1.0  0.78575  0.29406000000000004  0.88579  1.0000
  C   C134      1.0  0.79608  0.32766  0.84942  1.0000
  C   C135      1.0  0.73193  0.21285000000000007  0.9160700000000003  1.0000
  C   C136      1.0  0.54722  0.10546000000000001  0.98892  1.0000
  C   C137      1.0  0.47028000000000003  0.10610000000000003  0.98322  1.0000
  C   C138      1.0  0.43618000000000007  0.13354  0.9454300000000002  1.0000
  C   C139      1.0  0.36461000000000005  0.1329  0.9385600000000002  1.0000
  C   C140      1.0  0.3263100000000001  0.1041  0.9689300000000002  1.0000
  C   C141      1.0  0.36031  0.07771000000000002  0.007310000000000001  1.0000
  C   C142      1.0  0.43206  0.07886000000000003  0.014550000000000004  1.0000
  C   C143      1.0  0.25011  0.10347000000000002  0.96026  1.0000
  C   C144      1.0  0.14024  0.11727000000000003  0.99  1.0000
  C   C145      1.0  0.10671000000000001  0.16050000000000003  0.00848  1.0000
  C   C146      1.0  0.0356  0.16040000000000001  0.010570000000000003  1.0000
  C   C147      1.0  0.9966600000000001  0.11627  0.9961700000000001  1.0000
  C   C148      1.0  0.030230000000000038  0.07284  0.9785300000000002  1.0000
  C   C149      1.0  0.10071000000000002  0.07365  0.9746300000000002  1.0000
  C   C150      1.0  0.9212800000000001  0.11457000000000002  0.9996200000000001  1.0000
  C   C151      1.0  0.74812  0.0037400000000000003  0.08395000000000002  1.0000
  C   C152      1.0  0.7544900000000001  0.9532700000000002  0.11411  1.0000
  C   C153      1.0  0.81659  0.9559500000000002  0.1494  1.0000
  C   C154      1.0  0.8175999999999999  0.93411  0.19231  1.0000
  C   C155      1.0  0.7548800000000001  0.91198  0.20902000000000007  1.0000
  C   C156      1.0  0.69048  0.9227900000000001  0.18036  1.0000
  C   C157      1.0  0.68932  0.9418100000000003  0.13637  1.0000
  C   C158      1.0  0.8082200000000002  0.8670700000000002  0.2757900000000001  1.0000
  C   C159      1.0  0.79428  0.82009  0.30454  1.0000
  C   C160      1.0  0.73121  0.8141200000000002  0.32426  1.0000
  C   C161      1.0  0.72285  0.7738500000000003  0.35597  1.0000
  C   C162      1.0  0.77578  0.7370900000000001  0.3660500000000001  1.0000
  C   C163      1.0  0.83718  0.7411500000000002  0.34397  1.0000
  C   C164      1.0  0.8471800000000002  0.7832800000000002  0.3146700000000001  1.0000
  C   C165      1.0  0.76859  0.6957600000000002  0.40212  1.0000
  C   C166      1.0  0.72928  0.011480000000000004  0.90856  1.0000
  C   C167      1.0  0.73292  0.9689700000000002  0.8733900000000002  1.0000
  C   C168      1.0  0.76345  0.9211800000000001  0.88794  1.0000
  C   C169      1.0  0.76622  0.88062  0.8560200000000002  1.0000
  C   C170      1.0  0.73962  0.8871900000000003  0.8090600000000001  1.0000
  C   C171      1.0  0.71027  0.9352900000000002  0.7942900000000002  1.0000
  C   C172      1.0  0.70634  0.9758700000000002  0.8264400000000002  1.0000
  C   C173      1.0  0.74165  0.84102  0.77733  1.0000
  C   C174      1.0  0.7405400000000002  0.81888  0.6962000000000003  1.0000
  C   C175      1.0  0.79188  0.77823  0.7015100000000002  1.0000
  C   C176      1.0  0.8012900000000002  0.7451600000000003  0.66457  1.0000
  C   C177      1.0  0.76154  0.7506600000000001  0.6209300000000002  1.0000
  C   C178      1.0  0.71361  0.7920500000000001  0.6141400000000001  1.0000
  C   C179      1.0  0.7037  0.82564  0.65069  1.0000
  C   C180      1.0  0.76845  0.71108  0.58336  1.0000
  N   N1        1.0  0.71242  0.38209000000000004  0.4940500000000001  1.0000
  N   N2        1.0  0.22156999999999996  0.6493900000000002  0.23011000000000006  1.0000
  N   N3        1.0  0.24900000000000003  0.61521  0.7493300000000003  1.0000
  N   N4        1.0  0.7877200000000001  0.88669  0.006130000000000001  1.0000
  N   N5        1.0  0.27848  0.15026  0.26854  1.0000
  N   N6        1.0  0.25021  0.11522000000000003  0.75047  1.0000
  N   N7        1.0  0.28761  0.61702  0.50615  1.0000
  N   N8        1.0  0.77867  0.3520200000000001  0.76948  1.0000
  N   N9        1.0  0.7514900000000001  0.3871600000000001  0.2505500000000001  1.0000
  N   N10       1.0  0.21247999999999997  0.1177  0.9925500000000002  1.0000
  N   N11       1.0  0.72324  0.8513400000000002  0.7301600000000001  1.0000
  N   N12       1.0  0.7497300000000001  0.8835100000000002  0.24673000000000006  1.0000
  O   O1        1.0  0.23211  0.3929100000000001  0.5017100000000001  1.0000
  O   O2        1.0  0.07725  0.38823000000000013  0.45280000000000004  1.0000
  O   O3        1.0  0.72223  0.40613  0.4165800000000001  1.0000
  O   O4        1.0  0.38951  0.34449000000000013  0.5091200000000001  1.0000
  O   O5        1.0  0.39220000000000005  0.4316300000000001  0.4929800000000001  1.0000
  O   O6        1.0  0.19466000000000003  0.4713500000000001  0.5879400000000002  1.0000
  O   O7        1.0  0.29764  0.48956  0.56008  1.0000
  O   O8        1.0  0.36337  0.6087800000000001  0.78443  1.0000
  O   O9        1.0  0.22581  0.7969800000000002  0.93232  1.0000
  O   O10       1.0  0.19742  0.44768000000000013  0.39734000000000014  1.0000
  O   O11       1.0  0.26407  0.4976600000000001  0.4489500000000001  1.0000
  O   O12       1.0  0.25319  0.70348  0.29389  1.0000
  O   O13       1.0  0.22872  0.7837400000000002  0.04582  1.0000
  O   O14       1.0  0.31221  0.82546  0.09280000000000002  1.0000
  O   O15       1.0  0.07654  0.4090900000000001  0.53049  1.0000
  O   O16       1.0  0.31262  0.8431  0.9028500000000003  1.0000
  O   O17       1.0  0.26806  0.89333  0.9983800000000002  1.0000
  O   O18       1.0  0.42283  0.8882700000000002  0.04645000000000001  1.0000
  O   O19       1.0  0.77749  0.9090800000000001  0.08382000000000003  1.0000
  O   O20       1.0  0.10976000000000001  0.8465  0.98891  1.0000
  O   O21       1.0  0.10864  0.93243  0.009510000000000003  1.0000
  O   O22       1.0  0.30539000000000005  0.9711800000000003  0.9120600000000002  1.0000
  O   O23       1.0  0.20231000000000002  0.9898400000000003  0.9398200000000002  1.0000
  O   O24       1.0  0.13418  0.11184  0.71769  1.0000
  O   O25       1.0  0.27431  0.2967600000000001  0.56798  1.0000
  O   O26       1.0  0.30551999999999996  0.94681  0.104  1.0000
  O   O27       1.0  0.24258000000000002  0.9975100000000002  0.05055000000000001  1.0000
  O   O28       1.0  0.24674000000000001  0.20373000000000005  0.20410000000000003  1.0000
  O   O29       1.0  0.26828  0.2815  0.45451  1.0000
  O   O30       1.0  0.19166000000000002  0.3278500000000001  0.4052400000000001  1.0000
  O   O31       1.0  0.42321  0.9114000000000002  0.96929  1.0000
  O   O32       1.0  0.18748  0.34343000000000007  0.59729  1.0000
  O   O33       1.0  0.7680400000000001  0.60728  0.4981700000000001  1.0000
  O   O34       1.0  0.9228400000000001  0.6116800000000001  0.54566  1.0000
  O   O35       1.0  0.2775  0.59377  0.58372  1.0000
  O   O36       1.0  0.61076  0.6543600000000002  0.4907300000000001  1.0000
  O   O37       1.0  0.60796  0.56797  0.50923  1.0000
  O   O38       1.0  0.80537  0.52879  0.412  1.0000
  O   O39       1.0  0.7041  0.5100800000000001  0.4418200000000001  1.0000
  O   O40       1.0  0.63713  0.3939500000000001  0.21544000000000005  1.0000
  O   O41       1.0  0.77702  0.20567000000000005  0.06775  1.0000
  O   O42       1.0  0.80587  0.55226  0.6024700000000001  1.0000
  O   O43       1.0  0.73919  0.50251  0.55077  1.0000
  O   O44       1.0  0.74693  0.29700000000000004  0.7061400000000002  1.0000
  O   O45       1.0  0.7687300000000001  0.21931000000000006  0.95495  1.0000
  O   O46       1.0  0.6910000000000001  0.17495  0.90531  1.0000
  O   O47       1.0  0.92365  0.59101  0.4678  1.0000
  O   O48       1.0  0.69067  0.15896000000000005  0.09698000000000001  1.0000
  O   O49       1.0  0.73232  0.10903  0.9999400000000002  1.0000
  O   O50       1.0  0.57703  0.11430000000000003  0.9516300000000002  1.0000
  O   O51       1.0  0.22219000000000003  0.09393000000000003  0.9149000000000003  1.0000
  O   O52       1.0  0.89027  0.15682000000000004  0.009230000000000004  1.0000
  O   O53       1.0  0.89225  0.06994000000000002  0.9926000000000003  1.0000
  O   O54       1.0  0.69427  0.0314  0.08587  1.0000
  O   O55       1.0  0.79857  0.013080000000000003  0.060030000000000014  1.0000
  O   O56       1.0  0.8650199999999999  0.88836  0.28022  1.0000
  O   O57       1.0  0.72228  0.70329  0.4304600000000001  1.0000
  O   O58       1.0  0.69447  0.05257000000000001  0.8965000000000002  1.0000
  O   O59       1.0  0.7607400000000001  0.0029200000000000007  0.9492300000000002  1.0000
  O   O60       1.0  0.75338  0.7967  0.7939100000000001  1.0000
  O   O61       1.0  0.73293  0.71866  0.5440300000000001  1.0000
  O   O62       1.0  0.80861  0.67253  0.5943800000000001  1.0000
  O   O63       1.0  0.57646  0.09607000000000003  0.02997  1.0000
  O   O64       1.0  0.80985  0.6566800000000003  0.40229  1.0000
