data_image0
_chemical_formula_structural       Mn4Cr4Fe4H88C104N16Cl8O56
_chemical_formula_sum              "Mn4 Cr4 Fe4 H88 C104 N16 Cl8 O56"
_cell_length_a       13.34829
_cell_length_b       15.78827
_cell_length_c       16.54921
_cell_angle_alpha    89.9559
_cell_angle_beta     89.96214
_cell_angle_gamma    89.63082000000001

_symmetry_space_group_name_H-M    'P 1'
_symmetry_Int_Tables_number       1

loop_
  _symmetry_equiv_pos_as_xyz
  'x,y,z'

loop_
  _atom_site_type_symbol
  _atom_site_label
  _atom_site_symmetry_multiplicity
  _atom_site_fract_x
  _atom_site_fract_y
  _atom_site_fract_z
  _atom_site_occupancy
  Mn  Mn1       1.0  0.8255599999999997  0.86078  0.85477  1.0000
  Mn  Mn2       1.0  0.67447  0.13921  0.35484  1.0000
  Mn  Mn3       1.0  0.17359999999999995  0.36062  0.64528  1.0000
  Mn  Mn4       1.0  0.3261999999999999  0.63961  0.14462  1.0000
  Cr  Cr1       1.0  0.11436  0.6168800000000002  0.86445  1.0000
  Cr  Cr2       1.0  0.38559  0.38366  0.3643500000000001  1.0000
  Cr  Cr3       1.0  0.8866799999999998  0.11707  0.63587  1.0000
  Cr  Cr4       1.0  0.61351  0.8830300000000002  0.13597  1.0000
  Fe  Fe1       1.0  0.09614  0.75442  0.5302800000000002  1.0000
  Fe  Fe2       1.0  0.40525  0.24482  0.03145  1.0000
  Fe  Fe3       1.0  0.9065099999999999  0.25293  0.9697600000000001  1.0000
  Fe  Fe4       1.0  0.5936599999999997  0.74707  0.46967  1.0000
  H   H1        1.0  0.01651  0.74985  0.26546  1.0000
  H   H2        1.0  0.94586  0.8682300000000002  0.18219000000000005  1.0000
  H   H3        1.0  0.9778599999999998  0.03853  0.38306  1.0000
  H   H4        1.0  0.0455  0.99591  0.5035400000000002  1.0000
  H   H5        1.0  0.07279  0.9686900000000003  0.6341600000000001  1.0000
  H   H6        1.0  0.19695999999999994  0.93344  0.6177  1.0000
  H   H7        1.0  0.026159999999999996  0.8297200000000002  0.69033  1.0000
  H   H8        1.0  0.13662  0.8631600000000003  0.74144  1.0000
  H   H9        1.0  0.29075  0.70223  0.6742  1.0000
  H   H10       1.0  0.29283999999999993  0.80971  0.70292  1.0000
  H   H11       1.0  0.30531  0.85637  0.56091  1.0000
  H   H12       1.0  0.39341  0.7737500000000003  0.5746100000000002  1.0000
  H   H13       1.0  0.29839999999999994  0.6265700000000002  0.5655200000000002  1.0000
  H   H14       1.0  0.3511099999999999  0.64046  0.4674  1.0000
  H   H15       1.0  0.18152  0.62993  0.40661  1.0000
  H   H16       1.0  0.20226  0.53869  0.46762  1.0000
  H   H17       1.0  0.05567  0.50963  0.5177400000000002  1.0000
  H   H18       1.0  0.91322  0.4555300000000001  0.58314  1.0000
  H   H19       1.0  0.70871  0.61799  0.71234  1.0000
  H   H20       1.0  0.8121  0.7436800000000002  0.67573  1.0000
  H   H21       1.0  0.13143  0.7139400000000002  0.68454  1.0000
  H   H22       1.0  0.2731199999999999  0.77079  0.45555  1.0000
  H   H23       1.0  0.48283  0.24948  0.76699  1.0000
  H   H24       1.0  0.5538799999999999  0.1317  0.68323  1.0000
  H   H25       1.0  0.5234699999999999  0.96026  0.8837400000000002  1.0000
  H   H26       1.0  0.45445999999999986  0.003030000000000001  0.00554  1.0000
  H   H27       1.0  0.4259  0.03079000000000001  0.13605  1.0000
  H   H28       1.0  0.30238  0.06735  0.11859  1.0000
  H   H29       1.0  0.47410999999999986  0.16965  0.19133  1.0000
  H   H30       1.0  0.36298  0.13737000000000005  0.24250000000000002  1.0000
  H   H31       1.0  0.21198999999999996  0.30048000000000014  0.17471  1.0000
  H   H32       1.0  0.20773999999999995  0.19349  0.20502  1.0000
  H   H33       1.0  0.19437  0.14485  0.0639  1.0000
  H   H34       1.0  0.10716999999999997  0.22824000000000005  0.07665  1.0000
  H   H35       1.0  0.20219999999999996  0.3746  0.06462  1.0000
  H   H36       1.0  0.15042  0.3593800000000001  0.9665  1.0000
  H   H37       1.0  0.32037  0.36793  0.9064  1.0000
  H   H38       1.0  0.30033  0.4604100000000001  0.9657  1.0000
  H   H39       1.0  0.44499  0.4896800000000001  0.01751  1.0000
  H   H40       1.0  0.58674  0.5445300000000002  0.08406  1.0000
  H   H41       1.0  0.79227  0.38254  0.21260000000000007  1.0000
  H   H42       1.0  0.68973  0.25652000000000014  0.17591  1.0000
  H   H43       1.0  0.3707299999999999  0.2863600000000001  0.18512  1.0000
  H   H44       1.0  0.22758999999999993  0.22858000000000006  0.9571  1.0000
  H   H45       1.0  0.9851299999999997  0.25818000000000013  0.23347  1.0000
  H   H46       1.0  0.05592999999999999  0.37513  0.31731  1.0000
  H   H47       1.0  0.02441  0.5468700000000002  0.11712  1.0000
  H   H48       1.0  0.95384  0.50699  0.99642  1.0000
  H   H49       1.0  0.91679  0.47952  0.86521  1.0000
  H   H50       1.0  0.79652  0.43839  0.8847500000000003  1.0000
  H   H51       1.0  0.9732099999999998  0.3405600000000001  0.8112400000000002  1.0000
  H   H52       1.0  0.86235  0.37269  0.7595400000000002  1.0000
  H   H53       1.0  0.71494  0.20653  0.8212800000000002  1.0000
  H   H54       1.0  0.7054099999999999  0.3157200000000001  0.7997200000000001  1.0000
  H   H55       1.0  0.697  0.3515300000000001  0.94466  1.0000
  H   H56       1.0  0.6098999999999998  0.27003  0.92686  1.0000
  H   H57       1.0  0.71304  0.12000000000000002  0.92775  1.0000
  H   H58       1.0  0.6513499999999998  0.13218000000000005  0.02294  1.0000
  H   H59       1.0  0.8147199999999998  0.11855  0.09323  1.0000
  H   H60       1.0  0.7979199999999997  0.028370000000000006  0.031080000000000003  1.0000
  H   H61       1.0  0.95056  0.9969800000000002  0.9808599999999998  1.0000
  H   H62       1.0  0.09481999999999999  0.94698  0.91786  1.0000
  H   H63       1.0  0.2923  0.11029000000000003  0.78493  1.0000
  H   H64       1.0  0.18589999999999998  0.23497  0.82202  1.0000
  H   H65       1.0  0.87337  0.22313000000000005  0.81187  1.0000
  H   H66       1.0  0.7312799999999998  0.25975  0.043720000000000016  1.0000
  H   H67       1.0  0.5155399999999999  0.7416900000000002  0.7333400000000001  1.0000
  H   H68       1.0  0.44406999999999996  0.62481  0.81734  1.0000
  H   H69       1.0  0.4747599999999999  0.4533  0.61709  1.0000
  H   H70       1.0  0.54587  0.4931200000000001  0.49639  1.0000
  H   H71       1.0  0.5830999999999998  0.52071  0.3652400000000001  1.0000
  H   H72       1.0  0.70348  0.56168  0.38453  1.0000
  H   H73       1.0  0.52686  0.65969  0.31117  1.0000
  H   H74       1.0  0.6377799999999999  0.62765  0.25945  1.0000
  H   H75       1.0  0.78516  0.79358  0.32073  1.0000
  H   H76       1.0  0.7945999999999998  0.68437  0.29945  1.0000
  H   H77       1.0  0.8031699999999998  0.6486100000000002  0.44432  1.0000
  H   H78       1.0  0.8902499999999998  0.73012  0.42622  1.0000
  H   H79       1.0  0.7869999999999998  0.88016  0.42724  1.0000
  H   H80       1.0  0.8487799999999998  0.8680300000000002  0.5223200000000001  1.0000
  H   H81       1.0  0.6852899999999998  0.8811500000000002  0.59282  1.0000
  H   H82       1.0  0.70209  0.97161  0.53082  1.0000
  H   H83       1.0  0.5492799999999999  0.00296  0.48039  1.0000
  H   H84       1.0  0.40506  0.05284  0.41684  1.0000
  H   H85       1.0  0.20767  0.8889600000000002  0.28493000000000007  1.0000
  H   H86       1.0  0.31469999999999987  0.7645300000000003  0.3218900000000001  1.0000
  H   H87       1.0  0.6267499999999998  0.77708  0.31163  1.0000
  H   H88       1.0  0.76915  0.7403100000000002  0.5434  1.0000
  C   C1        1.0  0.01511  0.76952  0.85532  1.0000
  C   C2        1.0  0.9335099999999997  0.7013100000000002  0.84837  1.0000
  C   C3        1.0  0.76809  0.87153  0.0259  1.0000
  C   C4        1.0  0.6707299999999999  0.86826  0.9762700000000001  1.0000
  C   C5        1.0  0.8531199999999998  0.9604900000000002  0.70717  1.0000
  C   C6        1.0  0.84012  0.02619000000000001  0.77512  1.0000
  C   C7        1.0  0.4847499999999999  0.23069000000000006  0.35534  1.0000
  C   C8        1.0  0.56641  0.29883  0.34834  1.0000
  C   C9        1.0  0.73223  0.12845  0.52583  1.0000
  C   C10       1.0  0.82963  0.13174  0.47614  1.0000
  C   C11       1.0  0.64691  0.039640000000000016  0.20707  1.0000
  C   C12       1.0  0.6599999999999998  0.97387  0.27505  1.0000
  C   C13       1.0  0.9846699999999998  0.2696800000000001  0.64476  1.0000
  C   C14       1.0  0.06685  0.20120000000000005  0.65171  1.0000
  C   C15       1.0  0.23067999999999994  0.37245  0.4742300000000001  1.0000
  C   C16       1.0  0.32821  0.36865  0.52387  1.0000
  C   C17       1.0  0.14642999999999995  0.4602600000000001  0.79313  1.0000
  C   C18       1.0  0.15816  0.52587  0.7249600000000002  1.0000
  C   C19       1.0  0.51546  0.73045  0.14431  1.0000
  C   C20       1.0  0.43318  0.79901  0.15024  1.0000
  C   C21       1.0  0.26879  0.62758  0.97431  1.0000
  C   C22       1.0  0.17131  0.6314900000000002  0.02401  1.0000
  C   C23       1.0  0.35349  0.54025  0.29198  1.0000
  C   C24       1.0  0.34192999999999996  0.4742  0.22445  1.0000
  C   C25       1.0  0.03636  0.8253400000000002  0.37243  1.0000
  C   C26       1.0  0.007439999999999996  0.8130400000000002  0.29066  1.0000
  C   C27       1.0  0.96915  0.8788900000000002  0.24435000000000004  1.0000
  C   C28       1.0  0.9591499999999997  0.9604200000000003  0.27817  1.0000
  C   C29       1.0  0.98615  0.9754600000000002  0.3573700000000001  1.0000
  C   C30       1.0  0.02517  0.90873  0.40563  1.0000
  C   C31       1.0  0.05451  0.9293  0.48618  1.0000
  C   C32       1.0  0.11858999999999999  0.91265  0.6201900000000002  1.0000
  C   C33       1.0  0.10587  0.8436000000000002  0.68295  1.0000
  C   C34       1.0  0.26644  0.7659100000000002  0.65612  1.0000
  C   C35       1.0  0.31286  0.7886100000000003  0.57428  1.0000
  C   C36       1.0  0.28414  0.6512  0.50464  1.0000
  C   C37       1.0  0.19334999999999994  0.6077  0.46881  1.0000
  C   C38       1.0  0.039859999999999986  0.5750000000000004  0.53606  1.0000
  C   C39       1.0  0.94959  0.58928  0.58106  1.0000
  C   C40       1.0  0.8897199999999998  0.5187600000000002  0.6014  1.0000
  C   C41       1.0  0.80282  0.5300800000000002  0.6461600000000002  1.0000
  C   C42       1.0  0.7750199999999998  0.61069  0.67472  1.0000
  C   C43       1.0  0.83197  0.68073  0.6540000000000002  1.0000
  C   C44       1.0  0.91838  0.67264  0.60458  1.0000
  C   C45       1.0  0.4638699999999999  0.17319  0.87392  1.0000
  C   C46       1.0  0.49221  0.18617  0.79204  1.0000
  C   C47       1.0  0.53079  0.12072  0.7454600000000002  1.0000
  C   C48       1.0  0.54148  0.0391  0.77914  1.0000
  C   C49       1.0  0.51472  0.02346  0.85839  1.0000
  C   C50       1.0  0.47551  0.08980000000000002  0.90701  1.0000
  C   C51       1.0  0.44602999999999987  0.06955  0.98772  1.0000
  C   C52       1.0  0.38105999999999995  0.08724  0.12146  1.0000
  C   C53       1.0  0.39424  0.1564  0.18397  1.0000
  C   C54       1.0  0.23477999999999993  0.23619  0.15743  1.0000
  C   C55       1.0  0.18757  0.21285  0.07617  1.0000
  C   C56       1.0  0.21697  0.3489000000000001  0.00426  1.0000
  C   C57       1.0  0.30839  0.3913500000000001  0.9681600000000001  1.0000
  C   C58       1.0  0.4610599999999999  0.42446  0.0362  1.0000
  C   C59       1.0  0.55107  0.41055000000000014  0.08169  1.0000
  C   C60       1.0  0.6104399999999999  0.4812800000000001  0.10217000000000002  1.0000
  C   C61       1.0  0.69749  0.4701800000000001  0.14672  1.0000
  C   C62       1.0  0.72586  0.38966  0.17516  1.0000
  C   C63       1.0  0.66938  0.31945  0.15442  1.0000
  C   C64       1.0  0.58294  0.32728  0.10509000000000003  1.0000
  C   C65       1.0  0.9656099999999997  0.33495  0.12674  1.0000
  C   C66       1.0  0.9941499999999998  0.3213900000000001  0.20831  1.0000
  C   C67       1.0  0.03279  0.38643  0.25514  1.0000
  C   C68       1.0  0.043129999999999995  0.46774  0.22157  1.0000
  C   C69       1.0  0.01588  0.48367  0.14226  1.0000
  C   C70       1.0  0.97646  0.41823  0.09368000000000003  1.0000
  C   C71       1.0  0.94516  0.4401400000000001  0.01302  1.0000
  C   C72       1.0  0.8765199999999999  0.42148  0.88138  1.0000
  C   C73       1.0  0.89277  0.3527800000000001  0.8181400000000002  1.0000
  C   C74       1.0  0.7355399999999997  0.26955  0.84323  1.0000
  C   C75       1.0  0.6901499999999998  0.28496  0.9268  1.0000
  C   C76       1.0  0.72137  0.14299  0.98981  1.0000
  C   C77       1.0  0.8088099999999999  0.09699  0.030280000000000005  1.0000
  C   C78       1.0  0.9647999999999998  0.06354  0.96582  1.0000
  C   C79       1.0  0.05474  0.08013000000000003  0.92003  1.0000
  C   C80       1.0  0.11617  0.01034  0.89898  1.0000
  C   C81       1.0  0.20188999999999993  0.02193  0.85281  1.0000
  C   C82       1.0  0.22684999999999994  0.10245000000000003  0.82335  1.0000
  C   C83       1.0  0.16795999999999994  0.172  0.84431  1.0000
  C   C84       1.0  0.08285999999999998  0.16356000000000007  0.8949100000000002  1.0000
  C   C85       1.0  0.5346  0.66501  0.6266700000000002  1.0000
  C   C86       1.0  0.50614  0.67855  0.7082600000000002  1.0000
  C   C87       1.0  0.46716999999999986  0.61358  0.7551400000000003  1.0000
  C   C88       1.0  0.45632999999999996  0.53237  0.72156  1.0000
  C   C89       1.0  0.4836099999999999  0.5164200000000002  0.64226  1.0000
  C   C90       1.0  0.5234299999999998  0.5818  0.59366  1.0000
  C   C91       1.0  0.55473  0.5599300000000003  0.51298  1.0000
  C   C92       1.0  0.6234999999999998  0.5786800000000002  0.38129  1.0000
  C   C93       1.0  0.60728  0.6474600000000003  0.31805  1.0000
  C   C94       1.0  0.7645199999999998  0.7306  0.34288  1.0000
  C   C95       1.0  0.8100099999999998  0.7151900000000002  0.42638  1.0000
  C   C96       1.0  0.7787299999999998  0.85713  0.48934000000000005  1.0000
  C   C97       1.0  0.6911999999999998  0.90299  0.5299  1.0000
  C   C98       1.0  0.53519  0.9364  0.46539  1.0000
  C   C99       1.0  0.4454299999999999  0.9197  0.41948  1.0000
  C   C100      1.0  0.38385  0.9893700000000002  0.39828000000000013  1.0000
  C   C101      1.0  0.29804  0.9775300000000002  0.35237  1.0000
  C   C102      1.0  0.27327  0.89697  0.3230800000000001  1.0000
  C   C103      1.0  0.33246  0.82758  0.34400000000000003  1.0000
  C   C104      1.0  0.41744  0.8362200000000002  0.39460000000000006  1.0000
  N   N1        1.0  0.09052999999999999  0.87711  0.54058  1.0000
  N   N2        1.0  0.15537  0.7656400000000002  0.6524600000000003  1.0000
  N   N3        1.0  0.25937999999999994  0.7426200000000002  0.51025  1.0000
  N   N4        1.0  0.10507  0.63283  0.51644  1.0000
  N   N5        1.0  0.41035999999999995  0.12221  0.04188  1.0000
  N   N6        1.0  0.34593  0.23486000000000007  0.15323  1.0000
  N   N7        1.0  0.24119  0.2575300000000001  0.011360000000000002  1.0000
  N   N8        1.0  0.3961899999999999  0.36647  0.01647  1.0000
  N   N9        1.0  0.9079499999999999  0.3878800000000001  0.9603  1.0000
  N   N10       1.0  0.84672  0.2726  0.84591  1.0000
  N   N11       1.0  0.7454799999999998  0.23451  0.9876800000000001  1.0000
  N   N12       1.0  0.9004199999999998  0.12097000000000002  0.9879  1.0000
  N   N13       1.0  0.5921799999999999  0.61216  0.46027  1.0000
  N   N14       1.0  0.65335  0.7276000000000002  0.34573  1.0000
  N   N15       1.0  0.7548099999999998  0.76557  0.48737  1.0000
  N   N16       1.0  0.59962  0.8790500000000002  0.48755  1.0000
  Cl  Cl1       1.0  0.9143799999999997  0.043560000000000015  0.21837  1.0000
  Cl  Cl2       1.0  0.72578  0.44348  0.66668  1.0000
  Cl  Cl3       1.0  0.58684  0.95668  0.71874  1.0000
  Cl  Cl4       1.0  0.7742499999999998  0.55698  0.16673  1.0000
  Cl  Cl5       1.0  0.08811999999999999  0.5500800000000002  0.28179  1.0000
  Cl  Cl6       1.0  0.2804  0.93561  0.8319  1.0000
  Cl  Cl7       1.0  0.4106  0.4502  0.78175  1.0000
  Cl  Cl8       1.0  0.21908999999999995  0.06361000000000003  0.33155  1.0000
  O   O1        1.0  0.10589999999999997  0.7418600000000002  0.85717  1.0000
  O   O2        1.0  0.9662299999999998  0.62457  0.8452300000000003  1.0000
  O   O3        1.0  0.98935  0.84598  0.85689  1.0000
  O   O4        1.0  0.8434799999999998  0.72454  0.84525  1.0000
  O   O5        1.0  0.8497099999999997  0.8704600000000002  0.98832  1.0000
  O   O6        1.0  0.75731  0.8785700000000002  0.10283  1.0000
  O   O7        1.0  0.6761199999999999  0.85828  0.90106  1.0000
  O   O8        1.0  0.5895099999999999  0.87885  0.01678  1.0000
  O   O9        1.0  0.83843  0.88369  0.72287  1.0000
  O   O10       1.0  0.8795299999999998  0.99077  0.63835  1.0000
  O   O11       1.0  0.8184999999999998  0.0006200000000000001  0.84465  1.0000
  O   O12       1.0  0.8535899999999998  0.10391  0.7537800000000002  1.0000
  O   O13       1.0  0.3939899999999999  0.25842  0.35721  1.0000
  O   O14       1.0  0.53381  0.3756  0.34522  1.0000
  O   O15       1.0  0.51047  0.15418000000000007  0.35696  1.0000
  O   O16       1.0  0.6564399999999998  0.27550000000000013  0.34523  1.0000
  O   O17       1.0  0.65062  0.12945  0.48829  1.0000
  O   O18       1.0  0.74288  0.12152  0.60277  1.0000
  O   O19       1.0  0.8241199999999997  0.14169000000000007  0.40093  1.0000
  O   O20       1.0  0.9108899999999998  0.12122  0.51659  1.0000
  O   O21       1.0  0.6615199999999998  0.11642000000000002  0.22282  1.0000
  O   O22       1.0  0.6205199999999997  0.009430000000000003  0.13829000000000005  1.0000
  O   O23       1.0  0.6815599999999998  0.9993800000000002  0.34454  1.0000
  O   O24       1.0  0.64648  0.89616  0.25381  1.0000
  O   O25       1.0  0.8941899999999998  0.24211000000000005  0.64286  1.0000
  O   O26       1.0  0.03492  0.12453  0.65479  1.0000
  O   O27       1.0  0.009969999999999996  0.34598  0.64312  1.0000
  O   O28       1.0  0.15662  0.22427  0.65485  1.0000
  O   O29       1.0  0.14876  0.37117  0.51138  1.0000
  O   O30       1.0  0.24214  0.37922  0.3972700000000001  1.0000
  O   O31       1.0  0.32332999999999995  0.35824  0.59905  1.0000
  O   O32       1.0  0.40937999999999997  0.3788  0.48333  1.0000
  O   O33       1.0  0.16118  0.38337  0.77728  1.0000
  O   O34       1.0  0.12107  0.49066  0.86221  1.0000
  O   O35       1.0  0.17708999999999994  0.5002  0.655  1.0000
  O   O36       1.0  0.14644  0.6038500000000001  0.7464700000000002  1.0000
  O   O37       1.0  0.60598  0.75796  0.14293  1.0000
  O   O38       1.0  0.46519  0.87559  0.15458  1.0000
  O   O39       1.0  0.49014  0.65414  0.14302  1.0000
  O   O40       1.0  0.34327999999999986  0.77615  0.15153  1.0000
  O   O41       1.0  0.35061999999999993  0.62868  0.01146  1.0000
  O   O42       1.0  0.25764  0.6209600000000002  0.8973500000000002  1.0000
  O   O43       1.0  0.17630999999999994  0.6418  0.09916  1.0000
  O   O44       1.0  0.0902  0.62152  0.9834800000000001  1.0000
  O   O45       1.0  0.33867  0.6169300000000002  0.27485  1.0000
  O   O46       1.0  0.37886  0.51079  0.3614  1.0000
  O   O47       1.0  0.3229399999999999  0.4996  0.15445  1.0000
  O   O48       1.0  0.35379  0.39635  0.24645000000000003  1.0000
  O   O49       1.0  0.071  0.76032  0.41337  1.0000
  O   O50       1.0  0.96407  0.74128  0.5791300000000001  1.0000
  O   O51       1.0  0.42909999999999987  0.23789  0.9152  1.0000
  O   O52       1.0  0.53793  0.2585  0.0794  1.0000
  O   O53       1.0  0.9311599999999998  0.271  0.08419  1.0000
  O   O54       1.0  0.03553  0.23245000000000005  0.91955  1.0000
  O   O55       1.0  0.56938  0.72894  0.5841200000000002  1.0000
  O   O56       1.0  0.4645499999999999  0.7674  0.4197  1.0000
