data_image0
_chemical_formula_structural       Cu8H104C144O40
_chemical_formula_sum              "Cu8 H104 C144 O40"
_cell_length_a       21.78019
_cell_length_b       21.77915
_cell_length_c       32.52142
_cell_angle_alpha    109.49668
_cell_angle_beta     109.49724999999998
_cell_angle_gamma    90.04181

_space_group_name_H-M_alt    "P 1"
_space_group_IT_number       1

loop_
  _space_group_symop_operation_xyz
  'x, y, z'

loop_
  _atom_site_type_symbol
  _atom_site_label
  _atom_site_symmetry_multiplicity
  _atom_site_fract_x
  _atom_site_fract_y
  _atom_site_fract_z
  _atom_site_occupancy
  Cu  Cu1       1.0  0.3588500000000001  0.84601  0.78324  1.0000
  Cu  Cu2       1.0  0.4242  0.9369  0.78325  1.0000
  Cu  Cu3       1.0  0.59654  0.67438  0.28333  1.0000
  Cu  Cu4       1.0  0.68702  0.60865  0.28325  1.0000
  Cu  Cu5       1.0  0.39136  0.31298  0.71675  1.0000
  Cu  Cu6       1.0  0.32563000000000003  0.40347  0.71668  1.0000
  Cu  Cu7       1.0  0.15401000000000004  0.64116  0.21675999999999995  1.0000
  Cu  Cu8       1.0  0.06312999999999998  0.57581  0.21675999999999995  1.0000
  H   H1        1.0  0.30228  0.07573000000000003  0.95743  1.0000
  H   H2        1.0  0.26072  0.34772  0.96503  1.0000
  H   H3        1.0  0.2815800000000001  0.36996999999999997  0.90134  1.0000
  H   H4        1.0  0.33093000000000006  0.17446999999999996  0.85165  1.0000
  H   H5        1.0  0.36836  0.10073  0.87265  1.0000
  H   H6        1.0  0.2928899999999999  0.99603  0.8877899999999997  1.0000
  H   H7        1.0  0.3440899999999999  0.2458199999999999  0.8142499999999998  1.0000
  H   H8        1.0  0.28355000000000014  0.37539999999999996  0.83557  1.0000
  H   H9        1.0  0.21879999999999988  0.06551999999999993  0.9854799999999998  1.0000
  H   H10       1.0  0.30099  0.07754  0.02492  1.0000
  H   H11       1.0  0.21926  0.14845999999999998  0.07601999999999998  1.0000
  H   H12       1.0  0.26387  0.08369  0.08603  1.0000
  H   H13       1.0  0.182  0.06599  0.0457  1.0000
  H   H14       1.0  0.6545099999999999  0.88128  0.9571599999999998  1.0000
  H   H15       1.0  0.7042200000000001  0.61664  0.96436  1.0000
  H   H16       1.0  0.61949  0.53115  0.90102  1.0000
  H   H17       1.0  0.5206099999999999  0.6772999999999998  0.8514999999999998  1.0000
  H   H18       1.0  0.50429  0.7718199999999998  0.87219  1.0000
  H   H19       1.0  0.5954200000000002  0.89116  0.88715  1.0000
  H   H20       1.0  0.4698699999999999  0.5689999999999998  0.8142399999999997  1.0000
  H   H21       1.0  0.5515  0.46038999999999997  0.83541  1.0000
  H   H22       1.0  0.76595  0.91952  0.98491  1.0000
  H   H23       1.0  0.72302  0.9467699999999999  0.0243  1.0000
  H   H24       1.0  0.85537  0.9262699999999999  0.07527  1.0000
  H   H25       1.0  0.82113  0.0012799999999999893  0.08552999999999997  1.0000
  H   H26       1.0  0.8628500000000001  0.97872  0.04519999999999998  1.0000
  H   H27       1.0  0.8256  0.9046499999999998  0.45723  1.0000
  H   H28       1.0  0.09764999999999997  0.95433  0.4647599999999999  1.0000
  H   H29       1.0  0.11987999999999999  0.8696599999999999  0.40123  1.0000
  H   H30       1.0  0.9242500000000001  0.77085  0.35164999999999996  1.0000
  H   H31       1.0  0.8508500000000001  0.75406  0.37272  1.0000
  H   H32       1.0  0.7462700000000001  0.84473  0.38751  1.0000
  H   H33       1.0  0.99519  0.72015  0.31447  1.0000
  H   H34       1.0  0.12502  0.80145  0.33537  1.0000
  H   H35       1.0  0.8153200000000002  0.01637999999999994  0.48515999999999987  1.0000
  H   H36       1.0  0.82693  0.97346  0.52456  1.0000
  H   H37       1.0  0.8986100000000001  0.10590999999999998  0.5754599999999999  1.0000
  H   H38       1.0  0.83396  0.07161000000000003  0.58584  1.0000
  H   H39       1.0  0.81614  0.11319  0.54544  1.0000
  H   H40       1.0  0.63145  0.55271  0.45723  1.0000
  H   H41       1.0  0.3669  0.51033  0.46471999999999997  1.0000
  H   H42       1.0  0.28136  0.53151  0.40117  1.0000
  H   H43       1.0  0.42752  0.58101  0.3515999999999999  1.0000
  H   H44       1.0  0.52201  0.61822  0.37237  1.0000
  H   H45       1.0  0.64136  0.54231  0.38766999999999996  1.0000
  H   H46       1.0  0.3194999999999999  0.59453  0.3143899999999999  1.0000
  H   H47       1.0  0.21053000000000002  0.53448  0.33551  1.0000
  H   H48       1.0  0.6691  0.46913  0.48515  1.0000
  H   H49       1.0  0.69746  0.5513  0.5244199999999999  1.0000
  H   H50       1.0  0.6765599999999999  0.4697599999999999  0.5755799999999998  1.0000
  H   H51       1.0  0.7515700000000001  0.51416  0.58574  1.0000
  H   H52       1.0  0.72876  0.43233  0.54531  1.0000
  H   H53       1.0  0.4472999999999999  0.36855999999999994  0.5427699999999999  1.0000
  H   H54       1.0  0.48969000000000007  0.63312  0.53529  1.0000
  H   H55       1.0  0.4684999999999999  0.7186599999999997  0.5988399999999998  1.0000
  H   H56       1.0  0.4190199999999999  0.5724999999999999  0.6484099999999998  1.0000
  H   H57       1.0  0.38178  0.47798999999999997  0.62763  1.0000
  H   H58       1.0  0.45769999999999994  0.3586399999999999  0.6123399999999999  1.0000
  H   H59       1.0  0.40549999999999997  0.6805  0.6856299999999999  1.0000
  H   H60       1.0  0.4654999999999999  0.7894799999999998  0.6644899999999998  1.0000
  H   H61       1.0  0.53087  0.33092  0.51486  1.0000
  H   H62       1.0  0.44869999999999993  0.30256  0.4755899999999999  1.0000
  H   H63       1.0  0.5302299999999999  0.32347999999999993  0.42443999999999993  1.0000
  H   H64       1.0  0.4858399999999999  0.24844999999999992  0.4142699999999999  1.0000
  H   H65       1.0  0.56767  0.27126  0.45468999999999987  1.0000
  H   H66       1.0  0.09535999999999993  0.17442  0.5427699999999999  1.0000
  H   H67       1.0  0.04568000000000003  0.90235  0.53525  1.0000
  H   H68       1.0  0.13034000000000007  0.8801299999999999  0.59877  1.0000
  H   H69       1.0  0.22914999999999994  0.07576  0.64835  1.0000
  H   H70       1.0  0.24595000000000003  0.14915000000000003  0.62727  1.0000
  H   H71       1.0  0.15527999999999995  0.25374  0.61249  1.0000
  H   H72       1.0  0.27985  0.0048099999999999974  0.68553  1.0000
  H   H73       1.0  0.19855  0.87498  0.66463  1.0000
  H   H74       1.0  0.98361  0.1847  0.51483  1.0000
  H   H75       1.0  0.026519999999999953  0.17310999999999999  0.4754299999999999  1.0000
  H   H76       1.0  0.89407  0.10139999999999996  0.42453999999999986  1.0000
  H   H77       1.0  0.9283800000000001  0.16606000000000004  0.41415  1.0000
  H   H78       1.0  0.88681  0.18387000000000003  0.45456  1.0000
  H   H79       1.0  0.92427  0.6977199999999999  0.042579999999999986  1.0000
  H   H80       1.0  0.6523  0.7392899999999999  0.03497  1.0000
  H   H81       1.0  0.63005  0.71843  0.09865999999999997  1.0000
  H   H82       1.0  0.82553  0.6690800000000001  0.14836  1.0000
  H   H83       1.0  0.89929  0.63165  0.12736  1.0000
  H   H84       1.0  0.003959999999999985  0.70712  0.11219999999999997  1.0000
  H   H85       1.0  0.7541900000000001  0.65592  0.18575999999999995  1.0000
  H   H86       1.0  0.62461  0.7164499999999999  0.16442999999999994  1.0000
  H   H87       1.0  0.93448  0.7812099999999998  0.01452  1.0000
  H   H88       1.0  0.9224599999999998  0.6990099999999998  0.9750799999999997  1.0000
  H   H89       1.0  0.85154  0.78074  0.92398  1.0000
  H   H90       1.0  0.9163099999999997  0.7361299999999998  0.9139699999999997  1.0000
  H   H91       1.0  0.9340099999999998  0.8180099999999998  0.9543099999999998  1.0000
  H   H92       1.0  0.11874  0.3455  0.04285  1.0000
  H   H93       1.0  0.38336  0.29579  0.03563999999999999  1.0000
  H   H94       1.0  0.46885000000000004  0.38051  0.09898  1.0000
  H   H95       1.0  0.3227  0.4793999999999999  0.14849999999999994  1.0000
  H   H96       1.0  0.2282  0.49572  0.12781  1.0000
  H   H97       1.0  0.10886  0.4046  0.11285  1.0000
  H   H98       1.0  0.43102  0.53014  0.18576999999999994  1.0000
  H   H99       1.0  0.53961  0.4485  0.16458999999999996  1.0000
  H   H100      1.0  0.08049  0.23406  0.015089999999999996  1.0000
  H   H101      1.0  0.05324999999999992  0.2769899999999999  0.9756999999999998  1.0000
  H   H102      1.0  0.07373  0.14462999999999998  0.92473  1.0000
  H   H103      1.0  0.99873  0.17887999999999993  0.9144699999999998  1.0000
  H   H104      1.0  0.021290000000000035  0.13715999999999998  0.9548  1.0000
  C   C1        1.0  0.27057  0.23510999999999999  0.98261  1.0000
  C   C2        1.0  0.27490999999999993  0.17221999999999987  0.9851299999999997  1.0000
  C   C3        1.0  0.2955499999999999  0.12302999999999999  0.9533699999999999  1.0000
  C   C4        1.0  0.31166  0.13467  0.91835  1.0000
  C   C5        1.0  0.30478000000000005  0.19772  0.91345  1.0000
  C   C6        1.0  0.2839799999999999  0.24776999999999985  0.9460899999999998  1.0000
  C   C7        1.0  0.2763099999999999  0.30983999999999984  0.9403599999999998  1.0000
  C   C8        1.0  0.28775999999999996  0.3220499999999999  0.9045899999999999  1.0000
  C   C9        1.0  0.30826000000000003  0.27293  0.87187  1.0000
  C   C10       1.0  0.31636  0.21218  0.87712  1.0000
  C   C11       1.0  0.3370599999999999  0.08429999999999986  0.8879899999999997  1.0000
  C   C12       1.0  0.32556  0.01864999999999996  0.8763999999999998  1.0000
  C   C13       1.0  0.35348000000000007  0.97268  0.8444099999999999  1.0000
  C   C14       1.0  0.3212499999999999  0.28379  0.8336399999999999  1.0000
  C   C15       1.0  0.30786999999999987  0.33574  0.81957  1.0000
  C   C16       1.0  0.32493  0.34206  0.78091  1.0000
  C   C17       1.0  0.25331  0.09648  0.01995  1.0000
  C   C18       1.0  0.22827000000000003  0.09836  0.05913  1.0000
  C   C19       1.0  0.7119199999999998  0.74696  0.9820399999999998  1.0000
  C   C20       1.0  0.70983  0.8123999999999999  0.98466  1.0000
  C   C21       1.0  0.6573800000000001  0.8299400000000001  0.95304  1.0000
  C   C22       1.0  0.6064799999999998  0.7833199999999999  0.9179799999999998  1.0000
  C   C23       1.0  0.6085  0.7154199999999998  0.9131099999999999  1.0000
  C   C24       1.0  0.66201  0.6978799999999998  0.94562  1.0000
  C   C25       1.0  0.66391  0.6300699999999998  0.9398299999999998  1.0000
  C   C26       1.0  0.61658  0.5823  0.90422  1.0000
  C   C27       1.0  0.5632999999999999  0.5988599999999997  0.8716299999999998  1.0000
  C   C28       1.0  0.5605599999999998  0.66486  0.8768899999999997  1.0000
  C   C29       1.0  0.5509699999999998  0.8034099999999998  0.8874999999999997  1.0000
  C   C30       1.0  0.55124  0.8573999999999999  0.8758399999999997  1.0000
  C   C31       1.0  0.49152999999999986  0.8719699999999998  0.8440599999999998  1.0000
  C   C32       1.0  0.5119599999999999  0.55009  0.83348  1.0000
  C   C33       1.0  0.51126  0.4841199999999999  0.81942  1.0000
  C   C34       1.0  0.45566999999999985  0.43920999999999993  0.7807899999999998  1.0000
  C   C35       1.0  0.76578  0.9229099999999999  0.019359999999999995  1.0000
  C   C36       1.0  0.8298500000000001  0.9598599999999999  0.058579999999999986  1.0000
  C   C37       1.0  0.98491  0.9621300000000002  0.48231  1.0000
  C   C38       1.0  0.92201  0.95994  0.4848399999999999  1.0000
  C   C39       1.0  0.87288  0.90748  0.45316  1.0000
  C   C40       1.0  0.88461  0.8565200000000001  0.4182  1.0000
  C   C41       1.0  0.94766  0.85869  0.41334  1.0000
  C   C42       1.0  0.99764  0.9122299999999999  0.4458799999999999  1.0000
  C   C43       1.0  0.05972  0.9140999999999999  0.44013  1.0000
  C   C44       1.0  0.07193000000000004  0.8668199999999999  0.40446  1.0000
  C   C45       1.0  0.022799999999999963  0.81359  0.37181999999999993  1.0000
  C   C46       1.0  0.9620499999999998  0.81081  0.3770799999999999  1.0000
  C   C47       1.0  0.83435  0.8006399999999999  0.38790999999999987  1.0000
  C   C48       1.0  0.7687200000000001  0.8005499999999998  0.3762799999999999  1.0000
  C   C49       1.0  0.7225100000000001  0.7407800000000001  0.34441  1.0000
  C   C50       1.0  0.033390000000000024  0.7622  0.33364  1.0000
  C   C51       1.0  0.08524999999999998  0.76126  0.31944999999999996  1.0000
  C   C52       1.0  0.09128  0.70552  0.28076  1.0000
  C   C53       1.0  0.8461300000000002  0.01609999999999999  0.5196  1.0000
  C   C54       1.0  0.8484100000000001  0.08026  0.55881  1.0000
  C   C55       1.0  0.49723000000000006  0.52044  0.4823399999999999  1.0000
  C   C56       1.0  0.56268  0.52532  0.485  1.0000
  C   C57       1.0  0.5801299999999999  0.54582  0.45318999999999987  1.0000
  C   C58       1.0  0.53347  0.5616  0.41810999999999987  1.0000
  C   C59       1.0  0.4656099999999999  0.5546599999999999  0.4132599999999999  1.0000
  C   C60       1.0  0.44809000000000004  0.53369  0.44583  1.0000
  C   C61       1.0  0.38029  0.52598  0.44009  1.0000
  C   C62       1.0  0.33253  0.53765  0.4044  1.0000
  C   C63       1.0  0.34912999999999994  0.55834  0.3717699999999999  1.0000
  C   C64       1.0  0.41508999999999996  0.5664  0.37701999999999997  1.0000
  C   C65       1.0  0.55358  0.58689  0.38772  1.0000
  C   C66       1.0  0.60772  0.57518  0.37627  1.0000
  C   C67       1.0  0.62208  0.6029  0.34431  1.0000
  C   C68       1.0  0.30049  0.57167  0.33363  1.0000
  C   C69       1.0  0.23450000000000001  0.55873  0.31958  1.0000
  C   C70       1.0  0.19005000000000002  0.5762  0.28102  1.0000
  C   C71       1.0  0.67312  0.50389  0.51967  1.0000
  C   C72       1.0  0.71001  0.47869  0.55878  1.0000
  C   C73       1.0  0.47958  0.50279  0.51767  1.0000
  C   C74       1.0  0.47469000000000006  0.4373399999999999  0.5149999999999999  1.0000
  C   C75       1.0  0.45419  0.4198799999999999  0.54682  1.0000
  C   C76       1.0  0.43842000000000003  0.46654  0.5819  1.0000
  C   C77       1.0  0.44536  0.5344  0.58675  1.0000
  C   C78       1.0  0.4663300000000001  0.55193  0.55418  1.0000
  C   C79       1.0  0.4740299999999999  0.6197299999999998  0.5599199999999998  1.0000
  C   C80       1.0  0.46236  0.6675  0.59561  1.0000
  C   C81       1.0  0.44167999999999985  0.6508799999999998  0.6282399999999998  1.0000
  C   C82       1.0  0.43362000000000006  0.5849199999999999  0.6229899999999999  1.0000
  C   C83       1.0  0.41312  0.44643  0.61228  1.0000
  C   C84       1.0  0.4248199999999998  0.3922899999999998  0.6237299999999998  1.0000
  C   C85       1.0  0.3971  0.37793  0.65569  1.0000
  C   C86       1.0  0.42833999999999994  0.6995199999999999  0.6663799999999999  1.0000
  C   C87       1.0  0.44126  0.76551  0.68042  1.0000
  C   C88       1.0  0.42379999999999995  0.8099599999999999  0.7189899999999998  1.0000
  C   C89       1.0  0.49611  0.3269  0.48034  1.0000
  C   C90       1.0  0.52131  0.29002  0.44122999999999996  1.0000
  C   C91       1.0  0.037869999999999994  0.015100000000000021  0.51769  1.0000
  C   C92       1.0  0.04006999999999999  0.07800000000000003  0.51515  1.0000
  C   C93       1.0  0.09253000000000006  0.12713  0.54684  1.0000
  C   C94       1.0  0.14349  0.11540000000000004  0.58179  1.0000
  C   C95       1.0  0.14131000000000002  0.052349999999999994  0.58666  1.0000
  C   C96       1.0  0.08778  0.002369999999999995  0.55412  1.0000
  C   C97       1.0  0.08590999999999999  0.94029  0.55987  1.0000
  C   C98       1.0  0.1331899999999999  0.9280799999999999  0.5955399999999997  1.0000
  C   C99       1.0  0.18641999999999995  0.97721  0.62818  1.0000
  C   C100      1.0  0.18919  0.037959999999999994  0.62292  1.0000
  C   C101      1.0  0.19936  0.16565999999999997  0.6120899999999999  1.0000
  C   C102      1.0  0.19946000000000003  0.2313  0.62372  1.0000
  C   C103      1.0  0.2592199999999999  0.27750999999999976  0.6555899999999998  1.0000
  C   C104      1.0  0.23780000000000007  0.96661  0.66636  1.0000
  C   C105      1.0  0.23874  0.9147500000000001  0.68055  1.0000
  C   C106      1.0  0.29447999999999996  0.9087199999999998  0.7192399999999998  1.0000
  C   C107      1.0  0.9839  0.15388999999999994  0.4803899999999999  1.0000
  C   C108      1.0  0.9197299999999998  0.15159999999999993  0.4411799999999999  1.0000
  C   C109      1.0  0.7648900000000001  0.72943  0.0174  1.0000
  C   C110      1.0  0.82779  0.7251  0.014869999999999996  1.0000
  C   C111      1.0  0.87698  0.70446  0.04664  1.0000
  C   C112      1.0  0.86533  0.68835  0.08165  1.0000
  C   C113      1.0  0.8022800000000001  0.69522  0.08655999999999998  1.0000
  C   C114      1.0  0.7522400000000001  0.71603  0.053909999999999986  1.0000
  C   C115      1.0  0.69017  0.72369  0.059639999999999985  1.0000
  C   C116      1.0  0.67796  0.71225  0.09541  1.0000
  C   C117      1.0  0.7270699999999999  0.69174  0.12813  1.0000
  C   C118      1.0  0.78783  0.68364  0.12288  1.0000
  C   C119      1.0  0.91571  0.66295  0.11202  1.0000
  C   C120      1.0  0.98135  0.6744499999999998  0.12361  1.0000
  C   C121      1.0  0.02734999999999997  0.6465299999999999  0.15558999999999995  1.0000
  C   C122      1.0  0.71622  0.67876  0.16637  1.0000
  C   C123      1.0  0.66427  0.69214  0.18043  1.0000
  C   C124      1.0  0.65795  0.67508  0.21909999999999996  1.0000
  C   C125      1.0  0.9035199999999999  0.7466899999999999  0.9800499999999998  1.0000
  C   C126      1.0  0.9016399999999999  0.7717299999999999  0.9408799999999998  1.0000
  C   C127      1.0  0.25304  0.28809  0.01796  1.0000
  C   C128      1.0  0.18761  0.29017  0.015339999999999996  1.0000
  C   C129      1.0  0.17007  0.34263  0.04695999999999999  1.0000
  C   C130      1.0  0.21669000000000002  0.39352  0.08202  1.0000
  C   C131      1.0  0.28459000000000007  0.39151  0.08689  1.0000
  C   C132      1.0  0.30212  0.33799  0.054379999999999984  1.0000
  C   C133      1.0  0.36993  0.3361  0.06016999999999999  1.0000
  C   C134      1.0  0.4177  0.38343  0.09578  1.0000
  C   C135      1.0  0.40114000000000005  0.43671  0.12836999999999998  1.0000
  C   C136      1.0  0.33515  0.43945  0.12310999999999997  1.0000
  C   C137      1.0  0.19661  0.44904  0.11249999999999999  1.0000
  C   C138      1.0  0.14262999999999998  0.44876999999999995  0.12416999999999997  1.0000
  C   C139      1.0  0.1281  0.5085  0.15595  1.0000
  C   C140      1.0  0.44991000000000003  0.48805  0.16651999999999995  1.0000
  C   C141      1.0  0.51588  0.48874  0.18058  1.0000
  C   C142      1.0  0.56079  0.54433  0.21920999999999993  1.0000
  C   C143      1.0  0.0770999999999999  0.23422999999999985  0.9806399999999998  1.0000
  C   C144      1.0  0.04013999999999989  0.17014999999999988  0.9414199999999998  1.0000
  O   O1        1.0  0.3299800000000001  0.91189  0.82935  1.0000
  O   O2        1.0  0.3975099999999999  0.9961600000000002  0.8336399999999999  1.0000
  O   O3        1.0  0.30545999999999995  0.39110999999999996  0.7685599999999998  1.0000
  O   O4        1.0  0.35786999999999997  0.29931999999999986  0.76261  1.0000
  O   O5        1.0  0.26049  0.16311  0.02069  1.0000
  O   O6        1.0  0.50016  0.91782  0.8291  1.0000
  O   O7        1.0  0.43657  0.83824  0.83353  1.0000
  O   O8        1.0  0.46324000000000004  0.3779199999999999  0.76846  1.0000
  O   O9        1.0  0.4043399999999999  0.46359999999999996  0.7625899999999998  1.0000
  O   O10       1.0  0.7596600000000001  0.85708  0.02014  1.0000
  O   O11       1.0  0.66182  0.74953  0.32937  1.0000
  O   O12       1.0  0.74559  0.68579  0.33368999999999993  1.0000
  O   O13       1.0  0.14041  0.71252  0.26843  1.0000
  O   O14       1.0  0.04828999999999999  0.65449  0.26245999999999997  1.0000
  O   O15       1.0  0.9127  0.009550000000000027  0.5204  1.0000
  O   O16       1.0  0.66752  0.57883  0.32912  1.0000
  O   O17       1.0  0.58833  0.64726  0.33368  1.0000
  O   O18       1.0  0.12856  0.55711  0.26874  1.0000
  O   O19       1.0  0.21494  0.60896  0.26275  1.0000
  O   O20       1.0  0.60751  0.51167  0.52077  1.0000
  O   O21       1.0  0.4211699999999998  0.3324799999999999  0.6708799999999998  1.0000
  O   O22       1.0  0.35275  0.41168  0.66632  1.0000
  O   O23       1.0  0.44289999999999985  0.8714499999999998  0.7312699999999998  1.0000
  O   O24       1.0  0.39105  0.78507  0.73726  1.0000
  O   O25       1.0  0.48834000000000005  0.3925099999999999  0.4792299999999999  1.0000
  O   O26       1.0  0.25047999999999987  0.33819999999999995  0.6706399999999999  1.0000
  O   O27       1.0  0.31422  0.25442  0.66631  1.0000
  O   O28       1.0  0.28748999999999997  0.85958  0.7315699999999998  1.0000
  O   O29       1.0  0.34551  0.95171  0.7375399999999999  1.0000
  O   O30       1.0  0.99046  0.08731  0.47959  1.0000
  O   O31       1.0  0.08813  0.67003  0.17065  1.0000
  O   O32       1.0  0.0038800000000000054  0.60249  0.16637  1.0000
  O   O33       1.0  0.6089  0.69455  0.23143999999999995  1.0000
  O   O34       1.0  0.70069  0.64214  0.23738999999999993  1.0000
  O   O35       1.0  0.8369  0.73951  0.97931  1.0000
  O   O36       1.0  0.08226  0.49987  0.17092  1.0000
  O   O37       1.0  0.16185  0.5634399999999999  0.16648999999999997  1.0000
  O   O38       1.0  0.62208  0.5367700000000001  0.23154  1.0000
  O   O39       1.0  0.5364  0.5956699999999999  0.23740999999999995  1.0000
  O   O40       1.0  0.14293  0.24034  0.97986  1.0000
