data_image0
_chemical_formula_structural       Co12H84C140O54
_chemical_formula_sum              "Co12 H84 C140 O54"
_cell_length_a       16.38598
_cell_length_b       16.52056
_cell_length_c       22.92306
_cell_angle_alpha    91.13923
_cell_angle_beta     90.00369999999998
_cell_angle_gamma    119.75458

_symmetry_space_group_name_H-M    'P 1'
_symmetry_Int_Tables_number       1

loop_
  _symmetry_equiv_pos_as_xyz
  'x,y,z'

loop_
  _atom_site_type_symbol
  _atom_site_label
  _atom_site_symmetry_multiplicity
  _atom_site_fract_x
  _atom_site_fract_y
  _atom_site_fract_z
  _atom_site_occupancy
  Co  Co1       1.0  0.47867999999999994  0.40306  0.9626400000000002  1.0000
  Co  Co2       1.0  0.5835  0.41865  0.8501700000000001  1.0000
  Co  Co3       1.0  0.51781  0.58048  0.8665700000000002  1.0000
  Co  Co4       1.0  0.07624000000000004  0.59758  0.53645  1.0000
  Co  Co5       1.0  0.16506  0.58147  0.64978  1.0000
  Co  Co6       1.0  0.9378200000000001  0.42019  0.63376  1.0000
  Co  Co7       1.0  0.52178  0.5976000000000001  0.03639  1.0000
  Co  Co8       1.0  0.4163999999999999  0.5813600000000001  0.14990000000000003  1.0000
  Co  Co9       1.0  0.48256  0.41965000000000013  0.13322  1.0000
  Co  Co10      1.0  0.9237999999999997  0.40303  0.4637800000000001  1.0000
  Co  Co11      1.0  0.83495  0.41847  0.35023  1.0000
  Co  Co12      1.0  0.062419999999999955  0.58026  0.36660000000000004  1.0000
  H   H1        1.0  0.62033  0.54579  0.9301800000000002  1.0000
  H   H2        1.0  0.78737  0.33739  0.9203700000000001  1.0000
  H   H3        1.0  0.83905  0.23069  0.9628200000000002  1.0000
  H   H4        1.0  0.58035  0.08948000000000002  0.05699000000000001  1.0000
  H   H5        1.0  0.5318399999999998  0.20064  0.018260000000000002  1.0000
  H   H6        1.0  0.60582  0.8813600000000003  0.88162  1.0000
  H   H7        1.0  0.65884  0.0394  0.92649  1.0000
  H   H8        1.0  0.74765  0.95902  0.08118  1.0000
  H   H9        1.0  0.69059  0.80023  0.036910000000000005  1.0000
  H   H10       1.0  0.20508999999999994  0.22050000000000003  0.8933900000000002  1.0000
  H   H11       1.0  0.05966000000000001  0.08765000000000003  0.8473500000000002  1.0000
  H   H12       1.0  0.22640000000000002  0.07469000000000002  0.7063300000000001  1.0000
  H   H13       1.0  0.37104  0.20531000000000002  0.75327  1.0000
  H   H14       1.0  0.2365399999999999  0.55129  0.9083600000000001  1.0000
  H   H15       1.0  0.07582  0.49533  0.9493400000000002  1.0000
  H   H16       1.0  0.11066000000000002  0.3067  0.05932  1.0000
  H   H17       1.0  0.27068  0.36091  0.01744  1.0000
  H   H18       1.0  0.11918999999999999  0.55263  0.19479  1.0000
  H   H19       1.0  0.1405  0.49977  0.09671000000000002  1.0000
  H   H20       1.0  0.84201  0.30842  0.08426000000000002  1.0000
  H   H21       1.0  0.8216599999999997  0.36495  0.18276  1.0000
  H   H22       1.0  0.07471000000000007  0.45495000000000013  0.5699900000000001  1.0000
  H   H23       1.0  0.45068  0.66301  0.57931  1.0000
  H   H24       1.0  0.60908  0.76996  0.5368900000000001  1.0000
  H   H25       1.0  0.49147  0.91127  0.4429700000000001  1.0000
  H   H26       1.0  0.33174  0.79984  0.48165000000000013  1.0000
  H   H27       1.0  0.72378  0.11867000000000001  0.61832  1.0000
  H   H28       1.0  0.61972  0.96046  0.57338  1.0000
  H   H29       1.0  0.78935  0.04178  0.41895000000000004  1.0000
  H   H30       1.0  0.8903999999999999  0.20071  0.46333  1.0000
  H   H31       1.0  0.98425  0.78088  0.60663  1.0000
  H   H32       1.0  0.9707899999999998  0.91203  0.65437  1.0000
  H   H33       1.0  0.15049000000000004  0.9227  0.7945800000000002  1.0000
  H   H34       1.0  0.16524000000000005  0.7934800000000001  0.7460700000000001  1.0000
  H   H35       1.0  0.68648  0.45003  0.59276  1.0000
  H   H36       1.0  0.58102  0.50478  0.55123  1.0000
  H   H37       1.0  0.80393  0.6929  0.44064000000000003  1.0000
  H   H38       1.0  0.9102700000000001  0.63973  0.48298  1.0000
  H   H39       1.0  0.56669  0.44705  0.30499  1.0000
  H   H40       1.0  0.6407999999999998  0.49979  0.40314  1.0000
  H   H41       1.0  0.5339  0.69112  0.41564000000000006  1.0000
  H   H42       1.0  0.4572  0.63495  0.3170700000000001  1.0000
  H   H43       1.0  0.3809099999999999  0.45539  0.06996  1.0000
  H   H44       1.0  0.21261999999999995  0.66299  0.07951000000000001  1.0000
  H   H45       1.0  0.1610699999999999  0.76969  0.037000000000000005  1.0000
  H   H46       1.0  0.41986  0.9107  0.94279  1.0000
  H   H47       1.0  0.4682400000000002  0.7995200000000005  0.9816300000000002  1.0000
  H   H48       1.0  0.39403000000000005  0.11897  0.11788000000000003  1.0000
  H   H49       1.0  0.3405500000000001  0.96073  0.07323000000000002  1.0000
  H   H50       1.0  0.25295  0.04133  0.9181200000000003  1.0000
  H   H51       1.0  0.31031  0.20028  0.96225  1.0000
  H   H52       1.0  0.79678  0.78134  0.10678000000000003  1.0000
  H   H53       1.0  0.94126  0.91275  0.15453  1.0000
  H   H54       1.0  0.77187  0.92314  0.29453  1.0000
  H   H55       1.0  0.6279999999999998  0.7936500000000002  0.24615000000000004  1.0000
  H   H56       1.0  0.76358  0.44884  0.09138  1.0000
  H   H57       1.0  0.92438  0.50492  0.05055  1.0000
  H   H58       1.0  0.8896699999999997  0.69385  0.9407700000000001  1.0000
  H   H59       1.0  0.72971  0.63974  0.9826000000000001  1.0000
  H   H60       1.0  0.8813099999999998  0.44743000000000005  0.80545  1.0000
  H   H61       1.0  0.86003  0.50051  0.9034800000000002  1.0000
  H   H62       1.0  0.15852000000000013  0.6922500000000003  0.9156700000000002  1.0000
  H   H63       1.0  0.17882000000000017  0.6355000000000002  0.81723  1.0000
  H   H64       1.0  0.92526  0.54559  0.42978000000000005  1.0000
  H   H65       1.0  0.5491899999999998  0.3368200000000001  0.42067000000000004  1.0000
  H   H66       1.0  0.3909299999999999  0.23001  0.46326  1.0000
  H   H67       1.0  0.50877  0.08885  0.55713  1.0000
  H   H68       1.0  0.66837  0.20015  0.51826  1.0000
  H   H69       1.0  0.27554  0.88159  0.3816600000000001  1.0000
  H   H70       1.0  0.3802399999999999  0.03953000000000001  0.4267500000000001  1.0000
  H   H71       1.0  0.21069999999999997  0.95846  0.58123  1.0000
  H   H72       1.0  0.10918000000000003  0.7997200000000001  0.53679  1.0000
  H   H73       1.0  0.015629999999999995  0.21958  0.39452000000000004  1.0000
  H   H74       1.0  0.028419999999999987  0.08747999999999999  0.34769  1.0000
  H   H75       1.0  0.84859  0.07537000000000002  0.20714  1.0000
  H   H76       1.0  0.8345900000000002  0.2056  0.25463  1.0000
  H   H77       1.0  0.31454  0.5513  0.40832  1.0000
  H   H78       1.0  0.4194400000000001  0.4955700000000001  0.44942  1.0000
  H   H79       1.0  0.19585999999999998  0.30679  0.5593200000000002  1.0000
  H   H80       1.0  0.08996  0.36077  0.51738  1.0000
  H   H81       1.0  0.4339  0.55314  0.69491  1.0000
  H   H82       1.0  0.35936  0.50021  0.59687  1.0000
  H   H83       1.0  0.46625  0.30877  0.58442  1.0000
  H   H84       1.0  0.54333  0.36533  0.68287  1.0000
  C   C1        1.0  0.62115  0.33458  0.9412500000000003  1.0000
  C   C2        1.0  0.6561499999999999  0.27507  0.9666800000000002  1.0000
  C   C3        1.0  0.74283  0.28394  0.9507600000000003  1.0000
  C   C4        1.0  0.77149  0.22418  0.9736000000000002  1.0000
  C   C5        1.0  0.7116  0.15416  0.010990000000000002  1.0000
  C   C6        1.0  0.6253999999999998  0.14470000000000005  0.027730000000000008  1.0000
  C   C7        1.0  0.59851  0.20624  0.00605  1.0000
  C   C8        1.0  0.60716  0.7351000000000002  0.9324700000000001  1.0000
  C   C9        1.0  0.64426  0.8307  0.9565800000000002  1.0000
  C   C10       1.0  0.63652  0.89889  0.9253200000000001  1.0000
  C   C11       1.0  0.66626  0.98704  0.95018  1.0000
  C   C12       1.0  0.7064399999999997  0.00792  0.006390000000000002  1.0000
  C   C13       1.0  0.71645  0.94124  0.03765000000000001  1.0000
  C   C14       1.0  0.6849  0.85321  0.012820000000000003  1.0000
  C   C15       1.0  0.38419  0.2910600000000001  0.8566300000000002  1.0000
  C   C16       1.0  0.29711  0.21866  0.8271100000000002  1.0000
  C   C17       1.0  0.20893999999999993  0.18741  0.85279  1.0000
  C   C18       1.0  0.12806  0.11411  0.82726  1.0000
  C   C19       1.0  0.13578  0.07267000000000001  0.77528  1.0000
  C   C20       1.0  0.22250999999999996  0.10630000000000003  0.7475100000000001  1.0000
  C   C21       1.0  0.30281999999999987  0.17867  0.77366  1.0000
  C   C22       1.0  0.3626000000000001  0.4985900000000001  0.94232  1.0000
  C   C23       1.0  0.26452000000000003  0.46170000000000005  0.96183  1.0000
  C   C24       1.0  0.20866  0.49766  0.9411300000000002  1.0000
  C   C25       1.0  0.11921999999999998  0.4667  0.96384  1.0000
  C   C26       1.0  0.08608000000000003  0.39926000000000006  0.006680000000000002  1.0000
  C   C27       1.0  0.13915000000000002  0.3599800000000001  0.026350000000000005  1.0000
  C   C28       1.0  0.22851000000000005  0.3916000000000001  0.003790000000000001  1.0000
  C   C29       1.0  0.9577399999999999  0.49269  0.25444  1.0000
  C   C30       1.0  0.96902  0.46311  0.19479  1.0000
  C   C31       1.0  0.05862999999999997  0.50002  0.17020000000000002  1.0000
  C   C32       1.0  0.07064000000000002  0.4701600000000001  0.11522000000000002  1.0000
  C   C33       1.0  0.9917899999999998  0.40101  0.08471000000000001  1.0000
  C   C34       1.0  0.9017799999999999  0.36214  0.1089  1.0000
  C   C35       1.0  0.89085  0.39392  0.16338000000000003  1.0000
  C   C36       1.0  0.28697  0.66561  0.5583200000000001  1.0000
  C   C37       1.0  0.38165000000000004  0.7252800000000001  0.5330500000000001  1.0000
  C   C38       1.0  0.4594899999999999  0.71646  0.5489700000000001  1.0000
  C   C39       1.0  0.5479  0.77627  0.5261200000000001  1.0000
  C   C40       1.0  0.5579999999999999  0.8463200000000002  0.48879  1.0000
  C   C41       1.0  0.4812899999999998  0.85588  0.47209  1.0000
  C   C42       1.0  0.39286  0.79426  0.49377000000000004  1.0000
  C   C43       1.0  0.8718499999999998  0.26549  0.5675300000000001  1.0000
  C   C44       1.0  0.81326  0.16985  0.5434800000000001  1.0000
  C   C45       1.0  0.73737  0.10143000000000003  0.5746700000000001  1.0000
  C   C46       1.0  0.67932  0.013210000000000003  0.54977  1.0000
  C   C47       1.0  0.6988900000000001  0.9926100000000002  0.4935700000000001  1.0000
  C   C48       1.0  0.77559  0.05947  0.4624100000000001  1.0000
  C   C49       1.0  0.8317299999999997  0.1475  0.4873000000000001  1.0000
  C   C50       1.0  0.09275  0.7091  0.64252  1.0000
  C   C51       1.0  0.07793  0.78113  0.6725300000000001  1.0000
  C   C52       1.0  0.021030000000000115  0.8128800000000003  0.6474600000000001  1.0000
  C   C53       1.0  0.012999999999999984  0.8854  0.6739  1.0000
  C   C54       1.0  0.062010000000000134  0.9259000000000002  0.7260600000000003  1.0000
  C   C55       1.0  0.11515999999999997  0.89182  0.7532200000000001  1.0000
  C   C56       1.0  0.12338  0.82019  0.7262100000000002  1.0000
  C   C57       1.0  0.86525  0.50304  0.55863  1.0000
  C   C58       1.0  0.80371  0.53938  0.53896  1.0000
  C   C59       1.0  0.71193  0.50326  0.55972  1.0000
  C   C60       1.0  0.65302  0.53343  0.53667  1.0000
  C   C61       1.0  0.68684  0.60028  0.49344  1.0000
  C   C62       1.0  0.77923  0.6398  0.47374000000000005  1.0000
  C   C63       1.0  0.83737  0.60891  0.4966000000000001  1.0000
  C   C64       1.0  0.4649199999999999  0.50675  0.24541  1.0000
  C   C65       1.0  0.5061  0.5366  0.30499  1.0000
  C   C66       1.0  0.5588  0.49967  0.32956  1.0000
  C   C67       1.0  0.60062  0.52942  0.38458  1.0000
  C   C68       1.0  0.59086  0.59841  0.41518000000000005  1.0000
  C   C69       1.0  0.5399  0.6374300000000002  0.3909600000000001  1.0000
  C   C70       1.0  0.49728  0.60582  0.33643000000000006  1.0000
  C   C71       1.0  0.37874  0.66551  0.05841000000000001  1.0000
  C   C72       1.0  0.34384  0.72518  0.03314000000000001  1.0000
  C   C73       1.0  0.25721  0.71637  0.04911  1.0000
  C   C74       1.0  0.2286  0.77612  0.02624  1.0000
  C   C75       1.0  0.28854  0.84609  0.98885  1.0000
  C   C76       1.0  0.37473000000000006  0.8555200000000001  0.97205  1.0000
  C   C77       1.0  0.40156  0.79398  0.99377  1.0000
  C   C78       1.0  0.39333999999999997  0.2654  0.06671  1.0000
  C   C79       1.0  0.35627  0.16979  0.04265  1.0000
  C   C80       1.0  0.3636099999999999  0.10154  0.07413  1.0000
  C   C81       1.0  0.33366  0.0133  0.04943  1.0000
  C   C82       1.0  0.29379999999999995  0.99243  0.9931600000000002  1.0000
  C   C83       1.0  0.28407999999999994  0.05910000000000001  0.9616600000000001  1.0000
  C   C84       1.0  0.31580999999999987  0.14723000000000006  0.9863900000000001  1.0000
  C   C85       1.0  0.61656  0.70907  0.14266000000000004  1.0000
  C   C86       1.0  0.70325  0.7814  0.17265  1.0000
  C   C87       1.0  0.79194  0.81335  0.14758  1.0000
  C   C88       1.0  0.8724  0.88594  0.17405000000000004  1.0000
  C   C89       1.0  0.86375  0.92632  0.2262  1.0000
  C   C90       1.0  0.77642  0.89218  0.25326  1.0000
  C   C91       1.0  0.6965900000000002  0.8204500000000001  0.22626000000000004  1.0000
  C   C92       1.0  0.63757  0.50151  0.05744  1.0000
  C   C93       1.0  0.73564  0.53848  0.037930000000000005  1.0000
  C   C94       1.0  0.7915  0.50252  0.058650000000000015  1.0000
  C   C95       1.0  0.8810000000000001  0.5336  0.03606  1.0000
  C   C96       1.0  0.9141999999999998  0.60113  0.9933  1.0000
  C   C97       1.0  0.8611799999999997  0.64054  0.9736900000000003  1.0000
  C   C98       1.0  0.77176  0.60885  0.9961700000000002  1.0000
  C   C99       1.0  0.04257  0.50743  0.74576  1.0000
  C   C100      1.0  0.03143999999999996  0.53714  0.8053800000000002  1.0000
  C   C101      1.0  0.94185  0.50013  0.83  1.0000
  C   C102      1.0  0.9298299999999998  0.53015  0.8849100000000002  1.0000
  C   C103      1.0  0.008680000000000007  0.59949  0.9153100000000001  1.0000
  C   C104      1.0  0.09870000000000001  0.63842  0.8911100000000001  1.0000
  C   C105      1.0  0.10964999999999998  0.60651  0.83668  1.0000
  C   C106      1.0  0.71296  0.33445  0.44171  1.0000
  C   C107      1.0  0.61833  0.27469  0.46697000000000005  1.0000
  C   C108      1.0  0.5404699999999998  0.28347000000000006  0.45106  1.0000
  C   C109      1.0  0.45213000000000003  0.22370000000000007  0.47396000000000005  1.0000
  C   C110      1.0  0.44213999999999987  0.15371  0.51129  1.0000
  C   C111      1.0  0.51887  0.14417000000000002  0.52797  1.0000
  C   C112      1.0  0.60723  0.20576  0.5062300000000001  1.0000
  C   C113      1.0  0.12709000000000015  0.7349900000000003  0.43238  1.0000
  C   C114      1.0  0.18602000000000005  0.83055  0.4565100000000001  1.0000
  C   C115      1.0  0.26208  0.89881  0.42535000000000006  1.0000
  C   C116      1.0  0.3204799999999999  0.98688  0.45031000000000004  1.0000
  C   C117      1.0  0.30107  0.007500000000000003  0.5065300000000001  1.0000
  C   C118      1.0  0.2243  0.94079  0.53772  1.0000
  C   C119      1.0  0.16785  0.85286  0.51278  1.0000
  C   C120      1.0  0.90765  0.29118  0.35789000000000004  1.0000
  C   C121      1.0  0.9219899999999998  0.21860000000000002  0.32836  1.0000
  C   C122      1.0  0.9786799999999999  0.18697  0.35384  1.0000
  C   C123      1.0  0.9862999999999998  0.11396  0.3279  1.0000
  C   C124      1.0  0.93704  0.07286  0.2759  1.0000
  C   C125      1.0  0.8840499999999998  0.10678000000000001  0.24837  1.0000
  C   C126      1.0  0.87624  0.17895  0.27486000000000005  1.0000
  C   C127      1.0  0.13587  0.49876  0.4424100000000001  1.0000
  C   C128      1.0  0.19699000000000003  0.46181  0.46189  1.0000
  C   C129      1.0  0.28882  0.49779  0.44118  1.0000
  C   C130      1.0  0.34739  0.46698  0.46392  1.0000
  C   C131      1.0  0.3131  0.39954  0.5067700000000002  1.0000
  C   C132      1.0  0.22072  0.36017  0.52641  1.0000
  C   C133      1.0  0.1629  0.39166  0.50383  1.0000
  C   C134      1.0  0.53512  0.4934600000000001  0.7545700000000001  1.0000
  C   C135      1.0  0.4943  0.46359000000000006  0.69493  1.0000
  C   C136      1.0  0.44164  0.50048  0.6702900000000002  1.0000
  C   C137      1.0  0.3996  0.4705800000000001  0.6153600000000001  1.0000
  C   C138      1.0  0.4091800000000001  0.4013800000000002  0.5848500000000001  1.0000
  C   C139      1.0  0.46031000000000005  0.36253000000000013  0.60907  1.0000
  C   C140      1.0  0.50315  0.39436  0.66353  1.0000
  O   O1        1.0  0.5536  0.33651000000000003  0.96754  1.0000
  O   O2        1.0  0.65906  0.37757  0.8938300000000002  1.0000
  O   O3        1.0  0.7397399999999998  0.09392  0.03412  1.0000
  O   O4        1.0  0.59906  0.6697000000000001  0.9656  1.0000
  O   O5        1.0  0.58409  0.71792  0.87806  1.0000
  O   O6        1.0  0.37654  0.3305  0.9032100000000001  1.0000
  O   O7        1.0  0.4627299999999999  0.30829  0.83386  1.0000
  O   O8        1.0  0.4182999999999999  0.48782  0.97738  1.0000
  O   O9        1.0  0.3887  0.53947  0.89384  1.0000
  O   O10       1.0  0.99642  0.3689  0.02919  1.0000
  O   O11       1.0  0.03334000000000001  0.541  0.28475  1.0000
  O   O12       1.0  0.87367  0.46651  0.27179000000000003  1.0000
  O   O13       1.0  0.56991  0.5064  0.90264  1.0000
  O   O14       1.0  0.21765999999999994  0.66323  0.53155  1.0000
  O   O15       1.0  0.28155  0.62298  0.6059600000000002  1.0000
  O   O16       1.0  0.64647  0.9066100000000002  0.46582  1.0000
  O   O17       1.0  0.92934  0.33069  0.5343900000000001  1.0000
  O   O18       1.0  0.86595  0.2828  0.62193  1.0000
  O   O19       1.0  0.04747000000000014  0.6716000000000002  0.59504  1.0000
  O   O20       1.0  0.15246  0.69049  0.6661500000000001  1.0000
  O   O21       1.0  0.93048  0.51224  0.52299  1.0000
  O   O22       1.0  0.8517900000000002  0.46415  0.6078100000000001  1.0000
  O   O23       1.0  0.6271  0.63007  0.47088  1.0000
  O   O24       1.0  0.4925  0.4588000000000001  0.21501000000000006  1.0000
  O   O25       1.0  0.40653000000000006  0.53236  0.22817  1.0000
  O   O26       1.0  0.06369  0.49475  0.5971700000000001  1.0000
  O   O27       1.0  0.44573999999999997  0.66317  0.03171  1.0000
  O   O28       1.0  0.34129  0.62283  0.10601000000000001  1.0000
  O   O29       1.0  0.26027  0.90621  0.9657300000000001  1.0000
  O   O30       1.0  0.40094  0.33088  0.0339  1.0000
  O   O31       1.0  0.4169  0.28244  0.12103000000000003  1.0000
  O   O32       1.0  0.62446  0.67123  0.09537000000000001  1.0000
  O   O33       1.0  0.53816  0.69055  0.16615000000000002  1.0000
  O   O34       1.0  0.58181  0.51223  0.022440000000000005  1.0000
  O   O35       1.0  0.61162  0.4607  0.10598  1.0000
  O   O36       1.0  0.003880000000000033  0.63144  0.97084  1.0000
  O   O37       1.0  0.96686  0.45916  0.7155800000000002  1.0000
  O   O38       1.0  0.12654  0.53347  0.7282600000000001  1.0000
  O   O39       1.0  0.43168999999999996  0.4951  0.09721000000000002  1.0000
  O   O40       1.0  0.7823  0.33696  0.4685  1.0000
  O   O41       1.0  0.7183099999999998  0.37703  0.3940400000000001  1.0000
  O   O42       1.0  0.3537  0.09343  0.5342700000000001  1.0000
  O   O43       1.0  0.07017999999999991  0.66954  0.4656200000000001  1.0000
  O   O44       1.0  0.13222000000000006  0.7178500000000002  0.37786000000000003  1.0000
  O   O45       1.0  0.95302  0.32915000000000005  0.40525000000000005  1.0000
  O   O46       1.0  0.8480999999999997  0.30976  0.33401  1.0000
  O   O47       1.0  0.06945000000000004  0.4881  0.47744  1.0000
  O   O48       1.0  0.15081999999999993  0.53971  0.39391  1.0000
  O   O49       1.0  0.37244  0.36925000000000013  0.52931  1.0000
  O   O50       1.0  0.50719  0.54131  0.7847800000000003  1.0000
  O   O51       1.0  0.59351  0.468  0.7720300000000001  1.0000
  O   O52       1.0  0.93629  0.50554  0.40284  1.0000
  O   O53       1.0  0.05406000000000006  0.99902  0.7512200000000001  1.0000
  O   O54       1.0  0.9449  0.9993800000000002  0.25137  1.0000
