data_image0
_chemical_formula_structural       Cu12H80W4C104S16N24
_chemical_formula_sum              "Cu12 H80 W4 C104 S16 N24"
_cell_length_a       9.37588
_cell_length_b       20.91913
_cell_length_c       25.397550000000003
_cell_angle_alpha    105.79172
_cell_angle_beta     90.00631999999999
_cell_angle_gamma    102.98801

_symmetry_space_group_name_H-M    'P 1'
_symmetry_Int_Tables_number       1

loop_
  _symmetry_equiv_pos_as_xyz
  'x,y,z'

loop_
  _atom_site_type_symbol
  _atom_site_label
  _atom_site_symmetry_multiplicity
  _atom_site_fract_x
  _atom_site_fract_y
  _atom_site_fract_z
  _atom_site_occupancy
  Cu  Cu1       1.0  0.61154  0.69554  0.46285  1.0000
  Cu  Cu2       1.0  0.028779999999999983  0.78681  0.50832  1.0000
  Cu  Cu3       1.0  0.7645500000000001  0.7407400000000002  0.6130800000000001  1.0000
  Cu  Cu4       1.0  0.91464  0.30412  0.03669000000000001  1.0000
  Cu  Cu5       1.0  0.24166999999999997  0.21275  0.99127  1.0000
  Cu  Cu6       1.0  0.026579999999999996  0.25986000000000004  0.8870700000000001  1.0000
  Cu  Cu7       1.0  0.38845999999999997  0.30447  0.53716  1.0000
  Cu  Cu8       1.0  0.9712099999999999  0.2132  0.49168  1.0000
  Cu  Cu9       1.0  0.23545  0.25927  0.38693  1.0000
  Cu  Cu10      1.0  0.08535999999999998  0.69588  0.9633100000000001  1.0000
  Cu  Cu11      1.0  0.75833  0.7872600000000001  0.00873  1.0000
  Cu  Cu12      1.0  0.97342  0.7401500000000001  0.11294  1.0000
  H   H1        1.0  0.27155  0.81454  0.92809  1.0000
  H   H2        1.0  0.43766000000000005  0.8298200000000001  0.85396  1.0000
  H   H3        1.0  0.43235999999999997  0.6148  0.81746  1.0000
  H   H4        1.0  0.26085  0.60841  0.89164  1.0000
  H   H5        1.0  0.78572  0.8385800000000001  0.7297200000000001  1.0000
  H   H6        1.0  0.65708  0.83364  0.8148400000000001  1.0000
  H   H7        1.0  0.4440700000000001  0.6235900000000001  0.7311100000000001  1.0000
  H   H8        1.0  0.58533  0.6359199999999999  0.65218  1.0000
  H   H9        1.0  0.07432999999999997  0.90431  0.46093  1.0000
  H   H10       1.0  0.27412  0.001910000000000008  0.45716  1.0000
  H   H11       1.0  0.5613799999999999  0.9163799999999999  0.53934  1.0000
  H   H12       1.0  0.35252  0.8238900000000001  0.53825  1.0000
  H   H13       1.0  0.25970000000000004  0.7200400000000001  0.54344  1.0000
  H   H14       1.0  0.30835  0.60531  0.5214  1.0000
  H   H15       1.0  0.9354099999999999  0.5372800000000001  0.4025  1.0000
  H   H16       1.0  0.90072  0.65485  0.43061  1.0000
  H   H17       1.0  0.59802  0.6024400000000001  0.54854  1.0000
  H   H18       1.0  0.62301  0.4828  0.52343  1.0000
  H   H19       1.0  0.92739  0.44017000000000006  0.40928  1.0000
  H   H20       1.0  0.025050000000000006  0.6763  0.61572  1.0000
  H   H21       1.0  0.45692  0.18603  0.57195  1.0000
  H   H22       1.0  0.6076300000000001  0.17040000000000008  0.6459300000000001  1.0000
  H   H23       1.0  0.8180399999999999  0.38544  0.68302  1.0000
  H   H24       1.0  0.6531200000000001  0.39225000000000004  0.60892  1.0000
  H   H25       1.0  0.94824  0.16188000000000005  0.7703000000000002  1.0000
  H   H26       1.0  0.82325  0.1666200000000001  0.6853500000000002  1.0000
  H   H27       1.0  0.8199199999999999  0.3764600000000001  0.7692500000000001  1.0000
  H   H28       1.0  0.95002  0.36437  0.84798  1.0000
  H   H29       1.0  0.16906  0.09507  0.03853  1.0000
  H   H30       1.0  0.2719200000000001  0.9977900000000001  0.04271  1.0000
  H   H31       1.0  0.6448199999999998  0.08377  0.96062  1.0000
  H   H32       1.0  0.52757  0.17585  0.9614  1.0000
  H   H33       1.0  0.5394700000000001  0.2793100000000001  0.9564800000000002  1.0000
  H   H34       1.0  0.70278  0.39409000000000005  0.9787  1.0000
  H   H35       1.0  0.39655  0.46174  0.09709  1.0000
  H   H36       1.0  0.24444999999999997  0.34417  0.06884  1.0000
  H   H37       1.0  0.9970199999999999  0.39755999999999997  0.9512  1.0000
  H   H38       1.0  0.1407  0.51735  0.97628  1.0000
  H   H39       1.0  0.4852600000000001  0.55873  0.09035  1.0000
  H   H40       1.0  0.35156  0.32464  0.88453  1.0000
  H   H41       1.0  0.72845  0.18546  0.07191  1.0000
  H   H42       1.0  0.56234  0.17018  0.14604  1.0000
  H   H43       1.0  0.56763  0.38521  0.18255  1.0000
  H   H44       1.0  0.73914  0.39159  0.10836  1.0000
  H   H45       1.0  0.21428  0.16142  0.27029  1.0000
  H   H46       1.0  0.34291  0.16637  0.18516  1.0000
  H   H47       1.0  0.5559299999999999  0.37641  0.2689  1.0000
  H   H48       1.0  0.41466  0.36407999999999996  0.34782  1.0000
  H   H49       1.0  0.9256699999999999  0.09569  0.53908  1.0000
  H   H50       1.0  0.72587  0.9980900000000001  0.54285  1.0000
  H   H51       1.0  0.43861999999999995  0.08362  0.46066  1.0000
  H   H52       1.0  0.6474799999999999  0.17612000000000005  0.4617600000000001  1.0000
  H   H53       1.0  0.7403  0.27996000000000004  0.45656000000000013  1.0000
  H   H54       1.0  0.69165  0.39469  0.4786000000000001  1.0000
  H   H55       1.0  0.06457999999999993  0.46271999999999996  0.5975  1.0000
  H   H56       1.0  0.09928  0.34516  0.5694  1.0000
  H   H57       1.0  0.40197999999999995  0.39755999999999997  0.45146  1.0000
  H   H58       1.0  0.37698  0.5172  0.47658000000000006  1.0000
  H   H59       1.0  0.07260999999999995  0.55984  0.59073  1.0000
  H   H60       1.0  0.9749499999999999  0.3237  0.3842900000000001  1.0000
  H   H61       1.0  0.54308  0.81397  0.42805000000000004  1.0000
  H   H62       1.0  0.39236  0.8296000000000001  0.35407  1.0000
  H   H63       1.0  0.18195999999999998  0.61456  0.31698  1.0000
  H   H64       1.0  0.34687  0.60775  0.39108  1.0000
  H   H65       1.0  0.05175999999999999  0.83812  0.2297  1.0000
  H   H66       1.0  0.17674000000000004  0.8333800000000001  0.31466  1.0000
  H   H67       1.0  0.18008000000000002  0.62354  0.23075  1.0000
  H   H68       1.0  0.04998000000000007  0.6356300000000001  0.15202  1.0000
  H   H69       1.0  0.8309400000000002  0.9049400000000001  0.96147  1.0000
  H   H70       1.0  0.7280800000000001  0.002220000000000044  0.9572900000000001  1.0000
  H   H71       1.0  0.3551800000000001  0.9162400000000002  0.03938  1.0000
  H   H72       1.0  0.47243  0.82416  0.0386  1.0000
  H   H73       1.0  0.46053  0.7206900000000002  0.04352  1.0000
  H   H74       1.0  0.29722  0.60592  0.0213  1.0000
  H   H75       1.0  0.60345  0.53826  0.90292  1.0000
  H   H76       1.0  0.7555499999999999  0.65583  0.93116  1.0000
  H   H77       1.0  0.0029800000000000933  0.6024400000000001  0.0488  1.0000
  H   H78       1.0  0.8593000000000001  0.48265  0.02372  1.0000
  H   H79       1.0  0.5147399999999999  0.44128000000000006  0.90966  1.0000
  H   H80       1.0  0.64844  0.67537  0.11548  1.0000
  W   W1        1.0  0.7654200000000001  0.8056500000000001  0.5376800000000002  1.0000
  W   W2        1.0  0.9594599999999999  0.19414  0.96169  1.0000
  W   W3        1.0  0.23458  0.19435000000000002  0.4623300000000001  1.0000
  W   W4        1.0  0.04054000000000001  0.80587  0.03831  1.0000
  C   C1        1.0  0.3107600000000001  0.7717800000000001  0.9027000000000001  1.0000
  C   C2        1.0  0.4043900000000001  0.7799400000000001  0.8614  1.0000
  C   C3        1.0  0.4487400000000001  0.7230800000000002  0.82825  1.0000
  C   C4        1.0  0.3987700000000001  0.6604400000000001  0.84042  1.0000
  C   C5        1.0  0.30456  0.65655  0.88224  1.0000
  C   C6        1.0  0.7100799999999999  0.79191  0.7322900000000001  1.0000
  C   C7        1.0  0.63657  0.78884  0.77943  1.0000
  C   C8        1.0  0.5372700000000001  0.7280600000000002  0.78097  1.0000
  C   C9        1.0  0.52105  0.6720900000000001  0.7340600000000002  1.0000
  C   C10       1.0  0.59957  0.67895  0.68884  1.0000
  C   C11       1.0  0.18463999999999997  0.90944  0.47759000000000007  1.0000
  C   C12       1.0  0.29804999999999987  0.96405  0.4757800000000001  1.0000
  C   C13       1.0  0.43920000000000003  0.9707500000000001  0.49934  1.0000
  C   C14       1.0  0.45629  0.9180700000000002  0.52185  1.0000
  C   C15       1.0  0.33766000000000007  0.8646400000000001  0.52131  1.0000
  C   C16       1.0  0.19008999999999995  0.67838  0.51219  1.0000
  C   C17       1.0  0.21818  0.61366  0.49917  1.0000
  C   C18       1.0  0.12677999999999995  0.55989  0.45926000000000006  1.0000
  C   C19       1.0  0.011610000000000039  0.5758400000000001  0.4337700000000001  1.0000
  C   C20       1.0  0.99092  0.64191  0.44919  1.0000
  C   C21       1.0  0.7008700000000001  0.5907000000000002  0.55762  1.0000
  C   C22       1.0  0.71648  0.5237  0.54299  1.0000
  C   C23       1.0  0.14926000000000003  0.4898100000000001  0.44484000000000007  1.0000
  C   C24       1.0  0.03576999999999999  0.4334700000000001  0.41824000000000006  1.0000
  C   C25       1.0  0.93906  0.63177  0.59532  1.0000
  C   C26       1.0  0.62501  0.54249  0.41728  1.0000
  C   C27       1.0  0.53892  0.22875000000000006  0.5974400000000001  1.0000
  C   C28       1.0  0.6241500000000001  0.2204  0.63872  1.0000
  C   C29       1.0  0.72538  0.27718  0.67203  1.0000
  C   C30       1.0  0.7383800000000001  0.33992  0.66001  1.0000
  C   C31       1.0  0.6483  0.34401  0.61819  1.0000
  C   C32       1.0  0.91893  0.20849  0.76781  1.0000
  C   C33       1.0  0.84775  0.21142  0.72077  1.0000
  C   C34       1.0  0.80894  0.27212  0.7192800000000001  1.0000
  C   C35       1.0  0.8487199999999999  0.32805  0.76624  1.0000
  C   C36       1.0  0.9210899999999999  0.32130000000000003  0.8113500000000001  1.0000
  C   C37       1.0  0.27444  0.09005  0.02203  1.0000
  C   C38       1.0  0.33354  0.03562  0.024  1.0000
  C   C39       1.0  0.46823999999999993  0.029150000000000002  0.00056  1.0000
  C   C40       1.0  0.5378600000000001  0.08184000000000012  0.9779900000000002  1.0000
  C   C41       1.0  0.47232999999999997  0.13507  0.9784  1.0000
  C   C42       1.0  0.51127  0.32091000000000003  0.9876900000000001  1.0000
  C   C43       1.0  0.60405  0.38567  0.0008200000000000001  1.0000
  C   C44       1.0  0.56601  0.43934999999999996  0.04064  1.0000
  C   C45       1.0  0.43459999999999993  0.4232600000000001  0.06594000000000001  1.0000
  C   C46       1.0  0.34787  0.35717000000000004  0.050420000000000006  1.0000
  C   C47       1.0  0.11170000000000001  0.40954000000000007  0.94223  1.0000
  C   C48       1.0  0.19380000000000006  0.4766600000000001  0.9568300000000001  1.0000
  C   C49       1.0  0.6582700000000001  0.5095100000000001  0.05514  1.0000
  C   C50       1.0  0.60054  0.56565  0.0816  1.0000
  C   C51       1.0  0.3095300000000001  0.3689800000000001  0.9048300000000002  1.0000
  C   C52       1.0  0.08180000000000005  0.45687  0.08241  1.0000
  C   C53       1.0  0.6892399999999999  0.22822000000000003  0.0973  1.0000
  C   C54       1.0  0.59561  0.22006  0.13861  1.0000
  C   C55       1.0  0.55126  0.27693  0.17175000000000004  1.0000
  C   C56       1.0  0.60123  0.33957  0.15958  1.0000
  C   C57       1.0  0.6954399999999998  0.34345  0.11776000000000003  1.0000
  C   C58       1.0  0.28992  0.2081  0.26771  1.0000
  C   C59       1.0  0.36342  0.21116000000000001  0.22058000000000003  1.0000
  C   C60       1.0  0.4627299999999999  0.27195  0.21903  1.0000
  C   C61       1.0  0.47894999999999993  0.32791000000000003  0.26595  1.0000
  C   C62       1.0  0.40043  0.32105  0.31116  1.0000
  C   C63       1.0  0.81535  0.09056999999999997  0.52242  1.0000
  C   C64       1.0  0.70194  0.035949999999999996  0.52423  1.0000
  C   C65       1.0  0.5608  0.029259999999999987  0.50066  1.0000
  C   C66       1.0  0.5437100000000001  0.08193000000000002  0.47815  1.0000
  C   C67       1.0  0.6623399999999999  0.13536  0.47869  1.0000
  C   C68       1.0  0.8098999999999997  0.32163  0.48781  1.0000
  C   C69       1.0  0.78181  0.38634  0.50083  1.0000
  C   C70       1.0  0.8732199999999999  0.44011000000000006  0.54075  1.0000
  C   C71       1.0  0.98839  0.42416  0.56624  1.0000
  C   C72       1.0  0.00908  0.3581  0.55081  1.0000
  C   C73       1.0  0.29912  0.40931  0.44238000000000005  1.0000
  C   C74       1.0  0.28352  0.47631  0.45701  1.0000
  C   C75       1.0  0.8507399999999999  0.51019  0.55516  1.0000
  C   C76       1.0  0.96422  0.56654  0.58177  1.0000
  C   C77       1.0  0.060930000000000005  0.36824  0.40468  1.0000
  C   C78       1.0  0.37499000000000005  0.4575000000000001  0.58272  1.0000
  C   C79       1.0  0.46107000000000004  0.7712600000000001  0.40256000000000003  1.0000
  C   C80       1.0  0.37585  0.77961  0.36128  1.0000
  C   C81       1.0  0.27462  0.72282  0.32797  1.0000
  C   C82       1.0  0.26162  0.66008  0.33999  1.0000
  C   C83       1.0  0.35169  0.65599  0.38181000000000004  1.0000
  C   C84       1.0  0.08107000000000003  0.79152  0.23219  1.0000
  C   C85       1.0  0.15225000000000005  0.7885900000000001  0.27924  1.0000
  C   C86       1.0  0.1910600000000001  0.7278800000000001  0.28072  1.0000
  C   C87       1.0  0.15127000000000002  0.6719600000000001  0.23377  1.0000
  C   C88       1.0  0.07891000000000004  0.6787000000000001  0.18865000000000004  1.0000
  C   C89       1.0  0.72556  0.90995  0.97797  1.0000
  C   C90       1.0  0.66645  0.96439  0.9760100000000003  1.0000
  C   C91       1.0  0.5317600000000001  0.9708500000000001  0.99944  1.0000
  C   C92       1.0  0.46214  0.9181700000000002  0.02201  1.0000
  C   C93       1.0  0.5276600000000002  0.8649300000000001  0.021600000000000008  1.0000
  C   C94       1.0  0.48872  0.67909  0.01231  1.0000
  C   C95       1.0  0.39594999999999997  0.61434  0.9991800000000001  1.0000
  C   C96       1.0  0.43399  0.56066  0.95936  1.0000
  C   C97       1.0  0.5654  0.57674  0.93406  1.0000
  C   C98       1.0  0.65213  0.64283  0.9495800000000002  1.0000
  C   C99       1.0  0.8882999999999999  0.59046  0.057770000000000016  1.0000
  C   C100      1.0  0.8062000000000001  0.52334  0.04318  1.0000
  C   C101      1.0  0.3417299999999999  0.49050000000000005  0.9448600000000003  1.0000
  C   C102      1.0  0.39946  0.43435000000000007  0.91841  1.0000
  C   C103      1.0  0.69047  0.63103  0.09517  1.0000
  C   C104      1.0  0.9181800000000001  0.54312  0.9175900000000001  1.0000
  S   S1        1.0  0.8205899999999999  0.7795200000000001  0.45090000000000013  1.0000
  S   S2        1.0  0.95212  0.8279600000000001  0.59893  1.0000
  S   S3        1.0  0.56116  0.73986  0.55521  1.0000
  S   S4        1.0  0.6509699999999999  0.46542000000000006  0.3942200000000001  1.0000
  S   S5        1.0  0.039520000000000007  0.21957  0.04849  1.0000
  S   S6        1.0  0.12385  0.17145  0.9005800000000002  1.0000
  S   S7        1.0  0.8220000000000001  0.26031000000000004  0.9442900000000001  1.0000
  S   S8        1.0  0.18467000000000003  0.534  0.10551  1.0000
  S   S9        1.0  0.17941  0.22048  0.5491  1.0000
  S   S10       1.0  0.04788000000000003  0.17204000000000005  0.40107  1.0000
  S   S11       1.0  0.43883999999999995  0.26015  0.44479  1.0000
  S   S12       1.0  0.34903  0.53458  0.60578  1.0000
  S   S13       1.0  0.9604800000000002  0.7804300000000001  0.9515200000000001  1.0000
  S   S14       1.0  0.8761399999999999  0.82856  0.09942000000000001  1.0000
  S   S15       1.0  0.17799  0.7397  0.055710000000000016  1.0000
  S   S16       1.0  0.81533  0.466  0.8945  1.0000
  N   N1        1.0  0.6061  0.59864  0.43477  1.0000
  N   N2        1.0  0.54818  0.28964  0.58738  1.0000
  N   N3        1.0  0.69208  0.73803  0.6869600000000001  1.0000
  N   N4        1.0  0.2013300000000001  0.8599200000000001  0.50054  1.0000
  N   N5        1.0  0.07806000000000009  0.6933000000000001  0.48812  1.0000
  N   N6        1.0  0.8090900000000001  0.64441  0.58401  1.0000
  N   N7        1.0  0.006770000000000019  0.40068000000000004  0.06486  1.0000
  N   N8        1.0  0.259  0.71099  0.91293  1.0000
  N   N9        1.0  0.95516  0.26236000000000004  0.8131500000000002  1.0000
  N   N10       1.0  0.34059  0.13958  0.99907  1.0000
  N   N11       1.0  0.38406  0.30587  0.011590000000000003  1.0000
  N   N12       1.0  0.16677  0.3560000000000001  0.9159900000000002  1.0000
  N   N13       1.0  0.39389  0.40136  0.56523  1.0000
  N   N14       1.0  0.45182  0.71036  0.41262000000000004  1.0000
  N   N15       1.0  0.30791  0.26198  0.31304  1.0000
  N   N16       1.0  0.79867  0.14009000000000005  0.49946000000000007  1.0000
  N   N17       1.0  0.92194  0.3067  0.51188  1.0000
  N   N18       1.0  0.19091000000000008  0.35560000000000014  0.416  1.0000
  N   N19       1.0  0.99322  0.59933  0.9351400000000002  1.0000
  N   N20       1.0  0.74099  0.28901  0.08707000000000001  1.0000
  N   N21       1.0  0.04484000000000003  0.73765  0.18686000000000005  1.0000
  N   N22       1.0  0.6594  0.86042  0.0009300000000000002  1.0000
  N   N23       1.0  0.61594  0.69413  0.98842  1.0000
  N   N24       1.0  0.83323  0.644  0.08401  1.0000
