data_image0
_chemical_formula_structural       Ce2H100C156N4O24
_chemical_formula_sum              "Ce2 H100 C156 N4 O24"
_cell_length_a       10.41973
_cell_length_b       10.42068
_cell_length_c       36.49815
_cell_angle_alpha    90.01012
_cell_angle_beta     89.99776
_cell_angle_gamma    102.72476

_symmetry_space_group_name_H-M    'P 1'
_symmetry_Int_Tables_number       1

loop_
  _symmetry_equiv_pos_as_xyz
  'x,y,z'

loop_
  _atom_site_type_symbol
  _atom_site_label
  _atom_site_symmetry_multiplicity
  _atom_site_fract_x
  _atom_site_fract_y
  _atom_site_fract_z
  _atom_site_occupancy
  Ce  Ce1       1.0  0.63754  0.63821  0.0002  1.0000
  Ce  Ce2       1.0  0.13831  0.13953000000000002  0.50009  1.0000
  H   H1        1.0  0.92533  0.5279600000000001  0.79558  1.0000
  H   H2        1.0  0.97773  0.44505000000000006  0.60483  1.0000
  H   H3        1.0  0.30664  0.78237  0.81489  1.0000
  H   H4        1.0  0.07351  0.16682  0.63925  1.0000
  H   H5        1.0  0.85441  0.64012  0.83122  1.0000
  H   H6        1.0  0.012490000000000027  0.43943000000000004  0.74105  1.0000
  H   H7        1.0  0.28758  0.7443000000000001  0.6945  1.0000
  H   H8        1.0  0.9204200000000001  0.6487600000000001  0.71101  1.0000
  H   H9        1.0  0.84885  0.09231000000000002  0.61159  1.0000
  H   H10       1.0  0.39431000000000005  0.6891900000000001  0.76124  1.0000
  H   H11       1.0  0.14594  0.05972  0.75029  1.0000
  H   H12       1.0  0.77399  0.6926800000000001  0.8918999999999999  1.0000
  H   H13       1.0  0.16382  0.99701  0.62848  1.0000
  H   H14       1.0  0.9795599999999999  0.8806300000000001  0.73285  1.0000
  H   H15       1.0  0.46699  0.8651200000000001  0.65499  1.0000
  H   H16       1.0  0.16698  0.40164000000000005  0.65406  1.0000
  H   H17       1.0  0.1038  0.76827  0.60703  1.0000
  H   H18       1.0  0.22638  0.29494  0.76568  1.0000
  H   H19       1.0  0.45970000000000005  0.40427  0.69088  1.0000
  H   H20       1.0  0.25364000000000003  0.7818000000000002  0.86816  1.0000
  H   H21       1.0  0.6821300000000001  0.9654900000000001  0.65395  1.0000
  H   H22       1.0  0.16999000000000003  0.8445500000000001  0.92769  1.0000
  H   H23       1.0  0.86894  0.7372500000000002  0.55443  1.0000
  H   H24       1.0  0.69  0.61088  0.59386  1.0000
  H   H25       1.0  0.63933  0.52502  0.65209  1.0000
  H   H26       1.0  0.52793  0.92525  0.20439  1.0000
  H   H27       1.0  0.44497  0.97777  0.39517  1.0000
  H   H28       1.0  0.7823  0.30654000000000003  0.18507  1.0000
  H   H29       1.0  0.16682  0.07351  0.36074  1.0000
  H   H30       1.0  0.64019  0.8543  0.16873  1.0000
  H   H31       1.0  0.43951  0.01237  0.25894  1.0000
  H   H32       1.0  0.74438  0.2877  0.30549  1.0000
  H   H33       1.0  0.64864  0.9203700000000002  0.28899  1.0000
  H   H34       1.0  0.09261999999999997  0.849  0.38844  1.0000
  H   H35       1.0  0.68919  0.39416000000000007  0.23874000000000004  1.0000
  H   H36       1.0  0.0596  0.14585  0.24971  1.0000
  H   H37       1.0  0.69323  0.77404  0.10811  1.0000
  H   H38       1.0  0.9970199999999999  0.16371  0.37154  1.0000
  H   H39       1.0  0.88055  0.9795000000000001  0.26715  1.0000
  H   H40       1.0  0.8652699999999999  0.4670800000000001  0.34497  1.0000
  H   H41       1.0  0.40166  0.16695000000000002  0.34594  1.0000
  H   H42       1.0  0.76829  0.1037  0.39298  1.0000
  H   H43       1.0  0.29483  0.22623000000000001  0.23431  1.0000
  H   H44       1.0  0.40431000000000006  0.45968  0.30909  1.0000
  H   H45       1.0  0.78181  0.25368  0.13183  1.0000
  H   H46       1.0  0.9657999999999999  0.6823  0.34611  1.0000
  H   H47       1.0  0.8451399999999999  0.16982  0.07235  1.0000
  H   H48       1.0  0.7375500000000001  0.869  0.44562  1.0000
  H   H49       1.0  0.61113  0.69002  0.40625  1.0000
  H   H50       1.0  0.5250300000000001  0.63934  0.34787  1.0000
  H   H51       1.0  0.027039999999999995  0.42538  0.29561  1.0000
  H   H52       1.0  0.9449299999999999  0.47773  0.1048  1.0000
  H   H53       1.0  0.28158  0.80636  0.31512  1.0000
  H   H54       1.0  0.66681  0.5739800000000002  0.13924  1.0000
  H   H55       1.0  0.13969  0.35424  0.33095  1.0000
  H   H56       1.0  0.93919  0.51263  0.24098  1.0000
  H   H57       1.0  0.24432  0.78719  0.19445  1.0000
  H   H58       1.0  0.14861  0.4203900000000001  0.21099  1.0000
  H   H59       1.0  0.59545  0.34809  0.11257999999999999  1.0000
  H   H60       1.0  0.18906000000000003  0.8942800000000001  0.26138  1.0000
  H   H61       1.0  0.5596  0.64568  0.25032  1.0000
  H   H62       1.0  0.1952  0.27306  0.39134  1.0000
  H   H63       1.0  0.4969  0.66416  0.12851  1.0000
  H   H64       1.0  0.38051  0.47950000000000004  0.23283  1.0000
  H   H65       1.0  0.36576  0.96654  0.15506  1.0000
  H   H66       1.0  0.9016499999999998  0.66728  0.15408  1.0000
  H   H67       1.0  0.2681  0.60415  0.10707  1.0000
  H   H68       1.0  0.7947499999999998  0.72615  0.26573  1.0000
  H   H69       1.0  0.90473  0.9600500000000001  0.19069  1.0000
  H   H70       1.0  0.27963  0.75311  0.36841  1.0000
  H   H71       1.0  0.46643999999999997  0.18158  0.15472  1.0000
  H   H72       1.0  0.34531000000000006  0.66824  0.4276  1.0000
  H   H73       1.0  0.24275  0.37017  0.05465  1.0000
  H   H74       1.0  0.11384  0.19177  0.09386  1.0000
  H   H75       1.0  0.026069999999999996  0.13954  0.15199  1.0000
  H   H76       1.0  0.4254  0.02703  0.70436  1.0000
  H   H77       1.0  0.4777800000000001  0.9450300000000003  0.89521  1.0000
  H   H78       1.0  0.80647  0.28158  0.6849  1.0000
  H   H79       1.0  0.57391  0.66683  0.86077  1.0000
  H   H80       1.0  0.35423  0.14006  0.66907  1.0000
  H   H81       1.0  0.51265  0.9392  0.75899  1.0000
  H   H82       1.0  0.78707  0.24416000000000004  0.80557  1.0000
  H   H83       1.0  0.42040000000000005  0.14864  0.789  1.0000
  H   H84       1.0  0.34746  0.59567  0.8873800000000001  1.0000
  H   H85       1.0  0.89435  0.18903  0.73865  1.0000
  H   H86       1.0  0.64576  0.55961  0.7497  1.0000
  H   H87       1.0  0.2729  0.19493000000000005  0.60865  1.0000
  H   H88       1.0  0.6641100000000001  0.49687  0.87151  1.0000
  H   H89       1.0  0.47954  0.38049  0.76717  1.0000
  H   H90       1.0  0.9666  0.3655800000000001  0.84494  1.0000
  H   H91       1.0  0.66723  0.90162  0.84594  1.0000
  H   H92       1.0  0.60409  0.26811  0.89294  1.0000
  H   H93       1.0  0.72623  0.79474  0.73429  1.0000
  H   H94       1.0  0.96003  0.9046300000000002  0.80933  1.0000
  H   H95       1.0  0.753  0.28009  0.63155  1.0000
  H   H96       1.0  0.18169000000000002  0.46615000000000006  0.84518  1.0000
  H   H97       1.0  0.66806  0.34511  0.57234  1.0000
  H   H98       1.0  0.36965  0.24313000000000004  0.94547  1.0000
  H   H99       1.0  0.19199  0.11408  0.90606  1.0000
  H   H100      1.0  0.13965  0.026050000000000007  0.848  1.0000
  C   C1        1.0  0.21  0.55596  0.74787  1.0000
  C   C2        1.0  0.02798  0.56507  0.78831  1.0000
  C   C3        1.0  0.56827  0.70552  0.65087  1.0000
  C   C4        1.0  0.10953000000000004  0.6605400000000002  0.8105  1.0000
  C   C5        1.0  0.24142  0.70638  0.79924  1.0000
  C   C6        1.0  0.06097  0.70359  0.84518  1.0000
  C   C7        1.0  0.11096000000000003  0.19434000000000004  0.66664  1.0000
  C   C8        1.0  0.007630000000000022  0.6940100000000001  0.65773  1.0000
  C   C9        1.0  0.92493  0.68103  0.85238  1.0000
  C   C10       1.0  0.87064  0.92284  0.58057  1.0000
  C   C11       1.0  0.9666300000000001  0.7695600000000001  0.91365  1.0000
  C   C12       1.0  0.20568  0.36218  0.71038  1.0000
  C   C13       1.0  0.07372000000000002  0.9563200000000001  0.68194  1.0000
  C   C14       1.0  0.07663999999999997  0.51343  0.75766  1.0000
  C   C15       1.0  0.36648  0.6980200000000001  0.68577  1.0000
  C   C16       1.0  0.97374  0.72639  0.69332  1.0000
  C   C17       1.0  0.36306999999999995  0.56708  0.69591  1.0000
  C   C18       1.0  0.81541  0.98651  0.60836  1.0000
  C   C19       1.0  0.2913  0.6555200000000001  0.76863  1.0000
  C   C20       1.0  0.148  0.13385  0.72915  1.0000
  C   C21       1.0  0.8788399999999998  0.71193  0.8861700000000001  1.0000
  C   C22       1.0  0.10910999999999997  0.9218700000000001  0.64664  1.0000
  C   C23       1.0  0.96638  0.55696  0.6452  1.0000
  C   C24       1.0  0.0074900000000000045  0.85595  0.70544  1.0000
  C   C25       1.0  0.46777  0.7654400000000001  0.66368  1.0000
  C   C26       1.0  0.16132000000000002  0.3258400000000001  0.67484  1.0000
  C   C27       1.0  0.07694000000000001  0.7925600000000002  0.63454  1.0000
  C   C28       1.0  0.19496000000000002  0.2659500000000001  0.73788  1.0000
  C   C29       1.0  0.67384  0.77871  0.62709  1.0000
  C   C30       1.0  0.46195  0.50557  0.68322  1.0000
  C   C31       1.0  0.14838  0.76335  0.87297  1.0000
  C   C32       1.0  0.7203  0.9153500000000001  0.63169  1.0000
  C   C33       1.0  0.10216000000000004  0.7981800000000001  0.9064299999999998  1.0000
  C   C34       1.0  0.10864  0.09538000000000002  0.6931  1.0000
  C   C35       1.0  0.8266099999999998  0.78626  0.57616  1.0000
  C   C36       1.0  0.72828  0.71542  0.59877  1.0000
  C   C37       1.0  0.91379  0.8038600000000002  0.9495800000000001  1.0000
  C   C38       1.0  0.56264  0.57389  0.66103  1.0000
  C   C39       1.0  0.97571  0.99985  0.55645  1.0000
  C   C40       1.0  0.55594  0.20992000000000002  0.2521  1.0000
  C   C41       1.0  0.56505  0.027910000000000004  0.21166  1.0000
  C   C42       1.0  0.70567  0.5684  0.34912  1.0000
  C   C43       1.0  0.66048  0.10945000000000002  0.18947  1.0000
  C   C44       1.0  0.70633  0.24132  0.20073  1.0000
  C   C45       1.0  0.70347  0.06095000000000001  0.1548  1.0000
  C   C46       1.0  0.19435  0.11094  0.33335  1.0000
  C   C47       1.0  0.69397  0.007570000000000002  0.34228  1.0000
  C   C48       1.0  0.68114  0.92493  0.1476  1.0000
  C   C49       1.0  0.9229999999999999  0.8708800000000001  0.41941  1.0000
  C   C50       1.0  0.7702  0.96665  0.0864  1.0000
  C   C51       1.0  0.3622  0.20561  0.28961  1.0000
  C   C52       1.0  0.95627  0.07368000000000001  0.31806  1.0000
  C   C53       1.0  0.51341  0.07656000000000002  0.24232  1.0000
  C   C54       1.0  0.69809  0.36657000000000006  0.31422  1.0000
  C   C55       1.0  0.72631  0.9736900000000002  0.30668  1.0000
  C   C56       1.0  0.56714  0.3630800000000001  0.30407  1.0000
  C   C57       1.0  0.98678  0.8155900000000001  0.39167  1.0000
  C   C58       1.0  0.65544  0.29118000000000005  0.23133  1.0000
  C   C59       1.0  0.13378000000000004  0.14792000000000005  0.27085  1.0000
  C   C60       1.0  0.7124599999999998  0.87888  0.11385000000000002  1.0000
  C   C61       1.0  0.92186  0.10904000000000001  0.35337  1.0000
  C   C62       1.0  0.55694  0.9663200000000001  0.35481  1.0000
  C   C63       1.0  0.85586  0.007440000000000001  0.29457  1.0000
  C   C64       1.0  0.7655700000000001  0.4678900000000001  0.3363  1.0000
  C   C65       1.0  0.32587000000000005  0.16127  0.32515  1.0000
  C   C66       1.0  0.79255  0.07687  0.36548  1.0000
  C   C67       1.0  0.2659  0.19486000000000003  0.26212  1.0000
  C   C68       1.0  0.77893  0.6739200000000001  0.37295  1.0000
  C   C69       1.0  0.50563  0.46195  0.31676  1.0000
  C   C70       1.0  0.76346  0.14839  0.12704  1.0000
  C   C71       1.0  0.9155999999999999  0.72045  0.36836  1.0000
  C   C72       1.0  0.79875  0.10214000000000001  0.09364  1.0000
  C   C73       1.0  0.09534999999999998  0.10859  0.30689  1.0000
  C   C74       1.0  0.7864799999999998  0.8266900000000001  0.42388  1.0000
  C   C75       1.0  0.71563  0.7283200000000001  0.40127  1.0000
  C   C76       1.0  0.80419  0.9139800000000001  0.05043  1.0000
  C   C77       1.0  0.57399  0.5627  0.33894  1.0000
  C   C78       1.0  0.9996900000000001  0.9760200000000001  0.44353000000000004  1.0000
  C   C79       1.0  0.05574999999999999  0.71015  0.2479  1.0000
  C   C80       1.0  0.06424000000000003  0.52801  0.28833  1.0000
  C   C81       1.0  0.20658  0.06838  0.15098  1.0000
  C   C82       1.0  0.15957  0.6094  0.31058  1.0000
  C   C83       1.0  0.20564  0.74131  0.2994  1.0000
  C   C84       1.0  0.20261  0.56055  0.34519  1.0000
  C   C85       1.0  0.69431  0.61137  0.16664  1.0000
  C   C86       1.0  0.19390999999999997  0.50779  0.15773  1.0000
  C   C87       1.0  0.18085  0.42443  0.35216  1.0000
  C   C88       1.0  0.42708  0.36983  0.08113  1.0000
  C   C89       1.0  0.2722800000000001  0.4655700000000001  0.41307  1.0000
  C   C90       1.0  0.8621300000000001  0.70595  0.21039  1.0000
  C   C91       1.0  0.45622  0.57389  0.18195  1.0000
  C   C92       1.0  0.012979999999999995  0.57679  0.25765  1.0000
  C   C93       1.0  0.1982400000000001  0.8662200000000002  0.18574  1.0000
  C   C94       1.0  0.22626  0.4738  0.19332  1.0000
  C   C95       1.0  0.06731000000000002  0.8630600000000002  0.19586  1.0000
  C   C96       1.0  0.4897  0.31488000000000005  0.10913  1.0000
  C   C97       1.0  0.15511000000000005  0.7913000000000002  0.26876  1.0000
  C   C98       1.0  0.63376  0.64797  0.22917  1.0000
  C   C99       1.0  0.21363  0.37793  0.3857  1.0000
  C   C100      1.0  0.42175  0.6093500000000001  0.14666  1.0000
  C   C101      1.0  0.05684  0.46646000000000004  0.1452  1.0000
  C   C102      1.0  0.35581  0.50754  0.20543  1.0000
  C   C103      1.0  0.26608  0.9675300000000001  0.16374  1.0000
  C   C104      1.0  0.8258  0.6616700000000001  0.17485  1.0000
  C   C105      1.0  0.29246000000000005  0.5771800000000002  0.13455  1.0000
  C   C106      1.0  0.76586  0.69498  0.2379  1.0000
  C   C107      1.0  0.28066  0.17419  0.12742  1.0000
  C   C108      1.0  0.006059999999999976  0.96205  0.1831  1.0000
  C   C109      1.0  0.26227  0.64783  0.37301  1.0000
  C   C110      1.0  0.41725999999999996  0.22018000000000004  0.13234  1.0000
  C   C111      1.0  0.29883  0.6012  0.40618  1.0000
  C   C112      1.0  0.5953  0.60884  0.19311  1.0000
  C   C113      1.0  0.29047  0.32704  0.0765  1.0000
  C   C114      1.0  0.21837  0.2293  0.09902  1.0000
  C   C115      1.0  0.30939  0.41340000000000005  0.4487400000000001  1.0000
  C   C116      1.0  0.07479  0.0628  0.16099  1.0000
  C   C117      1.0  0.5036  0.47319  0.05661000000000001  1.0000
  C   C118      1.0  0.71016  0.05571000000000001  0.75209  1.0000
  C   C119      1.0  0.52804  0.06428  0.71164  1.0000
  C   C120      1.0  0.06849  0.20652  0.84899  1.0000
  C   C121      1.0  0.60944  0.15965  0.68941  1.0000
  C   C122      1.0  0.74135  0.20567000000000002  0.70062  1.0000
  C   C123      1.0  0.56054  0.20254  0.65476  1.0000
  C   C124      1.0  0.61135  0.6943  0.83338  1.0000
  C   C125      1.0  0.50775  0.19391000000000005  0.84227  1.0000
  C   C126      1.0  0.4244200000000001  0.18071  0.64781  1.0000
  C   C127      1.0  0.36951  0.42749000000000004  0.91895  1.0000
  C   C128      1.0  0.46514  0.27163  0.5868  1.0000
  C   C129      1.0  0.70592  0.8621000000000002  0.78962  1.0000
  C   C130      1.0  0.57385  0.45623  0.81806  1.0000
  C   C131      1.0  0.5768  0.013  0.74233  1.0000
  C   C132      1.0  0.86618  0.19812000000000002  0.81425  1.0000
  C   C133      1.0  0.47378000000000003  0.22627000000000003  0.80668  1.0000
  C   C134      1.0  0.86302  0.06719  0.80414  1.0000
  C   C135      1.0  0.31456000000000006  0.4899200000000001  0.89088  1.0000
  C   C136      1.0  0.79135  0.15509000000000003  0.73126  1.0000
  C   C137      1.0  0.6480199999999999  0.6337400000000001  0.77085  1.0000
  C   C138      1.0  0.37778  0.21312  0.61424  1.0000
  C   C139      1.0  0.60929  0.42175000000000007  0.85336  1.0000
  C   C140      1.0  0.4665  0.05688  0.8548  1.0000
  C   C141      1.0  0.50753  0.35583  0.79458  1.0000
  C   C142      1.0  0.9675800000000002  0.2659500000000001  0.83624  1.0000
  C   C143      1.0  0.66164  0.82578  0.82516  1.0000
  C   C144      1.0  0.57712  0.29246  0.86546  1.0000
  C   C145      1.0  0.69502  0.7658300000000001  0.76212  1.0000
  C   C146      1.0  0.17422  0.28071000000000007  0.87257  1.0000
  C   C147      1.0  0.96208  0.00599  0.81689  1.0000
  C   C148      1.0  0.64767  0.26217  0.6269  1.0000
  C   C149      1.0  0.22009  0.41726  0.86764  1.0000
  C   C150      1.0  0.60087  0.29842  0.59369  1.0000
  C   C151      1.0  0.6088400000000002  0.59529  0.80691  1.0000
  C   C152      1.0  0.32676  0.2908800000000001  0.92358  1.0000
  C   C153      1.0  0.22929  0.21864000000000003  0.90101  1.0000
  C   C154      1.0  0.4122199999999999  0.30954  0.55128  1.0000
  C   C155      1.0  0.06289  0.07473000000000002  0.83899  1.0000
  C   C156      1.0  0.47319  0.5040000000000001  0.9434300000000001  1.0000
  N   N1        1.0  0.26044  0.49662  0.71832  1.0000
  N   N2        1.0  0.49665999999999993  0.26038  0.28167  1.0000
  N   N3        1.0  0.9966100000000001  0.7606500000000002  0.21831  1.0000
  N   N4        1.0  0.7606  0.9965400000000001  0.7817  1.0000
  O   O1        1.0  0.01291000000000004  0.5373200000000001  0.6111  1.0000
  O   O2        1.0  0.052009999999999994  0.94069  0.53885  1.0000
  O   O3        1.0  0.89702  0.46745  0.66287  1.0000
  O   O4        1.0  0.81782  0.71415  0.96317  1.0000
  O   O5        1.0  0.96103  0.9137300000000002  0.9628599999999999  1.0000
  O   O6        1.0  0.98735  0.12553  0.55354  1.0000
  O   O7        1.0  0.53725  0.0129  0.3889  1.0000
  O   O8        1.0  0.9400500000000002  0.052060000000000016  0.4611  1.0000
  O   O9        1.0  0.46741000000000005  0.8969000000000003  0.33713  1.0000
  O   O10       1.0  0.71379  0.81849  0.03682  1.0000
  O   O11       1.0  0.9139900000000001  0.9608100000000002  0.0371  1.0000
  O   O12       1.0  0.12535000000000004  0.988  0.44647  1.0000
  O   O13       1.0  0.037210000000000014  0.51291  0.11109  1.0000
  O   O14       1.0  0.44164000000000003  0.54589  0.03849  1.0000
  O   O15       1.0  0.96744  0.39713  0.16287  1.0000
  O   O16       1.0  0.22574999999999998  0.3107600000000001  0.46130999999999994  1.0000
  O   O17       1.0  0.41562000000000004  0.46782  0.46297  1.0000
  O   O18       1.0  0.62961  0.48748  0.05375  1.0000
  O   O19       1.0  0.51293  0.03728  0.8889099999999999  1.0000
  O   O20       1.0  0.546  0.442  0.9615  1.0000
  O   O21       1.0  0.3971700000000001  0.9674000000000001  0.83712  1.0000
  O   O22       1.0  0.30784  0.22704  0.53894  1.0000
  O   O23       1.0  0.46724  0.41536  0.537  1.0000
  O   O24       1.0  0.48737  0.62995  0.9462899999999999  1.0000
