data_image0
_chemical_formula_structural       Cu8H96C128O48
_chemical_formula_sum              "Cu8 H96 C128 O48"
_cell_length_a       6.54768
_cell_length_b       27.36441
_cell_length_c       27.36441
_cell_angle_alpha    90.0
_cell_angle_beta     90.0
_cell_angle_gamma    90.0

_symmetry_space_group_name_H-M    'P 1'
_symmetry_Int_Tables_number       1

loop_
  _symmetry_equiv_pos_as_xyz
  'x,y,z'

loop_
  _atom_site_type_symbol
  _atom_site_label
  _atom_site_symmetry_multiplicity
  _atom_site_fract_x
  _atom_site_fract_y
  _atom_site_fract_z
  _atom_site_occupancy
  Cu  Cu1       1.0  0.15025  0.51917  0.01917  1.0000
  Cu  Cu2       1.0  0.15025  0.98082  0.48083  1.0000
  Cu  Cu3       1.0  0.15025  0.48083  0.51917  1.0000
  Cu  Cu4       1.0  0.15025  0.01917  0.98082  1.0000
  Cu  Cu5       1.0  0.8497499999999999  0.98082  0.01917  1.0000
  Cu  Cu6       1.0  0.8497499999999999  0.51917  0.48083  1.0000
  Cu  Cu7       1.0  0.8497499999999999  0.01917  0.51917  1.0000
  Cu  Cu8       1.0  0.8497499999999999  0.48083  0.98082  1.0000
  H   H1        1.0  0.47434000000000004  0.4496  0.106  1.0000
  H   H2        1.0  0.8050200000000001  0.5249  0.25109  1.0000
  H   H3        1.0  0.96953  0.53158  0.16864  1.0000
  H   H4        1.0  0.04659  0.395  0.16889  1.0000
  H   H5        1.0  0.27887  0.38604  0.13496  1.0000
  H   H6        1.0  0.13168  0.44079000000000007  0.12685  1.0000
  H   H7        1.0  0.47434000000000004  0.0504  0.394  1.0000
  H   H8        1.0  0.8050200000000001  0.9750900000000001  0.24891  1.0000
  H   H9        1.0  0.96953  0.96842  0.33136  1.0000
  H   H10       1.0  0.04659  0.10499  0.3311000000000001  1.0000
  H   H11       1.0  0.27887  0.11396  0.36504  1.0000
  H   H12       1.0  0.13168  0.059210000000000006  0.37315  1.0000
  H   H13       1.0  0.47434000000000004  0.394  0.4496  1.0000
  H   H14       1.0  0.8050200000000001  0.24891  0.5249  1.0000
  H   H15       1.0  0.96953  0.33136  0.53158  1.0000
  H   H16       1.0  0.04659  0.3311000000000001  0.395  1.0000
  H   H17       1.0  0.27887  0.36504  0.38604  1.0000
  H   H18       1.0  0.13168  0.37315  0.44079000000000007  1.0000
  H   H19       1.0  0.47434000000000004  0.106  0.0504  1.0000
  H   H20       1.0  0.8050200000000001  0.25109  0.9750900000000001  1.0000
  H   H21       1.0  0.96953  0.16864  0.96842  1.0000
  H   H22       1.0  0.04659  0.1689  0.10499  1.0000
  H   H23       1.0  0.27887  0.13496  0.11396  1.0000
  H   H24       1.0  0.13168  0.12685  0.059210000000000006  1.0000
  H   H25       1.0  0.52565  0.0504  0.106  1.0000
  H   H26       1.0  0.19498  0.9750900000000001  0.25109  1.0000
  H   H27       1.0  0.03047  0.96842  0.16864  1.0000
  H   H28       1.0  0.95341  0.10499  0.1689  1.0000
  H   H29       1.0  0.72113  0.11396  0.13496  1.0000
  H   H30       1.0  0.86832  0.059210000000000006  0.12685  1.0000
  H   H31       1.0  0.52566  0.4496  0.394  1.0000
  H   H32       1.0  0.19498  0.5249  0.24891  1.0000
  H   H33       1.0  0.03047  0.53158  0.33136  1.0000
  H   H34       1.0  0.95341  0.395  0.3311000000000001  1.0000
  H   H35       1.0  0.72113  0.38604  0.36504  1.0000
  H   H36       1.0  0.86832  0.44079000000000007  0.37315  1.0000
  H   H37       1.0  0.52566  0.106  0.4496  1.0000
  H   H38       1.0  0.19498  0.25109  0.5249  1.0000
  H   H39       1.0  0.03047  0.16864  0.53158  1.0000
  H   H40       1.0  0.95341  0.1689  0.395  1.0000
  H   H41       1.0  0.72113  0.13496  0.38604  1.0000
  H   H42       1.0  0.86832  0.12685  0.44079000000000007  1.0000
  H   H43       1.0  0.52566  0.394  0.0504  1.0000
  H   H44       1.0  0.19498  0.24891  0.9750900000000001  1.0000
  H   H45       1.0  0.03047  0.33136  0.96842  1.0000
  H   H46       1.0  0.95341  0.3311000000000001  0.10499  1.0000
  H   H47       1.0  0.72113  0.36504  0.11396  1.0000
  H   H48       1.0  0.86832  0.37315  0.059210000000000006  1.0000
  H   H49       1.0  0.52565  0.5504  0.894  1.0000
  H   H50       1.0  0.19498  0.47509  0.74891  1.0000
  H   H51       1.0  0.03047  0.46842  0.83136  1.0000
  H   H52       1.0  0.95341  0.60499  0.8311  1.0000
  H   H53       1.0  0.72113  0.6139600000000001  0.8650400000000001  1.0000
  H   H54       1.0  0.86832  0.55921  0.8731500000000001  1.0000
  H   H55       1.0  0.52566  0.94959  0.606  1.0000
  H   H56       1.0  0.19498  0.024910000000000005  0.75109  1.0000
  H   H57       1.0  0.03047  0.03158  0.66863  1.0000
  H   H58       1.0  0.95341  0.895  0.6688900000000001  1.0000
  H   H59       1.0  0.72113  0.88604  0.63496  1.0000
  H   H60       1.0  0.86832  0.94079  0.62685  1.0000
  H   H61       1.0  0.52566  0.606  0.5504  1.0000
  H   H62       1.0  0.19498  0.75109  0.47509  1.0000
  H   H63       1.0  0.03047  0.66863  0.46842  1.0000
  H   H64       1.0  0.95341  0.6688900000000001  0.60499  1.0000
  H   H65       1.0  0.72113  0.63496  0.6139600000000001  1.0000
  H   H66       1.0  0.86832  0.62685  0.55921  1.0000
  H   H67       1.0  0.52566  0.894  0.94959  1.0000
  H   H68       1.0  0.19498  0.74891  0.024910000000000005  1.0000
  H   H69       1.0  0.03047  0.83136  0.03158  1.0000
  H   H70       1.0  0.95341  0.8311  0.895  1.0000
  H   H71       1.0  0.72113  0.8650400000000001  0.88604  1.0000
  H   H72       1.0  0.86832  0.8731500000000001  0.94079  1.0000
  H   H73       1.0  0.47434000000000004  0.94959  0.894  1.0000
  H   H74       1.0  0.8050200000000001  0.024910000000000005  0.74891  1.0000
  H   H75       1.0  0.96953  0.03158  0.83136  1.0000
  H   H76       1.0  0.04659  0.895  0.8311  1.0000
  H   H77       1.0  0.27887  0.88604  0.8650400000000001  1.0000
  H   H78       1.0  0.13168  0.94079  0.8731500000000001  1.0000
  H   H79       1.0  0.47434000000000004  0.5504  0.606  1.0000
  H   H80       1.0  0.8050200000000001  0.47509  0.75109  1.0000
  H   H81       1.0  0.96953  0.46842  0.66863  1.0000
  H   H82       1.0  0.04659  0.60499  0.6688900000000001  1.0000
  H   H83       1.0  0.27887  0.6139600000000001  0.63496  1.0000
  H   H84       1.0  0.13168  0.55921  0.62685  1.0000
  H   H85       1.0  0.47434000000000004  0.894  0.5504  1.0000
  H   H86       1.0  0.8050200000000001  0.74891  0.47509  1.0000
  H   H87       1.0  0.96953  0.83136  0.46842  1.0000
  H   H88       1.0  0.04659  0.8311  0.60499  1.0000
  H   H89       1.0  0.27887  0.8650400000000001  0.6139600000000001  1.0000
  H   H90       1.0  0.13168  0.8731500000000001  0.55921  1.0000
  H   H91       1.0  0.47434000000000004  0.606  0.94959  1.0000
  H   H92       1.0  0.8050200000000001  0.75109  0.024910000000000005  1.0000
  H   H93       1.0  0.96953  0.66863  0.03158  1.0000
  H   H94       1.0  0.04659  0.6688900000000001  0.895  1.0000
  H   H95       1.0  0.27887  0.63496  0.88604  1.0000
  H   H96       1.0  0.13168  0.62685  0.94079  1.0000
  C   C1        1.0  0.83296  0.49276  0.08427000000000001  1.0000
  C   C2        1.0  0.73262  0.49009  0.13295  1.0000
  C   C3        1.0  0.5466  0.46499  0.13827  1.0000
  C   C4        1.0  0.45739  0.46085  0.18462  1.0000
  C   C5        1.0  0.55037  0.48307  0.22565000000000004  1.0000
  C   C6        1.0  0.7351499999999999  0.50799  0.21922  1.0000
  C   C7        1.0  0.82669  0.51188  0.1735  1.0000
  C   C8        1.0  0.18083  0.413  0.15334000000000003  1.0000
  C   C9        1.0  0.83296  0.00724  0.41572  1.0000
  C   C10       1.0  0.73262  0.00991  0.36705  1.0000
  C   C11       1.0  0.5466  0.03501  0.36173  1.0000
  C   C12       1.0  0.45739  0.03915  0.31538  1.0000
  C   C13       1.0  0.55037  0.01693  0.27435  1.0000
  C   C14       1.0  0.7351499999999999  0.992  0.28078  1.0000
  C   C15       1.0  0.82669  0.98811  0.3265  1.0000
  C   C16       1.0  0.18083  0.08700000000000002  0.34665  1.0000
  C   C17       1.0  0.83296  0.41572  0.49276  1.0000
  C   C18       1.0  0.73262  0.36705  0.49009  1.0000
  C   C19       1.0  0.5466  0.36173  0.46499  1.0000
  C   C20       1.0  0.45739  0.31538  0.46085  1.0000
  C   C21       1.0  0.55037  0.27435  0.48307  1.0000
  C   C22       1.0  0.7351499999999999  0.28078  0.50799  1.0000
  C   C23       1.0  0.82669  0.3265  0.51188  1.0000
  C   C24       1.0  0.18083  0.34665  0.413  1.0000
  C   C25       1.0  0.83296  0.08427000000000001  0.00724  1.0000
  C   C26       1.0  0.73262  0.13295  0.00991  1.0000
  C   C27       1.0  0.5466  0.13827  0.03501  1.0000
  C   C28       1.0  0.45739  0.18462  0.03915  1.0000
  C   C29       1.0  0.55037  0.22565000000000004  0.01693  1.0000
  C   C30       1.0  0.7351499999999999  0.21922  0.992  1.0000
  C   C31       1.0  0.82669  0.1735  0.98811  1.0000
  C   C32       1.0  0.18083  0.15334000000000003  0.08700000000000002  1.0000
  C   C33       1.0  0.16704  0.00724  0.08427000000000001  1.0000
  C   C34       1.0  0.26738  0.00991  0.13295  1.0000
  C   C35       1.0  0.4534  0.03501  0.13827  1.0000
  C   C36       1.0  0.54261  0.03915  0.18462  1.0000
  C   C37       1.0  0.44963  0.01693  0.22565000000000004  1.0000
  C   C38       1.0  0.26485  0.992  0.21922  1.0000
  C   C39       1.0  0.17330999999999996  0.98811  0.1735  1.0000
  C   C40       1.0  0.81917  0.08700000000000002  0.15334000000000003  1.0000
  C   C41       1.0  0.16704  0.49276  0.41572  1.0000
  C   C42       1.0  0.26738  0.49009  0.36705  1.0000
  C   C43       1.0  0.4534  0.46499  0.36173  1.0000
  C   C44       1.0  0.54261  0.46085  0.31538  1.0000
  C   C45       1.0  0.44963  0.48307  0.27435  1.0000
  C   C46       1.0  0.26485  0.50799  0.28078  1.0000
  C   C47       1.0  0.17330999999999996  0.51188  0.3265  1.0000
  C   C48       1.0  0.81917  0.413  0.34665  1.0000
  C   C49       1.0  0.16704  0.08427000000000001  0.49276  1.0000
  C   C50       1.0  0.26738  0.13295  0.49009  1.0000
  C   C51       1.0  0.4534  0.13827  0.46499  1.0000
  C   C52       1.0  0.54261  0.18462  0.46085  1.0000
  C   C53       1.0  0.44963  0.22565000000000004  0.48307  1.0000
  C   C54       1.0  0.26485  0.21922  0.50799  1.0000
  C   C55       1.0  0.17330999999999996  0.1735  0.51188  1.0000
  C   C56       1.0  0.81917  0.15334000000000003  0.413  1.0000
  C   C57       1.0  0.16704  0.41572  0.00724  1.0000
  C   C58       1.0  0.26738  0.36705  0.00991  1.0000
  C   C59       1.0  0.4534  0.36173  0.03501  1.0000
  C   C60       1.0  0.54261  0.31538  0.03915  1.0000
  C   C61       1.0  0.44963  0.27435  0.01693  1.0000
  C   C62       1.0  0.26485  0.28078  0.992  1.0000
  C   C63       1.0  0.17330999999999996  0.3265  0.98811  1.0000
  C   C64       1.0  0.81917  0.34665  0.08700000000000002  1.0000
  C   C65       1.0  0.16704  0.50724  0.91572  1.0000
  C   C66       1.0  0.26738  0.50991  0.86704  1.0000
  C   C67       1.0  0.4534  0.535  0.86173  1.0000
  C   C68       1.0  0.54261  0.53915  0.8153800000000001  1.0000
  C   C69       1.0  0.44963  0.51692  0.77435  1.0000
  C   C70       1.0  0.26485  0.492  0.7807800000000001  1.0000
  C   C71       1.0  0.17330999999999996  0.48811  0.8265  1.0000
  C   C72       1.0  0.81917  0.587  0.84665  1.0000
  C   C73       1.0  0.16704  0.99276  0.58427  1.0000
  C   C74       1.0  0.26738  0.99009  0.6329500000000001  1.0000
  C   C75       1.0  0.4534  0.96499  0.63827  1.0000
  C   C76       1.0  0.54261  0.96085  0.68462  1.0000
  C   C77       1.0  0.44963  0.98307  0.7256500000000001  1.0000
  C   C78       1.0  0.26485  0.008  0.71922  1.0000
  C   C79       1.0  0.17330999999999996  0.01189  0.6735  1.0000
  C   C80       1.0  0.81917  0.913  0.65334  1.0000
  C   C81       1.0  0.16704  0.58427  0.50724  1.0000
  C   C82       1.0  0.26738  0.6329500000000001  0.50991  1.0000
  C   C83       1.0  0.4534  0.63827  0.535  1.0000
  C   C84       1.0  0.54261  0.68462  0.53915  1.0000
  C   C85       1.0  0.44963  0.7256500000000001  0.51692  1.0000
  C   C86       1.0  0.26485  0.71922  0.492  1.0000
  C   C87       1.0  0.17330999999999996  0.6735  0.48811  1.0000
  C   C88       1.0  0.81917  0.65334  0.587  1.0000
  C   C89       1.0  0.16704  0.91572  0.99276  1.0000
  C   C90       1.0  0.26738  0.86704  0.99009  1.0000
  C   C91       1.0  0.4534  0.86173  0.96499  1.0000
  C   C92       1.0  0.54261  0.8153800000000001  0.96085  1.0000
  C   C93       1.0  0.44963  0.77435  0.98307  1.0000
  C   C94       1.0  0.26485  0.7807800000000001  0.008  1.0000
  C   C95       1.0  0.17330999999999996  0.8265  0.01189  1.0000
  C   C96       1.0  0.81917  0.84665  0.913  1.0000
  C   C97       1.0  0.83296  0.99276  0.91572  1.0000
  C   C98       1.0  0.73262  0.99009  0.86704  1.0000
  C   C99       1.0  0.5466  0.96499  0.86173  1.0000
  C   C100      1.0  0.45739  0.96085  0.8153800000000001  1.0000
  C   C101      1.0  0.55037  0.98307  0.77435  1.0000
  C   C102      1.0  0.7351499999999999  0.008  0.7807800000000001  1.0000
  C   C103      1.0  0.82669  0.01189  0.8265  1.0000
  C   C104      1.0  0.18083  0.913  0.84665  1.0000
  C   C105      1.0  0.83296  0.50724  0.58427  1.0000
  C   C106      1.0  0.73262  0.50991  0.6329500000000001  1.0000
  C   C107      1.0  0.5466  0.535  0.63827  1.0000
  C   C108      1.0  0.45739  0.53915  0.68462  1.0000
  C   C109      1.0  0.55037  0.51692  0.7256500000000001  1.0000
  C   C110      1.0  0.7351499999999999  0.492  0.71922  1.0000
  C   C111      1.0  0.82669  0.48811  0.6735  1.0000
  C   C112      1.0  0.18083  0.587  0.65334  1.0000
  C   C113      1.0  0.83296  0.91572  0.50724  1.0000
  C   C114      1.0  0.73262  0.86704  0.50991  1.0000
  C   C115      1.0  0.5466  0.86173  0.535  1.0000
  C   C116      1.0  0.45739  0.8153800000000001  0.53915  1.0000
  C   C117      1.0  0.55037  0.77435  0.51692  1.0000
  C   C118      1.0  0.7351499999999999  0.7807800000000001  0.492  1.0000
  C   C119      1.0  0.82669  0.8265  0.48811  1.0000
  C   C120      1.0  0.18083  0.84665  0.587  1.0000
  C   C121      1.0  0.83296  0.58427  0.99276  1.0000
  C   C122      1.0  0.73262  0.6329500000000001  0.99009  1.0000
  C   C123      1.0  0.5466  0.63827  0.96499  1.0000
  C   C124      1.0  0.45739  0.68462  0.96085  1.0000
  C   C125      1.0  0.55037  0.7256500000000001  0.98307  1.0000
  C   C126      1.0  0.7351499999999999  0.71922  0.008  1.0000
  C   C127      1.0  0.82669  0.6735  0.01189  1.0000
  C   C128      1.0  0.18083  0.65334  0.913  1.0000
  O   O1        1.0  0.01148  0.51217  0.08280000000000003  1.0000
  O   O2        1.0  0.73657  0.47496  0.04754  1.0000
  O   O3        1.0  0.28285  0.43515000000000004  0.19407  1.0000
  O   O4        1.0  0.01148  0.98783  0.4172  1.0000
  O   O5        1.0  0.73657  0.025040000000000003  0.45246000000000003  1.0000
  O   O6        1.0  0.28285  0.06485  0.30593  1.0000
  O   O7        1.0  0.01148  0.4172  0.51217  1.0000
  O   O8        1.0  0.73657  0.45246000000000003  0.47496  1.0000
  O   O9        1.0  0.28285  0.30593  0.43515000000000004  1.0000
  O   O10       1.0  0.01148  0.08280000000000003  0.98783  1.0000
  O   O11       1.0  0.73657  0.04754  0.025040000000000003  1.0000
  O   O12       1.0  0.28285  0.19407  0.06485  1.0000
  O   O13       1.0  0.98852  0.98783  0.08280000000000003  1.0000
  O   O14       1.0  0.26343  0.025040000000000003  0.04754  1.0000
  O   O15       1.0  0.71715  0.06485  0.19407  1.0000
  O   O16       1.0  0.98852  0.51217  0.4172  1.0000
  O   O17       1.0  0.26343  0.47496  0.45246000000000003  1.0000
  O   O18       1.0  0.71715  0.43515000000000004  0.30593  1.0000
  O   O19       1.0  0.98852  0.08280000000000003  0.51217  1.0000
  O   O20       1.0  0.26343  0.04754  0.47496  1.0000
  O   O21       1.0  0.71715  0.19407  0.43515000000000004  1.0000
  O   O22       1.0  0.98852  0.4172  0.98783  1.0000
  O   O23       1.0  0.26343  0.45246000000000003  0.025040000000000003  1.0000
  O   O24       1.0  0.71715  0.30593  0.06485  1.0000
  O   O25       1.0  0.98852  0.48783  0.9172  1.0000
  O   O26       1.0  0.26343  0.52504  0.95246  1.0000
  O   O27       1.0  0.71715  0.56485  0.80593  1.0000
  O   O28       1.0  0.98852  0.01217  0.5828  1.0000
  O   O29       1.0  0.26343  0.97496  0.54754  1.0000
  O   O30       1.0  0.71715  0.93515  0.6940700000000001  1.0000
  O   O31       1.0  0.98852  0.5828  0.48783  1.0000
  O   O32       1.0  0.26343  0.54754  0.52504  1.0000
  O   O33       1.0  0.71715  0.6940700000000001  0.56485  1.0000
  O   O34       1.0  0.98852  0.9172  0.01217  1.0000
  O   O35       1.0  0.26343  0.95246  0.97496  1.0000
  O   O36       1.0  0.71715  0.80593  0.93515  1.0000
  O   O37       1.0  0.01148  0.01217  0.9172  1.0000
  O   O38       1.0  0.73657  0.97496  0.95246  1.0000
  O   O39       1.0  0.28285  0.93515  0.80593  1.0000
  O   O40       1.0  0.01148  0.48783  0.5828  1.0000
  O   O41       1.0  0.73657  0.52504  0.54754  1.0000
  O   O42       1.0  0.28285  0.56485  0.6940700000000001  1.0000
  O   O43       1.0  0.01148  0.9172  0.48783  1.0000
  O   O44       1.0  0.73657  0.95246  0.52504  1.0000
  O   O45       1.0  0.28285  0.80593  0.56485  1.0000
  O   O46       1.0  0.01148  0.5828  0.01217  1.0000
  O   O47       1.0  0.73657  0.54754  0.97496  1.0000
  O   O48       1.0  0.28285  0.6940700000000001  0.93515  1.0000
