data_image0
_chemical_formula_structural       Mn12H100C168S12O76
_chemical_formula_sum              "Mn12 H100 C168 S12 O76"
_cell_length_a       15.52032
_cell_length_b       18.65481
_cell_length_c       24.07876
_cell_angle_alpha    89.97852
_cell_angle_beta     101.1532
_cell_angle_gamma    90.20247

_space_group_name_H-M_alt    "P 1"
_space_group_IT_number       1

loop_
  _space_group_symop_operation_xyz
  'x, y, z'

loop_
  _atom_site_type_symbol
  _atom_site_label
  _atom_site_symmetry_multiplicity
  _atom_site_fract_x
  _atom_site_fract_y
  _atom_site_fract_z
  _atom_site_occupancy
  Mn  Mn1       1.0  0.43819  0.93297  0.51705  1.0000
  Mn  Mn2       1.0  0.59087  0.8822800000000001  0.41498  1.0000
  Mn  Mn3       1.0  0.52904  0.76322  0.51029  1.0000
  Mn  Mn4       1.0  0.06324999999999992  0.43404  0.9827499999999999  1.0000
  Mn  Mn5       1.0  0.91095  0.38221  0.0859  1.0000
  Mn  Mn6       1.0  0.97065  0.26414  0.9900999999999999  1.0000
  Mn  Mn7       1.0  0.56177  0.06696  0.48286  1.0000
  Mn  Mn8       1.0  0.40925  0.11800999999999999  0.58486  1.0000
  Mn  Mn9       1.0  0.47105  0.23688000000000003  0.48966999999999994  1.0000
  Mn  Mn10      1.0  0.93676  0.56597  0.01725  1.0000
  Mn  Mn11      1.0  0.08905999999999997  0.61779  0.91411  1.0000
  Mn  Mn12      1.0  0.02935  0.73586  0.0099  1.0000
  H   H1        1.0  0.59108  0.89144  0.51927  1.0000
  H   H2        1.0  0.24998000000000006  0.89681  0.51208  1.0000
  H   H3        1.0  0.16499  0.78769  0.5283  1.0000
  H   H4        1.0  0.15681  0.86218  0.69661  1.0000
  H   H5        1.0  0.24676000000000003  0.9699099999999999  0.68081  1.0000
  H   H6        1.0  0.01471999999999999  0.78176  0.5068  1.0000
  H   H7        1.0  0.8593400000000002  0.79998  0.46047  1.0000
  H   H8        1.0  0.77702  0.7525  0.61738  1.0000
  H   H9        1.0  0.93505  0.73807  0.66548  1.0000
  H   H10       1.0  0.46458  0.92924  0.68602  1.0000
  H   H11       1.0  0.4627  0.9204800000000001  0.79  1.0000
  H   H12       1.0  0.4876  0.69049  0.78039  1.0000
  H   H13       1.0  0.49739000000000005  0.70019  0.67937  1.0000
  H   H14       1.0  0.62565  0.8791199999999999  0.92209  1.0000
  H   H15       1.0  0.77978  0.83914  0.96341  1.0000
  H   H16       1.0  0.7097300000000002  0.62284  0.91124  1.0000
  H   H17       1.0  0.55538  0.66123  0.87315  1.0000
  H   H18       1.0  0.65758  0.08482  0.70226  1.0000
  H   H19       1.0  0.81819  0.07703  0.7462099999999999  1.0000
  H   H20       1.0  0.8589999999999999  0.93692  0.61153  1.0000
  H   H21       1.0  0.70124  0.9489599999999999  0.56622  1.0000
  H   H22       1.0  0.95671  0.00715  0.8287999999999999  1.0000
  H   H23       1.0  0.98588  0.9109199999999998  0.90305  1.0000
  H   H24       1.0  0.03570999999999999  0.76033  0.7777  1.0000
  H   H25       1.0  0.004560000000000006  0.85521  0.70358  1.0000
  H   H26       1.0  0.9106400000000003  0.39355  0.98198  1.0000
  H   H27       1.0  0.25252  0.39971  0.98856  1.0000
  H   H28       1.0  0.33661000000000013  0.29056  0.9725299999999999  1.0000
  H   H29       1.0  0.34337999999999996  0.36343  0.8035799999999998  1.0000
  H   H30       1.0  0.25411  0.4711199999999999  0.81904  1.0000
  H   H31       1.0  0.48525  0.28274  0.99382  1.0000
  H   H32       1.0  0.64052  0.3014  0.04022  1.0000
  H   H33       1.0  0.7228400000000001  0.25368  0.88346  1.0000
  H   H34       1.0  0.56493  0.23900999999999997  0.83528  1.0000
  H   H35       1.0  0.03478999999999997  0.42661  0.8135499999999999  1.0000
  H   H36       1.0  0.03908999999999999  0.41678  0.70997  1.0000
  H   H37       1.0  0.015349999999999994  0.18672  0.72114  1.0000
  H   H38       1.0  0.003599999999999948  0.19746  0.8218699999999999  1.0000
  H   H39       1.0  0.87891  0.37751  0.57857  1.0000
  H   H40       1.0  0.72392  0.33932  0.5368  1.0000
  H   H41       1.0  0.78761  0.12227  0.58873  1.0000
  H   H42       1.0  0.94273  0.15884  0.62756  1.0000
  H   H43       1.0  0.84494  0.58485  0.79791  1.0000
  H   H44       1.0  0.68449  0.5796  0.75339  1.0000
  H   H45       1.0  0.63885  0.43681999999999993  0.88573  1.0000
  H   H46       1.0  0.79675  0.4465700000000001  0.93152  1.0000
  H   H47       1.0  0.54397  0.50699  0.66828  1.0000
  H   H48       1.0  0.51351  0.40909  0.59535  1.0000
  H   H49       1.0  0.46395  0.26127  0.72299  1.0000
  H   H50       1.0  0.49595  0.35799  0.79568  1.0000
  H   H51       1.0  0.40902  0.10857000000000001  0.4807  1.0000
  H   H52       1.0  0.75017  0.10329  0.48799  1.0000
  H   H53       1.0  0.83506  0.21249  0.47171  1.0000
  H   H54       1.0  0.8432  0.13794  0.30341  1.0000
  H   H55       1.0  0.75339  0.03015  0.31929  1.0000
  H   H56       1.0  0.9852700000000001  0.21824999999999997  0.49319  1.0000
  H   H57       1.0  0.14064  0.2  0.53954  1.0000
  H   H58       1.0  0.22299  0.24748  0.38262  1.0000
  H   H59       1.0  0.06498  0.26194  0.33453  1.0000
  H   H60       1.0  0.53533  0.07077  0.31396  1.0000
  H   H61       1.0  0.53727  0.07953  0.20998  1.0000
  H   H62       1.0  0.51243  0.30952  0.21959  1.0000
  H   H63       1.0  0.50262  0.29983  0.32061  1.0000
  H   H64       1.0  0.37435  0.12089  0.07791  1.0000
  H   H65       1.0  0.22022  0.16087  0.0366  1.0000
  H   H66       1.0  0.29027  0.37717  0.08875999999999999  1.0000
  H   H67       1.0  0.44462  0.33877  0.12685  1.0000
  H   H68       1.0  0.34266  0.9157599999999999  0.29791  1.0000
  H   H69       1.0  0.18199  0.9231200000000002  0.25395  1.0000
  H   H70       1.0  0.14066000000000006  0.06315  0.38854  1.0000
  H   H71       1.0  0.29843  0.05142  0.43392  1.0000
  H   H72       1.0  0.04329999999999999  0.99284  0.17120999999999997  1.0000
  H   H73       1.0  0.01413  0.08907  0.09696  1.0000
  H   H74       1.0  0.9642899999999999  0.23967  0.22231  1.0000
  H   H75       1.0  0.99543  0.14478  0.29642  1.0000
  H   H76       1.0  0.08937  0.60645  0.01802  1.0000
  H   H77       1.0  0.74748  0.60029  0.011439999999999999  1.0000
  H   H78       1.0  0.66339  0.70944  0.02747  1.0000
  H   H79       1.0  0.6566299999999999  0.63658  0.19642  1.0000
  H   H80       1.0  0.7459  0.52889  0.18095999999999998  1.0000
  H   H81       1.0  0.51475  0.71726  0.006179999999999999  1.0000
  H   H82       1.0  0.35949  0.6986  0.95978  1.0000
  H   H83       1.0  0.27716  0.74632  0.11653999999999999  1.0000
  H   H84       1.0  0.43506000000000006  0.761  0.16471  1.0000
  H   H85       1.0  0.9652  0.57339  0.18644999999999998  1.0000
  H   H86       1.0  0.96093  0.58322  0.29004  1.0000
  H   H87       1.0  0.9846700000000002  0.81328  0.27887  1.0000
  H   H88       1.0  0.9964  0.80254  0.17813  1.0000
  H   H89       1.0  0.12116  0.62248  0.42147  1.0000
  H   H90       1.0  0.27615999999999996  0.66068  0.46321999999999997  1.0000
  H   H91       1.0  0.21245  0.8777100000000001  0.41127  1.0000
  H   H92       1.0  0.05732  0.84116  0.37247  1.0000
  H   H93       1.0  0.15507999999999997  0.41515  0.20208999999999996  1.0000
  H   H94       1.0  0.31553  0.42043  0.24662  1.0000
  H   H95       1.0  0.36115  0.56321  0.11428  1.0000
  H   H96       1.0  0.20326  0.55343  0.06848  1.0000
  H   H97       1.0  0.45608  0.4931  0.33174  1.0000
  H   H98       1.0  0.4865  0.59103  0.40464  1.0000
  H   H99       1.0  0.53602  0.73881  0.27696  1.0000
  H   H100      1.0  0.50408  0.64206  0.2043  1.0000
  C   C1        1.0  0.31197  0.9999  0.5866  1.0000
  C   C2        1.0  0.25458  0.93897  0.59574  1.0000
  C   C3        1.0  0.22972  0.88864  0.55227  1.0000
  C   C4        1.0  0.18093  0.82851  0.56088  1.0000
  C   C5        1.0  0.15472  0.82  0.61296  1.0000
  C   C6        1.0  0.17714  0.87052  0.65636  1.0000
  C   C7        1.0  0.22752000000000006  0.93015  0.64767  1.0000
  C   C8        1.0  0.9835900000000003  0.75976  0.58924  1.0000
  C   C9        1.0  0.96332  0.77664  0.53147  1.0000
  C   C10       1.0  0.87601  0.78676  0.50528  1.0000
  C   C11       1.0  0.8090899999999999  0.77773  0.5365  1.0000
  C   C12       1.0  0.82987  0.75963  0.5941  1.0000
  C   C13       1.0  0.9174  0.75164  0.62083  1.0000
  C   C14       1.0  0.7156599999999999  0.78878  0.50818  1.0000
  C   C15       1.0  0.48539999999999994  0.82233  0.61556  1.0000
  C   C16       1.0  0.48237000000000013  0.81539  0.67679  1.0000
  C   C17       1.0  0.47104  0.87763  0.70744  1.0000
  C   C18       1.0  0.46961  0.87305  0.76503  1.0000
  C   C19       1.0  0.47617  0.80568  0.79095  1.0000
  C   C20       1.0  0.48458  0.74297  0.7605199999999999  1.0000
  C   C21       1.0  0.48941  0.74817  0.70348  1.0000
  C   C22       1.0  0.58348  0.77264  0.89451  1.0000
  C   C23       1.0  0.64534  0.82347  0.9197399999999999  1.0000
  C   C24       1.0  0.73064  0.80122  0.94255  1.0000
  C   C25       1.0  0.75357  0.7289  0.93922  1.0000
  C   C26       1.0  0.69069  0.67863  0.91342  1.0000
  C   C27       1.0  0.60515  0.70008  0.89164  1.0000
  C   C28       1.0  0.84313  0.70253  0.96449  1.0000
  C   C29       1.0  0.57614  0.02632  0.60375  1.0000
  C   C30       1.0  0.66935  0.01621  0.63243  1.0000
  C   C31       1.0  0.7022  0.05196  0.6834999999999999  1.0000
  C   C32       1.0  0.791  0.04715  0.70805  1.0000
  C   C33       1.0  0.8463999999999999  0.00524  0.6818399999999999  1.0000
  C   C34       1.0  0.81439  0.96813  0.63155  1.0000
  C   C35       1.0  0.7259  0.97438  0.6068  1.0000
  C   C36       1.0  0.97773  0.93584  0.7621699999999999  1.0000
  C   C37       1.0  0.97226  0.95276  0.8180399999999999  1.0000
  C   C38       1.0  0.98915  0.8994699999999999  0.85926  1.0000
  C   C39       1.0  0.011569999999999981  0.83003  0.84473  1.0000
  C   C40       1.0  0.016810000000000005  0.81386  0.78853  1.0000
  C   C41       1.0  0.9995999999999999  0.8668100000000001  0.74705  1.0000
  C   C42       1.0  0.029840000000000054  0.77276  0.88885  1.0000
  C   C43       1.0  0.18959  0.50169  0.91346  1.0000
  C   C44       1.0  0.24722000000000005  0.44112000000000007  0.90453  1.0000
  C   C45       1.0  0.27233  0.39125  0.94828  1.0000
  C   C46       1.0  0.32053  0.33104  0.93975  1.0000
  C   C47       1.0  0.34596  0.32203  0.8875  1.0000
  C   C48       1.0  0.32347  0.37213  0.84388  1.0000
  C   C49       1.0  0.2736  0.43182  0.85246  1.0000
  C   C50       1.0  0.51618  0.26094  0.9113199999999999  1.0000
  C   C51       1.0  0.53661  0.27786  0.96912  1.0000
  C   C52       1.0  0.62398  0.28822  0.99539  1.0000
  C   C53       1.0  0.6910699999999999  0.27937  0.9643199999999998  1.0000
  C   C54       1.0  0.67009  0.26097  0.90675  1.0000
  C   C55       1.0  0.58252  0.2528  0.87991  1.0000
  C   C56       1.0  0.78474  0.29031  0.99266  1.0000
  C   C57       1.0  0.01347999999999997  0.32053  0.8845799999999999  1.0000
  C   C58       1.0  0.017459999999999972  0.31286  0.8235199999999999  1.0000
  C   C59       1.0  0.028999999999999998  0.37478  0.79246  1.0000
  C   C60       1.0  0.031749999999999994  0.36952  0.7351  1.0000
  C   C61       1.0  0.02608999999999998  0.30173  0.7097799999999999  1.0000
  C   C62       1.0  0.017519999999999984  0.23938  0.74064  1.0000
  C   C63       1.0  0.011499999999999965  0.24525  0.7974499999999999  1.0000
  C   C64       1.0  0.91788  0.27038  0.60611  1.0000
  C   C65       1.0  0.85778  0.3221  0.58081  1.0000
  C   C66       1.0  0.77194  0.30091  0.55776  1.0000
  C   C67       1.0  0.7469  0.22893999999999998  0.56089  1.0000
  C   C68       1.0  0.8081199999999998  0.17781  0.58674  1.0000
  C   C69       1.0  0.8940900000000002  0.19816  0.60885  1.0000
  C   C70       1.0  0.65673  0.20383  0.53536  1.0000
  C   C71       1.0  0.9239600000000003  0.52412  0.89596  1.0000
  C   C72       1.0  0.83075  0.5152  0.86668  1.0000
  C   C73       1.0  0.7991899999999998  0.55217  0.81607  1.0000
  C   C74       1.0  0.71035  0.54871  0.7911999999999999  1.0000
  C   C75       1.0  0.65356  0.50679  0.81661  1.0000
  C   C76       1.0  0.68432  0.4682799999999999  0.86636  1.0000
  C   C77       1.0  0.77287  0.47329999999999994  0.89144  1.0000
  C   C78       1.0  0.52268  0.43719  0.73593  1.0000
  C   C79       1.0  0.52815  0.45288999999999996  0.67985  1.0000
  C   C80       1.0  0.51056  0.39872  0.63936  1.0000
  C   C81       1.0  0.48773000000000005  0.32964  0.65484  1.0000
  C   C82       1.0  0.48298  0.31455  0.71132  1.0000
  C   C83       1.0  0.5007700000000003  0.36845  0.75202  1.0000
  C   C84       1.0  0.46865  0.27179  0.61122  1.0000
  C   C85       1.0  0.6887100000000003  9.999999999999992e-06  0.4135  1.0000
  C   C86       1.0  0.74567  0.06117  0.40436  1.0000
  C   C87       1.0  0.7704300000000001  0.11149999999999999  0.4477999999999999  1.0000
  C   C88       1.0  0.81915  0.17164  0.43916000000000005  1.0000
  C   C89       1.0  0.84532  0.18011  0.38706  1.0000
  C   C90       1.0  0.82291  0.1296  0.34365999999999997  1.0000
  C   C91       1.0  0.77263  0.06996  0.3524  1.0000
  C   C92       1.0  0.01643000000000001  0.24028  0.41076  1.0000
  C   C93       1.0  0.036689999999999945  0.22338  0.46853999999999996  1.0000
  C   C94       1.0  0.12399000000000006  0.21323  0.49472  1.0000
  C   C95       1.0  0.19092  0.22226  0.46351  1.0000
  C   C96       1.0  0.17015  0.24036  0.40592  1.0000
  C   C97       1.0  0.08261999999999997  0.24837999999999996  0.37917999999999996  1.0000
  C   C98       1.0  0.28436  0.21122  0.49182  1.0000
  C   C99       1.0  0.51459  0.17768  0.38442000000000004  1.0000
  C   C100      1.0  0.51762  0.18463  0.32318  1.0000
  C   C101      1.0  0.52893  0.12237000000000002  0.29254  1.0000
  C   C102      1.0  0.53036  0.12696  0.23495  1.0000
  C   C103      1.0  0.52383  0.19432  0.20904  1.0000
  C   C104      1.0  0.51543  0.25705  0.23947  1.0000
  C   C105      1.0  0.5106100000000002  0.25185  0.2965  1.0000
  C   C106      1.0  0.41653  0.22737000000000002  0.10549  1.0000
  C   C107      1.0  0.35466  0.17654  0.08025  1.0000
  C   C108      1.0  0.26936  0.19878  0.057449999999999994  1.0000
  C   C109      1.0  0.24643  0.27111  0.06078  1.0000
  C   C110      1.0  0.30931  0.32138  0.08657999999999999  1.0000
  C   C111      1.0  0.39486  0.29993  0.10836  1.0000
  C   C112      1.0  0.15687  0.29747  0.03551  1.0000
  C   C113      1.0  0.4238700000000001  0.97446  0.39629  1.0000
  C   C114      1.0  0.33059  0.98428  0.36771999999999994  1.0000
  C   C115      1.0  0.2979  0.9484700000000001  0.31666  1.0000
  C   C116      1.0  0.20909000000000005  0.9530700000000001  0.29209  1.0000
  C   C117      1.0  0.15354  0.9948599999999999  0.31826  1.0000
  C   C118      1.0  0.1854  0.03203  0.36855  1.0000
  C   C119      1.0  0.27389000000000013  0.02594  0.39335  1.0000
  C   C120      1.0  0.022269999999999984  0.06415  0.23783999999999997  1.0000
  C   C121      1.0  0.02774  0.04724  0.18197  1.0000
  C   C122      1.0  0.010849999999999999  0.10052  0.14075  1.0000
  C   C123      1.0  0.98843  0.16997  0.15528  1.0000
  C   C124      1.0  0.98319  0.18614  0.21148  1.0000
  C   C125      1.0  0.0003899999999999963  0.13319  0.25295  1.0000
  C   C126      1.0  0.97017  0.22724  0.11114999999999998  1.0000
  C   C127      1.0  0.81041  0.49831999999999993  0.08653  1.0000
  C   C128      1.0  0.75279  0.55889  0.09546  1.0000
  C   C129      1.0  0.7276700000000003  0.60876  0.05172  1.0000
  C   C130      1.0  0.67948  0.66897  0.06025  1.0000
  C   C131      1.0  0.65405  0.67798  0.11249999999999999  1.0000
  C   C132      1.0  0.67653  0.62787  0.15612  1.0000
  C   C133      1.0  0.7264  0.56818  0.14754  1.0000
  C   C134      1.0  0.4838199999999999  0.73907  0.08867  1.0000
  C   C135      1.0  0.4634  0.72214  0.03088  1.0000
  C   C136      1.0  0.37602  0.71178  0.00461  1.0000
  C   C137      1.0  0.30894  0.72063  0.03568  1.0000
  C   C138      1.0  0.32991  0.73904  0.09325  1.0000
  C   C139      1.0  0.41748000000000013  0.7472  0.12009  1.0000
  C   C140      1.0  0.21526  0.70969  0.007339999999999999  1.0000
  C   C141      1.0  0.98652  0.67947  0.11542  1.0000
  C   C142      1.0  0.9825400000000002  0.68715  0.17649  1.0000
  C   C143      1.0  0.97101  0.62522  0.20754  1.0000
  C   C144      1.0  0.96828  0.63049  0.26491  1.0000
  C   C145      1.0  0.97396  0.69827  0.29023  1.0000
  C   C146      1.0  0.98251  0.76062  0.25937  1.0000
  C   C147      1.0  0.9885100000000001  0.75475  0.20255  1.0000
  C   C148      1.0  0.08217999999999999  0.72961  0.39391  1.0000
  C   C149      1.0  0.14229  0.6779  0.41922  1.0000
  C   C150      1.0  0.22812999999999997  0.69908  0.44226  1.0000
  C   C151      1.0  0.25317  0.77106  0.43908  1.0000
  C   C152      1.0  0.19193  0.82218  0.41325999999999996  1.0000
  C   C153      1.0  0.10595  0.80183  0.39117999999999997  1.0000
  C   C154      1.0  0.3434100000000001  0.79621  0.46441  1.0000
  C   C155      1.0  0.07605  0.47587999999999997  0.10404  1.0000
  C   C156      1.0  0.16926  0.48480999999999996  0.13332  1.0000
  C   C157      1.0  0.20083  0.44784  0.18394  1.0000
  C   C158      1.0  0.28967  0.45132  0.2088  1.0000
  C   C159      1.0  0.34645  0.49325  0.1834  1.0000
  C   C160      1.0  0.31569  0.53175  0.13365  1.0000
  C   C161      1.0  0.22714  0.52672  0.10856  1.0000
  C   C162      1.0  0.47735  0.56287  0.26407  1.0000
  C   C163      1.0  0.47188  0.5472  0.32015  1.0000
  C   C164      1.0  0.48946  0.60139  0.36062999999999995  1.0000
  C   C165      1.0  0.51226  0.67048  0.34514  1.0000
  C   C166      1.0  0.517  0.68554  0.28865  1.0000
  C   C167      1.0  0.49924999999999997  0.63161  0.24796999999999997  1.0000
  C   C168      1.0  0.53131  0.72835  0.38876  1.0000
  S   S1        1.0  0.09448  0.74113  0.62339  1.0000
  S   S2        1.0  0.47403999999999996  0.80029  0.8647999999999999  1.0000
  S   S3        1.0  0.96163  0.00441  0.70962  1.0000
  S   S4        1.0  0.40479  0.24284  0.87696  1.0000
  S   S5        1.0  0.028289999999999985  0.29543  0.63601  1.0000
  S   S6        1.0  0.53857  0.50658  0.78783  1.0000
  S   S7        1.0  0.90554  0.25893  0.37661  1.0000
  S   S8        1.0  0.52597  0.19971  0.13519  1.0000
  S   S9        1.0  0.03832999999999999  0.9956100000000001  0.2904  1.0000
  S   S10       1.0  0.59522  0.75717  0.12304  1.0000
  S   S11       1.0  0.97176  0.70457  0.364  1.0000
  S   S12       1.0  0.46144  0.49346  0.21217999999999998  1.0000
  O   O1        1.0  0.45414999999999994  0.8798499999999999  0.59153  1.0000
  O   O2        1.0  0.857  0.63587  0.9611699999999999  1.0000
  O   O3        1.0  0.54132  0.8726100000000001  0.49202  1.0000
  O   O4        1.0  0.5543  0.99969  0.55275  1.0000
  O   O5        1.0  0.34641  0.00078  0.54146  1.0000
  O   O6        1.0  0.037980000000000055  0.70902  0.87232  1.0000
  O   O7        1.0  0.70045  0.82577  0.46338  1.0000
  O   O8        1.0  0.52364  0.06028  0.62786  1.0000
  O   O9        1.0  0.32738  0.05074  0.62227  1.0000
  O   O10       1.0  0.03511  0.79256  0.94064  1.0000
  O   O11       1.0  0.65762  0.76018  0.53369  1.0000
  O   O12       1.0  0.90027  0.74879  0.98867  1.0000
  O   O13       1.0  0.51963  0.77092  0.59167  1.0000
  O   O14       1.0  0.12572  0.68351  0.59153  1.0000
  O   O15       1.0  0.09507  0.73452  0.68397  1.0000
  O   O16       1.0  0.41544  0.74136  0.8727199999999999  1.0000
  O   O17       1.0  0.46251000000000003  0.8725200000000001  0.88535  1.0000
  O   O18       1.0  0.9827500000000002  0.07277  0.739  1.0000
  O   O19       1.0  0.004790000000000013  0.9819000000000001  0.66384  1.0000
  O   O20       1.0  0.04423000000000004  0.37835  0.90856  1.0000
  O   O21       1.0  0.64118  0.13729  0.5384  1.0000
  O   O22       1.0  0.96034  0.37376  0.00862  1.0000
  O   O23       1.0  0.94404  0.49803  0.94713  1.0000
  O   O24       1.0  0.15517000000000006  0.50223  0.95863  1.0000
  O   O25       1.0  0.45971  0.20828  0.62803  1.0000
  O   O26       1.0  0.8008300000000003  0.32671  0.03784  1.0000
  O   O27       1.0  0.97829  0.55657  0.87205  1.0000
  O   O28       1.0  0.17359  0.55224  0.87766  1.0000
  O   O29       1.0  0.4633100000000001  0.29103  0.55929  1.0000
  O   O30       1.0  0.84231  0.262  0.96677  1.0000
  O   O31       1.0  0.60074  0.2507  0.51143  1.0000
  O   O32       1.0  0.9787499999999999  0.26904  0.90838  1.0000
  O   O33       1.0  0.3723  0.18535  0.9085499999999999  1.0000
  O   O34       1.0  0.40366  0.23632999999999998  0.81631  1.0000
  O   O35       1.0  0.08314  0.23441999999999996  0.6276  1.0000
  O   O36       1.0  0.04371000000000001  0.36725  0.61603  1.0000
  O   O37       1.0  0.51929  0.57478  0.7580599999999998  1.0000
  O   O38       1.0  0.49353  0.4846  0.83301  1.0000
  O   O39       1.0  0.54581  0.12014999999999999  0.40845  1.0000
  O   O40       1.0  0.143  0.36414  0.03883  1.0000
  O   O41       1.0  0.4587  0.12745  0.50798  1.0000
  O   O42       1.0  0.44556  0.00052  0.44749  1.0000
  O   O43       1.0  0.65358  0.99904  0.45837999999999995  1.0000
  O   O44       1.0  0.96202  0.29098  0.12768  1.0000
  O   O45       1.0  0.29957  0.1742  0.53663  1.0000
  O   O46       1.0  0.47676000000000013  0.9414099999999999  0.37198  1.0000
  O   O47       1.0  0.67459  0.9489800000000002  0.37798  1.0000
  O   O48       1.0  0.96489  0.20744  0.059359999999999996  1.0000
  O   O49       1.0  0.34236000000000005  0.23982  0.46633  1.0000
  O   O50       1.0  0.09973  0.25122  0.01133  1.0000
  O   O51       1.0  0.48036  0.22909  0.40831  1.0000
  O   O52       1.0  0.8743  0.31655  0.40846  1.0000
  O   O53       1.0  0.90495  0.2655  0.31603  1.0000
  O   O54       1.0  0.58456  0.25865  0.12727  1.0000
  O   O55       1.0  0.5374900000000001  0.12749  0.11462  1.0000
  O   O56       1.0  0.017270000000000004  0.9272400000000001  0.26101  1.0000
  O   O57       1.0  0.99513  0.01811  0.33616  1.0000
  O   O58       1.0  0.95577  0.62165  0.09144  1.0000
  O   O59       1.0  0.35904  0.8627  0.46112  1.0000
  O   O60       1.0  0.039659999999999966  0.62624  0.99138  1.0000
  O   O61       1.0  0.05597  0.50198  0.05287  1.0000
  O   O62       1.0  0.84484  0.49777  0.04137  1.0000
  O   O63       1.0  0.5401500000000001  0.79189  0.37199  1.0000
  O   O64       1.0  0.19917999999999994  0.67329  0.9621599999999999  1.0000
  O   O65       1.0  0.021720000000000007  0.44344  0.12795  1.0000
  O   O66       1.0  0.82641  0.44777000000000006  0.12234  1.0000
  O   O67       1.0  0.53671  0.70902  0.44068  1.0000
  O   O68       1.0  0.1577  0.738  0.03323  1.0000
  O   O69       1.0  0.39938  0.74943  0.48855  1.0000
  O   O70       1.0  0.021249999999999998  0.73097  0.09161999999999998  1.0000
  O   O71       1.0  0.6277  0.81465  0.09145  1.0000
  O   O72       1.0  0.59634  0.76367  0.18369  1.0000
  O   O73       1.0  0.91692  0.7656  0.3724  1.0000
  O   O74       1.0  0.95632  0.63275  0.38397  1.0000
  O   O75       1.0  0.48072  0.42526  0.24194  1.0000
  O   O76       1.0  0.50647  0.51544  0.16699  1.0000
