data_image0
_chemical_formula_structural       Zn16H56C152O64
_chemical_formula_sum              "Zn16 H56 C152 O64"
_cell_length_a       10.66025
_cell_length_b       25.81586
_cell_length_c       26.49771
_cell_angle_alpha    90.0
_cell_angle_beta     89.99772999999999
_cell_angle_gamma    90.0

_symmetry_space_group_name_H-M    'P 1'
_symmetry_Int_Tables_number       1

loop_
  _symmetry_equiv_pos_as_xyz
  'x,y,z'

loop_
  _atom_site_type_symbol
  _atom_site_label
  _atom_site_symmetry_multiplicity
  _atom_site_fract_x
  _atom_site_fract_y
  _atom_site_fract_z
  _atom_site_occupancy
  Zn  Zn1       1.0  0.39016  0.42548  0.12768  1.0000
  Zn  Zn2       1.0  0.18479  0.50898  0.11488999999999999  1.0000
  Zn  Zn3       1.0  0.89013  0.57448  0.37234  1.0000
  Zn  Zn4       1.0  0.68498  0.4909899999999999  0.38504  1.0000
  Zn  Zn5       1.0  0.60985  0.92548  0.87231  1.0000
  Zn  Zn6       1.0  0.8152200000000001  0.00897  0.88511  1.0000
  Zn  Zn7       1.0  0.10988  0.07448  0.62765  1.0000
  Zn  Zn8       1.0  0.31503  0.99099  0.61495  1.0000
  Zn  Zn9       1.0  0.60985  0.57452  0.87231  1.0000
  Zn  Zn10      1.0  0.8152200000000001  0.49103  0.88511  1.0000
  Zn  Zn11      1.0  0.10988  0.42552  0.62765  1.0000
  Zn  Zn12      1.0  0.31503  0.50901  0.61495  1.0000
  Zn  Zn13      1.0  0.39016  0.07452  0.12768  1.0000
  Zn  Zn14      1.0  0.18479  0.99103  0.11488999999999999  1.0000
  Zn  Zn15      1.0  0.89013  0.9255199999999999  0.37234  1.0000
  Zn  Zn16      1.0  0.68498  0.00901  0.38504  1.0000
  H   H1        1.0  0.49736000000000014  0.6249  0.12527  1.0000
  H   H2        1.0  0.72383  0.66924  0.25318  1.0000
  H   H3        1.0  0.54289  0.52033  0.25056  1.0000
  H   H4        1.0  0.87006  0.53865  0.0061400000000000005  1.0000
  H   H5        1.0  0.87537  0.63551  0.13793  1.0000
  H   H6        1.0  0.60292  0.66338  0.02034  1.0000
  H   H7        1.0  0.9975600000000001  0.3750899999999999  0.37465  1.0000
  H   H8        1.0  0.22398  0.33085  0.24669999999999997  1.0000
  H   H9        1.0  0.04276  0.4797  0.24936  1.0000
  H   H10       1.0  0.37066000000000004  0.46111  0.49386  1.0000
  H   H11       1.0  0.37548000000000004  0.36444  0.3618799999999999  1.0000
  H   H12       1.0  0.10339  0.33648  0.47961  1.0000
  H   H13       1.0  0.50265  0.12489999999999998  0.87473  1.0000
  H   H14       1.0  0.27618  0.16923  0.74682  1.0000
  H   H15       1.0  0.45712  0.02033  0.7494300000000002  1.0000
  H   H16       1.0  0.12995  0.03865  0.99386  1.0000
  H   H17       1.0  0.12463  0.13551  0.8620700000000001  1.0000
  H   H18       1.0  0.39709  0.16337  0.9796500000000001  1.0000
  H   H19       1.0  0.00245  0.87509  0.6253499999999999  1.0000
  H   H20       1.0  0.7760300000000001  0.83085  0.75329  1.0000
  H   H21       1.0  0.9572400000000002  0.9797  0.75063  1.0000
  H   H22       1.0  0.62935  0.96111  0.50614  1.0000
  H   H23       1.0  0.6245300000000001  0.86444  0.63812  1.0000
  H   H24       1.0  0.89662  0.83648  0.52039  1.0000
  H   H25       1.0  0.50265  0.37510999999999994  0.87473  1.0000
  H   H26       1.0  0.27618  0.33077  0.74682  1.0000
  H   H27       1.0  0.45712  0.47967  0.7494300000000002  1.0000
  H   H28       1.0  0.12995  0.46135  0.99386  1.0000
  H   H29       1.0  0.12463  0.36449  0.8620700000000001  1.0000
  H   H30       1.0  0.39709  0.33663  0.9796500000000001  1.0000
  H   H31       1.0  0.00245  0.62491  0.6253499999999999  1.0000
  H   H32       1.0  0.7760300000000001  0.66916  0.75329  1.0000
  H   H33       1.0  0.9572400000000002  0.52031  0.75063  1.0000
  H   H34       1.0  0.62934  0.5389  0.50614  1.0000
  H   H35       1.0  0.6245300000000001  0.63556  0.63812  1.0000
  H   H36       1.0  0.89662  0.66352  0.52039  1.0000
  H   H37       1.0  0.49736000000000014  0.87511  0.12527  1.0000
  H   H38       1.0  0.72383  0.83077  0.25318  1.0000
  H   H39       1.0  0.54289  0.97967  0.25056  1.0000
  H   H40       1.0  0.87006  0.9613500000000001  0.0061400000000000005  1.0000
  H   H41       1.0  0.87537  0.8644899999999999  0.13793  1.0000
  H   H42       1.0  0.60292  0.83663  0.02034  1.0000
  H   H43       1.0  0.9975600000000001  0.12490999999999998  0.37465  1.0000
  H   H44       1.0  0.22398  0.16915  0.24669999999999997  1.0000
  H   H45       1.0  0.04276  0.0203  0.24936  1.0000
  H   H46       1.0  0.37066000000000004  0.03889  0.49386  1.0000
  H   H47       1.0  0.37548000000000004  0.13556  0.3618799999999999  1.0000
  H   H48       1.0  0.10339  0.16352  0.47961  1.0000
  H   H49       1.0  0.58275  0.75  0.22163000000000002  1.0000
  H   H50       1.0  0.75308  0.75  0.04818  1.0000
  H   H51       1.0  0.08298  0.25  0.2782  1.0000
  H   H52       1.0  0.25313  0.25  0.4517  1.0000
  H   H53       1.0  0.41725  0.25  0.77836  1.0000
  H   H54       1.0  0.24693  0.25  0.95181  1.0000
  H   H55       1.0  0.91703  0.75  0.7218  1.0000
  H   H56       1.0  0.74688  0.75  0.5483  1.0000
  C   C1        1.0  0.4355  0.52934  0.15793  1.0000
  C   C2        1.0  0.51321  0.56865  0.18482  1.0000
  C   C3        1.0  0.5376800000000002  0.61651  0.16207  1.0000
  C   C4        1.0  0.61494  0.6531300000000001  0.18596999999999997  1.0000
  C   C5        1.0  0.6625100000000002  0.64185  0.23407  1.0000
  C   C6        1.0  0.56154  0.55743  0.23264  1.0000
  C   C7        1.0  0.99876  0.55809  0.09276000000000001  1.0000
  C   C8        1.0  0.8834  0.58453  0.07411  1.0000
  C   C9        1.0  0.83019  0.57046  0.027830000000000004  1.0000
  C   C10       1.0  0.83234  0.62552  0.10199  1.0000
  C   C11       1.0  0.6754  0.58516  0.9593099999999999  1.0000
  C   C12       1.0  0.72773  0.59867  0.00919  1.0000
  C   C13       1.0  0.68018  0.6411600000000001  0.03622  1.0000
  C   C14       1.0  0.73182  0.65474  0.08296  1.0000
  C   C15       1.0  0.69139  0.70249  0.10989  1.0000
  C   C16       1.0  0.64499  0.7024299999999999  0.15986000000000003  1.0000
  C   C17       1.0  0.63471  0.59447  0.25756  1.0000
  C   C18       1.0  0.6904  0.58086  0.30743  1.0000
  C   C19       1.0  0.93546  0.47055  0.34209000000000006  1.0000
  C   C20       1.0  0.013220000000000003  0.43132999999999994  0.31513  1.0000
  C   C21       1.0  0.03779  0.3834600000000001  0.33783  1.0000
  C   C22       1.0  0.11509  0.34687999999999997  0.31392  1.0000
  C   C23       1.0  0.16266  0.35822  0.26584  1.0000
  C   C24       1.0  0.06142  0.44261000000000006  0.2673  1.0000
  C   C25       1.0  0.49885  0.44188  0.40717  1.0000
  C   C26       1.0  0.38356  0.41538  0.42581  1.0000
  C   C27       1.0  0.33066000000000006  0.42932  0.4722  1.0000
  C   C28       1.0  0.33249  0.37445  0.3978400000000001  1.0000
  C   C29       1.0  0.17572  0.41459999999999997  0.54076  1.0000
  C   C30       1.0  0.22828  0.40109  0.49089  1.0000
  C   C31       1.0  0.18062  0.35871  0.46374  1.0000
  C   C32       1.0  0.23202000000000006  0.34524  0.41691  1.0000
  C   C33       1.0  0.19151  0.2975  0.38997999999999994  1.0000
  C   C34       1.0  0.14516  0.29757  0.34001  1.0000
  C   C35       1.0  0.13467  0.40559  0.24239  1.0000
  C   C36       1.0  0.19036  0.41919  0.19253  1.0000
  C   C37       1.0  0.56451  0.02934  0.8420699999999999  1.0000
  C   C38       1.0  0.4868  0.06865  0.81518  1.0000
  C   C39       1.0  0.46233  0.11651  0.83793  1.0000
  C   C40       1.0  0.38507  0.15313  0.8140200000000001  1.0000
  C   C41       1.0  0.3375  0.14185  0.76593  1.0000
  C   C42       1.0  0.43847  0.05743  0.7673600000000002  1.0000
  C   C43       1.0  0.0012500000000000002  0.05809  0.90723  1.0000
  C   C44       1.0  0.11661000000000003  0.08453  0.92589  1.0000
  C   C45       1.0  0.16982  0.07045  0.97217  1.0000
  C   C46       1.0  0.16767000000000004  0.12552  0.898  1.0000
  C   C47       1.0  0.32461000000000007  0.08516  0.04068999999999999  1.0000
  C   C48       1.0  0.27228  0.09867  0.99081  1.0000
  C   C49       1.0  0.31983  0.14116  0.96378  1.0000
  C   C50       1.0  0.26819  0.15474  0.91703  1.0000
  C   C51       1.0  0.30861  0.20249  0.89011  1.0000
  C   C52       1.0  0.35501  0.20243  0.84014  1.0000
  C   C53       1.0  0.36530000000000007  0.09447000000000001  0.74243  1.0000
  C   C54       1.0  0.30961  0.08086  0.69256  1.0000
  C   C55       1.0  0.06455000000000001  0.97055  0.65791  1.0000
  C   C56       1.0  0.98679  0.93133  0.6848599999999999  1.0000
  C   C57       1.0  0.96222  0.88346  0.66217  1.0000
  C   C58       1.0  0.88491  0.84688  0.68608  1.0000
  C   C59       1.0  0.8373500000000003  0.85822  0.7341500000000001  1.0000
  C   C60       1.0  0.9385900000000001  0.9426099999999998  0.7327  1.0000
  C   C61       1.0  0.50116  0.94188  0.59283  1.0000
  C   C62       1.0  0.61645  0.9153799999999999  0.57419  1.0000
  C   C63       1.0  0.6693500000000001  0.92932  0.52779  1.0000
  C   C64       1.0  0.6675200000000001  0.87445  0.60216  1.0000
  C   C65       1.0  0.8242900000000002  0.9146  0.45923  1.0000
  C   C66       1.0  0.7717300000000001  0.9010899999999998  0.5091  1.0000
  C   C67       1.0  0.81939  0.8587099999999999  0.53626  1.0000
  C   C68       1.0  0.7679900000000001  0.8452399999999999  0.58309  1.0000
  C   C69       1.0  0.8085000000000002  0.7975  0.61001  1.0000
  C   C70       1.0  0.8548500000000001  0.7975700000000001  0.65999  1.0000
  C   C71       1.0  0.86534  0.90559  0.75761  1.0000
  C   C72       1.0  0.80965  0.91919  0.80746  1.0000
  C   C73       1.0  0.56451  0.4706600000000001  0.8420699999999999  1.0000
  C   C74       1.0  0.4868  0.43135  0.81518  1.0000
  C   C75       1.0  0.46233  0.38349  0.83793  1.0000
  C   C76       1.0  0.38507  0.34687999999999997  0.8140200000000001  1.0000
  C   C77       1.0  0.3375  0.35815  0.76593  1.0000
  C   C78       1.0  0.43847  0.4425700000000001  0.7673600000000002  1.0000
  C   C79       1.0  0.0012500000000000002  0.44191  0.90723  1.0000
  C   C80       1.0  0.11661000000000003  0.41547  0.92589  1.0000
  C   C81       1.0  0.16982  0.42955  0.97217  1.0000
  C   C82       1.0  0.16767000000000004  0.37449  0.898  1.0000
  C   C83       1.0  0.32461000000000007  0.41484  0.04068999999999999  1.0000
  C   C84       1.0  0.27228  0.40132999999999996  0.99081  1.0000
  C   C85       1.0  0.31983  0.35884  0.96378  1.0000
  C   C86       1.0  0.26819  0.34527  0.91703  1.0000
  C   C87       1.0  0.30861  0.29751  0.89011  1.0000
  C   C88       1.0  0.35501  0.29757  0.84014  1.0000
  C   C89       1.0  0.36530000000000007  0.40553  0.74243  1.0000
  C   C90       1.0  0.30961  0.41913999999999996  0.69256  1.0000
  C   C91       1.0  0.06455000000000001  0.52946  0.65791  1.0000
  C   C92       1.0  0.98679  0.56867  0.6848599999999999  1.0000
  C   C93       1.0  0.96222  0.61654  0.66217  1.0000
  C   C94       1.0  0.88491  0.65312  0.68608  1.0000
  C   C95       1.0  0.8373500000000003  0.64179  0.7341500000000001  1.0000
  C   C96       1.0  0.9385900000000001  0.5574  0.7327  1.0000
  C   C97       1.0  0.50116  0.55813  0.59283  1.0000
  C   C98       1.0  0.61645  0.58463  0.57419  1.0000
  C   C99       1.0  0.6693500000000001  0.57069  0.52779  1.0000
  C   C100      1.0  0.6675200000000001  0.62555  0.60216  1.0000
  C   C101      1.0  0.8242900000000002  0.5854  0.45923  1.0000
  C   C102      1.0  0.7717300000000001  0.59891  0.5091  1.0000
  C   C103      1.0  0.81939  0.64129  0.53626  1.0000
  C   C104      1.0  0.7679900000000001  0.65477  0.58309  1.0000
  C   C105      1.0  0.8085000000000002  0.7025  0.61001  1.0000
  C   C106      1.0  0.8548500000000001  0.7024299999999999  0.65999  1.0000
  C   C107      1.0  0.86534  0.59441  0.75761  1.0000
  C   C108      1.0  0.80965  0.58081  0.80746  1.0000
  C   C109      1.0  0.4355  0.9706599999999999  0.15793  1.0000
  C   C110      1.0  0.51321  0.93135  0.18482  1.0000
  C   C111      1.0  0.5376800000000002  0.88349  0.16207  1.0000
  C   C112      1.0  0.61494  0.84688  0.18596999999999997  1.0000
  C   C113      1.0  0.6625100000000002  0.85816  0.23407  1.0000
  C   C114      1.0  0.56154  0.94258  0.23264  1.0000
  C   C115      1.0  0.99876  0.94191  0.09276000000000001  1.0000
  C   C116      1.0  0.8834  0.91547  0.07411  1.0000
  C   C117      1.0  0.83019  0.9295499999999999  0.027830000000000004  1.0000
  C   C118      1.0  0.83234  0.87449  0.10199  1.0000
  C   C119      1.0  0.6754  0.91484  0.9593099999999999  1.0000
  C   C120      1.0  0.72773  0.90133  0.00919  1.0000
  C   C121      1.0  0.68018  0.8588399999999999  0.03622  1.0000
  C   C122      1.0  0.73182  0.84527  0.08296  1.0000
  C   C123      1.0  0.69139  0.79751  0.10989  1.0000
  C   C124      1.0  0.64499  0.79758  0.15986000000000003  1.0000
  C   C125      1.0  0.63471  0.9055300000000001  0.25756  1.0000
  C   C126      1.0  0.6904  0.91914  0.30743  1.0000
  C   C127      1.0  0.93546  0.02945  0.34209000000000006  1.0000
  C   C128      1.0  0.013220000000000003  0.06867  0.31513  1.0000
  C   C129      1.0  0.03779  0.11653999999999999  0.33783  1.0000
  C   C130      1.0  0.11509  0.15312  0.31392  1.0000
  C   C131      1.0  0.16266  0.14179  0.26584  1.0000
  C   C132      1.0  0.06142  0.05739  0.2673  1.0000
  C   C133      1.0  0.49885  0.058129999999999994  0.40717  1.0000
  C   C134      1.0  0.38356  0.08463  0.42581  1.0000
  C   C135      1.0  0.33066000000000006  0.07069  0.4722  1.0000
  C   C136      1.0  0.33249  0.12555  0.3978400000000001  1.0000
  C   C137      1.0  0.17572  0.0854  0.54076  1.0000
  C   C138      1.0  0.22828  0.09891  0.49089  1.0000
  C   C139      1.0  0.18062  0.14129  0.46374  1.0000
  C   C140      1.0  0.23202000000000006  0.15477  0.41691  1.0000
  C   C141      1.0  0.19151  0.2025  0.38997999999999994  1.0000
  C   C142      1.0  0.14516  0.20243  0.34001  1.0000
  C   C143      1.0  0.13467  0.09441  0.24239  1.0000
  C   C144      1.0  0.19036  0.08081  0.19253  1.0000
  C   C145      1.0  0.62296  0.75  0.18386000000000002  1.0000
  C   C146      1.0  0.7121600000000001  0.75  0.0858  1.0000
  C   C147      1.0  0.12316000000000002  0.25  0.31598  1.0000
  C   C148      1.0  0.21224  0.25  0.41407  1.0000
  C   C149      1.0  0.37705000000000005  0.25  0.81613  1.0000
  C   C150      1.0  0.28785  0.25  0.91419  1.0000
  C   C151      1.0  0.8768500000000001  0.75  0.68402  1.0000
  C   C152      1.0  0.78777  0.75  0.58592  1.0000
  O   O1        1.0  0.043  0.56769  0.13622  1.0000
  O   O2        1.0  0.05466  0.52554  0.06308  1.0000
  O   O3        1.0  0.3439400000000001  0.54552  0.13153  1.0000
  O   O4        1.0  0.46889  0.48174  0.16399  1.0000
  O   O5        1.0  0.71299  0.544  0.93651  1.0000
  O   O6        1.0  0.5940900000000001  0.61445  0.93721  1.0000
  O   O7        1.0  0.6451100000000001  0.54168  0.33037  1.0000
  O   O8        1.0  0.78195  0.60905  0.32320999999999994  1.0000
  O   O9        1.0  0.54313  0.43230999999999997  0.36372  1.0000
  O   O10       1.0  0.55469  0.47441  0.43688  1.0000
  O   O11       1.0  0.84389  0.4542  0.36843  1.0000
  O   O12       1.0  0.9689  0.51816  0.33609  1.0000
  O   O13       1.0  0.21313000000000001  0.45581  0.56358  1.0000
  O   O14       1.0  0.09415  0.38541000000000003  0.56281  1.0000
  O   O15       1.0  0.14514  0.45835  0.16957  1.0000
  O   O16       1.0  0.28188  0.3909500000000001  0.17679  1.0000
  O   O17       1.0  0.95701  0.06769  0.86378  1.0000
  O   O18       1.0  0.94535  0.02554  0.93692  1.0000
  O   O19       1.0  0.6560600000000001  0.045520000000000005  0.86847  1.0000
  O   O20       1.0  0.53112  0.98174  0.83601  1.0000
  O   O21       1.0  0.28702  0.044  0.06348  1.0000
  O   O22       1.0  0.40592000000000006  0.11445  0.06278  1.0000
  O   O23       1.0  0.3549  0.04168  0.6696300000000001  1.0000
  O   O24       1.0  0.21806  0.10905  0.67679  1.0000
  O   O25       1.0  0.45688  0.93231  0.63628  1.0000
  O   O26       1.0  0.44532000000000005  0.9744099999999999  0.56312  1.0000
  O   O27       1.0  0.15612  0.9542  0.63157  1.0000
  O   O28       1.0  0.03111  0.01816  0.6639  1.0000
  O   O29       1.0  0.7868800000000001  0.9558099999999999  0.43641  1.0000
  O   O30       1.0  0.9058600000000001  0.88541  0.43718999999999997  1.0000
  O   O31       1.0  0.85486  0.95835  0.8304200000000002  1.0000
  O   O32       1.0  0.71813  0.89095  0.8232  1.0000
  O   O33       1.0  0.95701  0.43230999999999997  0.86378  1.0000
  O   O34       1.0  0.94535  0.47446  0.93692  1.0000
  O   O35       1.0  0.6560600000000001  0.45448  0.86847  1.0000
  O   O36       1.0  0.53112  0.51827  0.83601  1.0000
  O   O37       1.0  0.28702  0.456  0.06348  1.0000
  O   O38       1.0  0.40592000000000006  0.38555  0.06278  1.0000
  O   O39       1.0  0.3549  0.45832  0.6696300000000001  1.0000
  O   O40       1.0  0.21806  0.3909500000000001  0.67679  1.0000
  O   O41       1.0  0.45688  0.5677  0.63628  1.0000
  O   O42       1.0  0.44532000000000005  0.5256  0.56312  1.0000
  O   O43       1.0  0.15612  0.5458  0.63157  1.0000
  O   O44       1.0  0.03111  0.48184  0.6639  1.0000
  O   O45       1.0  0.7868800000000001  0.54419  0.43641  1.0000
  O   O46       1.0  0.9058600000000001  0.61459  0.43718999999999997  1.0000
  O   O47       1.0  0.85486  0.54166  0.83043  1.0000
  O   O48       1.0  0.71813  0.60905  0.8232  1.0000
  O   O49       1.0  0.043  0.9323199999999999  0.13622  1.0000
  O   O50       1.0  0.05466  0.97446  0.06308  1.0000
  O   O51       1.0  0.3439400000000001  0.95448  0.13153  1.0000
  O   O52       1.0  0.46889  0.01826  0.16399  1.0000
  O   O53       1.0  0.71299  0.956  0.93651  1.0000
  O   O54       1.0  0.5940900000000001  0.88556  0.93721  1.0000
  O   O55       1.0  0.6451100000000001  0.95832  0.33037  1.0000
  O   O56       1.0  0.78195  0.89095  0.32320999999999994  1.0000
  O   O57       1.0  0.54313  0.06769  0.36372  1.0000
  O   O58       1.0  0.55469  0.02559  0.43688  1.0000
  O   O59       1.0  0.84389  0.045799999999999993  0.36843  1.0000
  O   O60       1.0  0.9689  0.98184  0.33609  1.0000
  O   O61       1.0  0.21313000000000001  0.04419  0.56358  1.0000
  O   O62       1.0  0.09415  0.11458999999999998  0.56281  1.0000
  O   O63       1.0  0.14514  0.04164999999999999  0.16957  1.0000
  O   O64       1.0  0.28188  0.10905  0.17679  1.0000
