data_image0
_chemical_formula_structural       Co12H60C108N12O44
_chemical_formula_sum              "Co12 H60 C108 N12 O44"
_cell_length_a       11.59455
_cell_length_b       14.4183
_cell_length_c       19.95438
_cell_angle_alpha    90.03508
_cell_angle_beta     90.00901999999999
_cell_angle_gamma    90.75175

_space_group_name_H-M_alt    "P 1"
_space_group_IT_number       1

loop_
  _space_group_symop_operation_xyz
  'x, y, z'

loop_
  _atom_site_type_symbol
  _atom_site_label
  _atom_site_symmetry_multiplicity
  _atom_site_fract_x
  _atom_site_fract_y
  _atom_site_fract_z
  _atom_site_occupancy
  Co  Co1       1.0  0.73835  0.77489  0.87714  1.0000
  Co  Co2       1.0  0.6754100000000001  0.9922300000000001  0.8644500000000002  1.0000
  Co  Co3       1.0  0.84947  0.90754  0.74353  1.0000
  Co  Co4       1.0  0.7595799999999999  0.72577  0.37783  1.0000
  Co  Co5       1.0  0.82532  0.50709  0.36485  1.0000
  Co  Co6       1.0  0.6505199999999999  0.59261  0.24454000000000004  1.0000
  Co  Co7       1.0  0.26094999999999996  0.22537  0.12302000000000002  1.0000
  Co  Co8       1.0  0.32481999999999994  0.00783  0.13567  1.0000
  Co  Co9       1.0  0.15076  0.09247  0.25649  1.0000
  Co  Co10      1.0  0.24006  0.27422  0.62246  1.0000
  Co  Co11      1.0  0.1747  0.49316  0.6351100000000001  1.0000
  Co  Co12      1.0  0.34954999999999997  0.40725  0.75534  1.0000
  H   H1        1.0  0.8825799999999999  0.9196500000000002  0.8582700000000001  1.0000
  H   H2        1.0  0.5816299999999999  0.37617  0.04609  1.0000
  H   H3        1.0  0.45236999999999994  0.68124  0.8198700000000001  1.0000
  H   H4        1.0  0.0956  0.70646  0.76722  1.0000
  H   H5        1.0  0.28863999999999995  0.03424  0.74152  1.0000
  H   H6        1.0  0.25718  0.23021  0.9025  1.0000
  H   H7        1.0  0.28551  0.9395600000000001  0.94639  1.0000
  H   H8        1.0  0.63393  0.59696  0.8289600000000001  1.0000
  H   H9        1.0  0.5714899999999999  0.44252  0.86903  1.0000
  H   H10       1.0  0.6962899999999999  0.52224  0.06624  1.0000
  H   H11       1.0  0.7558999999999998  0.6741100000000002  0.01595  1.0000
  H   H12       1.0  0.4881399999999999  0.22129  0.023760000000000003  1.0000
  H   H13       1.0  0.51771  0.07278  0.9643800000000001  1.0000
  H   H14       1.0  0.75994  0.192  0.8367400000000002  1.0000
  H   H15       1.0  0.73967  0.34528  0.8893300000000001  1.0000
  H   H16       1.0  0.6187099999999999  0.5804  0.35912  1.0000
  H   H17       1.0  0.9191299999999999  0.12373  0.54604  1.0000
  H   H18       1.0  0.04673  0.81869  0.32032  1.0000
  H   H19       1.0  0.4032199999999999  0.79362  0.26681  1.0000
  H   H20       1.0  0.21262  0.4651600000000001  0.24081  1.0000
  H   H21       1.0  0.2437  0.27109  0.40301  1.0000
  H   H22       1.0  0.21305999999999994  0.56186  0.44521  1.0000
  H   H23       1.0  0.86516  0.90224  0.32927  1.0000
  H   H24       1.0  0.9284999999999999  0.05668  0.36910000000000004  1.0000
  H   H25       1.0  0.8039099999999998  0.97817  0.56654  1.0000
  H   H26       1.0  0.7434399999999999  0.8262300000000001  0.51652  1.0000
  H   H27       1.0  0.012639999999999998  0.27854  0.52369  1.0000
  H   H28       1.0  0.98254  0.42698  0.4644500000000001  1.0000
  H   H29       1.0  0.74049  0.3075  0.33672  1.0000
  H   H30       1.0  0.7607  0.15427000000000002  0.38937  1.0000
  H   H31       1.0  0.11758999999999997  0.08025  0.14168  1.0000
  H   H32       1.0  0.4183  0.6239900000000003  0.95413  1.0000
  H   H33       1.0  0.54786  0.3185800000000001  0.18049000000000004  1.0000
  H   H34       1.0  0.9049699999999998  0.29365  0.23239000000000004  1.0000
  H   H35       1.0  0.71188  0.96575  0.25872  1.0000
  H   H36       1.0  0.7429199999999998  0.76989  0.09762  1.0000
  H   H37       1.0  0.71496  0.06063  0.05392000000000001  1.0000
  H   H38       1.0  0.3663699999999999  0.40311000000000013  0.17124000000000003  1.0000
  H   H39       1.0  0.42838999999999994  0.55765  0.13117  1.0000
  H   H40       1.0  0.30376  0.4777900000000001  0.93396  1.0000
  H   H41       1.0  0.24442999999999995  0.32588  0.98423  1.0000
  H   H42       1.0  0.5119  0.77869  0.97656  1.0000
  H   H43       1.0  0.4823899999999999  0.92724  0.035910000000000004  1.0000
  H   H44       1.0  0.23971  0.8082  0.16334  1.0000
  H   H45       1.0  0.2599699999999999  0.65485  0.11080000000000001  1.0000
  H   H46       1.0  0.38131  0.4195  0.64087  1.0000
  H   H47       1.0  0.08087  0.8762700000000002  0.45386000000000004  1.0000
  H   H48       1.0  0.9534199999999998  0.18149  0.6797300000000001  1.0000
  H   H49       1.0  0.59695  0.20648000000000005  0.7332600000000001  1.0000
  H   H50       1.0  0.78655  0.53484  0.7589200000000002  1.0000
  H   H51       1.0  0.7560799999999999  0.72917  0.59683  1.0000
  H   H52       1.0  0.78725  0.43851  0.5544100000000001  1.0000
  H   H53       1.0  0.13495  0.09738  0.67085  1.0000
  H   H54       1.0  0.07133  0.94309  0.63084  1.0000
  H   H55       1.0  0.19580999999999998  0.02186  0.43349  1.0000
  H   H56       1.0  0.25619  0.1738  0.48358000000000007  1.0000
  H   H57       1.0  0.9877  0.72139  0.47609000000000007  1.0000
  H   H58       1.0  0.01736  0.57315  0.5356200000000001  1.0000
  H   H59       1.0  0.2595  0.69275  0.66324  1.0000
  H   H60       1.0  0.23939  0.8459300000000001  0.6104600000000001  1.0000
  C   C1        1.0  0.3838999999999999  0.81891  0.82683  1.0000
  C   C2        1.0  0.37577  0.7231600000000001  0.8148300000000002  1.0000
  C   C3        1.0  0.27272  0.68189  0.79361  1.0000
  C   C4        1.0  0.17575  0.73739  0.78546  1.0000
  C   C5        1.0  0.18073999999999998  0.8318400000000002  0.80131  1.0000
  C   C6        1.0  0.28504  0.87498  0.82153  1.0000
  C   C7        1.0  0.26727  0.58189  0.7743700000000001  1.0000
  C   C8        1.0  0.06766  0.88144  0.7999700000000001  1.0000
  C   C9        1.0  0.2843899999999999  0.97487  0.8414000000000001  1.0000
  C   C10       1.0  0.2814499999999999  0.04782  0.79498  1.0000
  C   C11       1.0  0.2724599999999999  0.13996000000000003  0.81734  1.0000
  C   C12       1.0  0.26415  0.15878000000000003  0.8860600000000001  1.0000
  C   C13       1.0  0.26979  0.08680000000000002  0.93241  1.0000
  C   C14       1.0  0.2809  0.99525  0.90985  1.0000
  C   C15       1.0  0.27708  0.22048  0.7703300000000001  1.0000
  C   C16       1.0  0.2733  0.10519  0.00585  1.0000
  C   C17       1.0  0.64766  0.57756  0.88096  1.0000
  C   C18       1.0  0.61316  0.49073000000000006  0.9037500000000002  1.0000
  C   C19       1.0  0.63225  0.46746  0.97138  1.0000
  C   C20       1.0  0.68151  0.53578  0.01322  1.0000
  C   C21       1.0  0.71448  0.62058  0.98565  1.0000
  C   C22       1.0  0.61141  0.29715  0.9616300000000001  1.0000
  C   C23       1.0  0.54865  0.21802  0.98216  1.0000
  C   C24       1.0  0.56539  0.13462  0.9491800000000002  1.0000
  C   C25       1.0  0.69961  0.20114000000000007  0.87769  1.0000
  C   C26       1.0  0.6876199999999999  0.28734  0.90733  1.0000
  C   C27       1.0  0.5015199999999999  0.85562  0.8433100000000001  1.0000
  C   C28       1.0  0.11512  0.68116  0.32647000000000004  1.0000
  C   C29       1.0  0.12341  0.7769500000000003  0.31484  1.0000
  C   C30       1.0  0.22663999999999998  0.8180600000000002  0.29378000000000004  1.0000
  C   C31       1.0  0.32332  0.7623800000000002  0.28501  1.0000
  C   C32       1.0  0.3185799999999999  0.66783  0.30046  1.0000
  C   C33       1.0  0.21400999999999998  0.62505  0.32059  1.0000
  C   C34       1.0  0.23262999999999998  0.9182200000000003  0.27539  1.0000
  C   C35       1.0  0.43186  0.61776  0.29883  1.0000
  C   C36       1.0  0.21514  0.5253  0.3404  1.0000
  C   C37       1.0  0.21906999999999993  0.45185  0.2943200000000001  1.0000
  C   C38       1.0  0.22833  0.3599700000000001  0.31727  1.0000
  C   C39       1.0  0.23638  0.34223  0.3860800000000001  1.0000
  C   C40       1.0  0.22967999999999997  0.41474  0.43192  1.0000
  C   C41       1.0  0.21828  0.50586  0.40893  1.0000
  C   C42       1.0  0.22371999999999997  0.2782600000000001  0.27130000000000004  1.0000
  C   C43       1.0  0.22528999999999993  0.39705000000000007  0.50524  1.0000
  C   C44       1.0  0.8516599999999998  0.92192  0.38125000000000003  1.0000
  C   C45       1.0  0.88663  0.00874  0.4038800000000001  1.0000
  C   C46       1.0  0.8677799999999999  0.03234  0.4715  1.0000
  C   C47       1.0  0.8184399999999998  0.96433  0.51351  1.0000
  C   C48       1.0  0.78499  0.8795100000000002  0.48609  1.0000
  C   C49       1.0  0.88912  0.20256  0.46160000000000007  1.0000
  C   C50       1.0  0.9519999999999997  0.28169  0.48213  1.0000
  C   C51       1.0  0.93505  0.36505000000000004  0.44921000000000005  1.0000
  C   C52       1.0  0.80077  0.29838  0.3776900000000001  1.0000
  C   C53       1.0  0.81282  0.21224  0.4073300000000001  1.0000
  C   C54       1.0  0.99738  0.64447  0.34318000000000004  1.0000
  C   C55       1.0  0.61611  0.18089  0.17392  1.0000
  C   C56       1.0  0.62451  0.27672  0.18545000000000003  1.0000
  C   C57       1.0  0.72775  0.3181200000000001  0.20613000000000004  1.0000
  C   C58       1.0  0.82479  0.26266  0.21425  1.0000
  C   C59       1.0  0.8196299999999999  0.16813  0.19864  1.0000
  C   C60       1.0  0.71512  0.12493  0.17883  1.0000
  C   C61       1.0  0.7328899999999999  0.41815  0.22521000000000002  1.0000
  C   C62       1.0  0.9326099999999999  0.1184  0.19998  1.0000
  C   C63       1.0  0.71589  0.02508  0.15888  1.0000
  C   C64       1.0  0.7190299999999998  0.95208  0.20527000000000004  1.0000
  C   C65       1.0  0.72796  0.85995  0.18286  1.0000
  C   C66       1.0  0.73611  0.84132  0.11409000000000001  1.0000
  C   C67       1.0  0.7304199999999998  0.91336  0.06778  1.0000
  C   C68       1.0  0.7194199999999998  0.00487  0.09041  1.0000
  C   C69       1.0  0.72309  0.7792  0.22972000000000004  1.0000
  C   C70       1.0  0.72684  0.89516  0.9943  1.0000
  C   C71       1.0  0.35247  0.42249  0.11925  1.0000
  C   C72       1.0  0.38684  0.50937  0.09646000000000002  1.0000
  C   C73       1.0  0.36774  0.53263  0.028820000000000002  1.0000
  C   C74       1.0  0.31861  0.46426  0.9869800000000001  1.0000
  C   C75       1.0  0.28575  0.37944  0.01455  1.0000
  C   C76       1.0  0.38848  0.7029200000000002  0.03862  1.0000
  C   C77       1.0  0.4513899999999999  0.782  0.01815  1.0000
  C   C78       1.0  0.43457999999999997  0.86543  0.05106  1.0000
  C   C79       1.0  0.30008  0.79899  0.12243  1.0000
  C   C80       1.0  0.31213  0.71276  0.09284000000000002  1.0000
  C   C81       1.0  0.49828  0.14422  0.15785000000000002  1.0000
  C   C82       1.0  0.8849  0.31899  0.67345  1.0000
  C   C83       1.0  0.8766599999999998  0.22319  0.6851400000000001  1.0000
  C   C84       1.0  0.77345  0.18206  0.7062000000000002  1.0000
  C   C85       1.0  0.67675  0.23777  0.7149500000000001  1.0000
  C   C86       1.0  0.68146  0.33232  0.69939  1.0000
  C   C87       1.0  0.78598  0.37511  0.67914  1.0000
  C   C88       1.0  0.7674399999999998  0.08186  0.72467  1.0000
  C   C89       1.0  0.56825  0.38243  0.70112  1.0000
  C   C90       1.0  0.78481  0.47488000000000014  0.65926  1.0000
  C   C91       1.0  0.7803899999999998  0.54825  0.70541  1.0000
  C   C92       1.0  0.77104  0.64016  0.68257  1.0000
  C   C93       1.0  0.76316  0.65803  0.61379  1.0000
  C   C94       1.0  0.7697799999999999  0.58565  0.5679  1.0000
  C   C95       1.0  0.7817999999999998  0.4944800000000001  0.59074  1.0000
  C   C96       1.0  0.77483  0.72181  0.72857  1.0000
  C   C97       1.0  0.77333  0.6038600000000001  0.49464  1.0000
  C   C98       1.0  0.14832999999999996  0.07784  0.61883  1.0000
  C   C99       1.0  0.11320999999999999  0.9911  0.59612  1.0000
  C   C100      1.0  0.13201  0.96763  0.52847  1.0000
  C   C101      1.0  0.18134  0.03568  0.48652  1.0000
  C   C102      1.0  0.21481999999999998  0.12045  0.514  1.0000
  C   C103      1.0  0.11088  0.79749  0.5383100000000001  1.0000
  C   C104      1.0  0.048089999999999994  0.71834  0.51777  1.0000
  C   C105      1.0  0.06484  0.63509  0.55084  1.0000
  C   C106      1.0  0.19915999999999998  0.7018500000000002  0.6223  1.0000
  C   C107      1.0  0.18722  0.78793  0.59257  1.0000
  C   C108      1.0  0.0026399999999999987  0.35567  0.65681  1.0000
  N   N1        1.0  0.69976  0.64246  0.92024  1.0000
  N   N2        1.0  0.6008999999999999  0.38053  0.99637  1.0000
  N   N3        1.0  0.64042  0.12459  0.8975500000000001  1.0000
  N   N4        1.0  0.79937  0.8573600000000002  0.42069000000000006  1.0000
  N   N5        1.0  0.89938  0.11928  0.49638  1.0000
  N   N6        1.0  0.85987  0.37497  0.39764  1.0000
  N   N7        1.0  0.30047  0.3575600000000001  0.07997  1.0000
  N   N8        1.0  0.39894999999999997  0.61957  0.00385  1.0000
  N   N9        1.0  0.3593499999999999  0.87551  0.10257000000000001  1.0000
  N   N10       1.0  0.2006  0.14246  0.57944  1.0000
  N   N11       1.0  0.10040999999999997  0.88075  0.50354  1.0000
  N   N12       1.0  0.13985999999999998  0.6253200000000001  0.60248  1.0000
  O   O1        1.0  0.57121  0.7959900000000001  0.8678  1.0000
  O   O2        1.0  0.52597  0.94025  0.83185  1.0000
  O   O3        1.0  0.34654  0.52857  0.79843  1.0000
  O   O4        1.0  0.18866999999999995  0.5555000000000002  0.7347600000000001  1.0000
  O   O5        1.0  0.011609999999999997  0.87156  0.74392  1.0000
  O   O6        1.0  0.03316  0.92171  0.8518  1.0000
  O   O7        1.0  0.32691  0.0449  0.04008  1.0000
  O   O8        1.0  0.22783  0.17879  0.0296  1.0000
  O   O9        1.0  0.28538  0.20475  0.7072600000000001  1.0000
  O   O10       1.0  0.27456  0.30107  0.79757  1.0000
  O   O11       1.0  0.8039199999999997  0.90773  0.83892  1.0000
  O   O12       1.0  0.9266399999999998  0.7043000000000001  0.36643  1.0000
  O   O13       1.0  0.97368  0.55935  0.33308  1.0000
  O   O14       1.0  0.15459  0.97183  0.30051  1.0000
  O   O15       1.0  0.31054  0.94473  0.23544  1.0000
  O   O16       1.0  0.48641  0.62517  0.24217000000000002  1.0000
  O   O17       1.0  0.46821  0.5793  0.35083  1.0000
  O   O18       1.0  0.17167  0.45796  0.53903  1.0000
  O   O19       1.0  0.27024  0.32327  0.52883  1.0000
  O   O20       1.0  0.21695999999999996  0.29216  0.20806  1.0000
  O   O21       1.0  0.22423  0.19839  0.29951  1.0000
  O   O22       1.0  0.6973299999999999  0.59233  0.33993000000000007  1.0000
  O   O23       1.0  0.42795999999999995  0.20429  0.13467000000000004  1.0000
  O   O24       1.0  0.47415  0.0593  0.16831  1.0000
  O   O25       1.0  0.65305  0.47124  0.20144  1.0000
  O   O26       1.0  0.81167  0.44476  0.26458  1.0000
  O   O27       1.0  0.9884699999999997  0.12798  0.25611  1.0000
  O   O28       1.0  0.9671299999999999  0.07825  0.14812  1.0000
  O   O29       1.0  0.6736999999999999  0.95583  0.9601000000000001  1.0000
  O   O30       1.0  0.77204  0.82147  0.97054  1.0000
  O   O31       1.0  0.7144  0.7944300000000002  0.29282  1.0000
  O   O32       1.0  0.72557  0.69874  0.2023  1.0000
  O   O33       1.0  0.19621  0.09224  0.16107  1.0000
  O   O34       1.0  0.07332  0.29573  0.63365  1.0000
  O   O35       1.0  0.02654  0.44073  0.6669  1.0000
  O   O36       1.0  0.8454699999999999  0.028220000000000005  0.69956  1.0000
  O   O37       1.0  0.68953  0.05534  0.76461  1.0000
  O   O38       1.0  0.5138  0.37511  0.7578000000000001  1.0000
  O   O39       1.0  0.53174  0.42082000000000014  0.64907  1.0000
  O   O40       1.0  0.8288699999999998  0.5443  0.46068000000000003  1.0000
  O   O41       1.0  0.72575  0.67664  0.47114  1.0000
  O   O42       1.0  0.7786199999999998  0.70776  0.79186  1.0000
  O   O43       1.0  0.77631  0.80166  0.70037  1.0000
  O   O44       1.0  0.3026499999999999  0.40758  0.66  1.0000
