data_image0
_chemical_formula_structural       Cu12H84C180O48
_chemical_formula_sum              "Cu12 H84 C180 O48"
_cell_length_a       18.70038
_cell_length_b       18.69865
_cell_length_c       28.21778
_cell_angle_alpha    70.53083
_cell_angle_beta     70.54196
_cell_angle_gamma    59.921220000000005

_symmetry_space_group_name_H-M    'P 1'
_symmetry_Int_Tables_number       1

loop_
  _symmetry_equiv_pos_as_xyz
  'x,y,z'

loop_
  _atom_site_type_symbol
  _atom_site_label
  _atom_site_symmetry_multiplicity
  _atom_site_fract_x
  _atom_site_fract_y
  _atom_site_fract_z
  _atom_site_occupancy
  Cu  Cu1       1.0  0.21896999999999997  0.77572  0.21175000000000002  1.0000
  Cu  Cu2       1.0  0.79361  0.21899999999999997  0.21174000000000007  1.0000
  Cu  Cu3       1.0  0.7755600000000001  0.79365  0.21178  1.0000
  Cu  Cu4       1.0  0.7063099999999998  0.72417  0.28836  1.0000
  Cu  Cu5       1.0  0.7241799999999999  0.28099  0.28831  1.0000
  Cu  Cu6       1.0  0.28096000000000004  0.70623  0.28833  1.0000
  Cu  Cu7       1.0  0.7810399999999998  0.22428  0.78825  1.0000
  Cu  Cu8       1.0  0.20639999999999994  0.7809899999999999  0.7882600000000002  1.0000
  Cu  Cu9       1.0  0.22445  0.20635000000000003  0.78822  1.0000
  Cu  Cu10      1.0  0.2937  0.27583  0.71164  1.0000
  Cu  Cu11      1.0  0.27583  0.71901  0.71169  1.0000
  Cu  Cu12      1.0  0.71905  0.2937600000000001  0.71167  1.0000
  H   H1        1.0  0.5957299999999999  0.9114700000000001  0.11483  1.0000
  H   H2        1.0  0.37242999999999993  0.9  0.11223  1.0000
  H   H3        1.0  0.4776399999999999  0.78368  0.24827000000000002  1.0000
  H   H4        1.0  0.43849  0.05885  0.11858  1.0000
  H   H5        1.0  0.5231199999999999  0.79482  0.06473  1.0000
  H   H6        1.0  0.41319999999999996  0.20802  0.09607  1.0000
  H   H7        1.0  0.56619  0.7191900000000001  0.99585  1.0000
  H   H8        1.0  0.37779  0.5957399999999998  0.11492  1.0000
  H   H9        1.0  0.6155599999999999  0.37212  0.11217000000000003  1.0000
  H   H10       1.0  0.49043999999999993  0.47763999999999995  0.24811000000000005  1.0000
  H   H11       1.0  0.3837499999999999  0.43834  0.11868000000000001  1.0000
  H   H12       1.0  0.6171600000000002  0.52304  0.06455  1.0000
  H   H13       1.0  0.28246  0.4131  0.09626000000000003  1.0000
  H   H14       1.0  0.71873  0.56624  0.99562  1.0000
  H   H15       1.0  0.9114399999999999  0.37817  0.11496000000000003  1.0000
  H   H16       1.0  0.90014  0.61567  0.11208000000000003  1.0000
  H   H17       1.0  0.7837400000000002  0.4904399999999998  0.24824000000000004  1.0000
  H   H18       1.0  0.05898999999999999  0.3840100000000001  0.11863  1.0000
  H   H19       1.0  0.7949499999999999  0.6173599999999998  0.06466000000000001  1.0000
  H   H20       1.0  0.20820999999999998  0.28248  0.09618  1.0000
  H   H21       1.0  0.71908  0.7189  0.99574  1.0000
  H   H22       1.0  0.12184999999999999  0.58849  0.38507  1.0000
  H   H23       1.0  0.8843799999999999  0.59989  0.38788  1.0000
  H   H24       1.0  0.009659999999999985  0.71626  0.25173  1.0000
  H   H25       1.0  0.11595000000000007  0.44104999999999994  0.38137  1.0000
  H   H26       1.0  0.88261  0.7051  0.4353300000000001  1.0000
  H   H27       1.0  0.21749999999999994  0.29182  0.40384  1.0000
  H   H28       1.0  0.78109  0.78095  0.50424  1.0000
  H   H29       1.0  0.58848  0.9042799999999999  0.38518  1.0000
  H   H30       1.0  0.5999799999999998  0.12759  0.38778  1.0000
  H   H31       1.0  0.71625  0.02239999999999999  0.25175  1.0000
  H   H32       1.0  0.44114  0.06152000000000002  0.38142  1.0000
  H   H33       1.0  0.7051399999999999  0.97689  0.43529000000000007  1.0000
  H   H34       1.0  0.2919999999999999  0.08678999999999998  0.40391000000000005  1.0000
  H   H35       1.0  0.7807700000000001  0.93382  0.50417  1.0000
  H   H36       1.0  0.9042899999999999  0.12218999999999994  0.38505000000000006  1.0000
  H   H37       1.0  0.12790999999999997  0.88442  0.38781  1.0000
  H   H38       1.0  0.02233999999999997  0.00965  0.25186  1.0000
  H   H39       1.0  0.061669999999999996  0.11626000000000002  0.38132  1.0000
  H   H40       1.0  0.97697  0.8828299999999999  0.43546  1.0000
  H   H41       1.0  0.0869  0.21757  0.40373  1.0000
  H   H42       1.0  0.9337599999999999  0.78125  0.50439  1.0000
  H   H43       1.0  0.40428  0.08851999999999995  0.8851700000000001  1.0000
  H   H44       1.0  0.6275799999999998  0.09998999999999991  0.8877700000000002  1.0000
  H   H45       1.0  0.52237  0.21632  0.75172  1.0000
  H   H46       1.0  0.56152  0.9411499999999999  0.88142  1.0000
  H   H47       1.0  0.47689  0.20517999999999997  0.93527  1.0000
  H   H48       1.0  0.58681  0.7919799999999999  0.90393  1.0000
  H   H49       1.0  0.4338199999999999  0.2808  0.00415  1.0000
  H   H50       1.0  0.62222  0.40426  0.88508  1.0000
  H   H51       1.0  0.3844500000000002  0.6278799999999999  0.88783  1.0000
  H   H52       1.0  0.50957  0.52235  0.75189  1.0000
  H   H53       1.0  0.61626  0.5616599999999999  0.88132  1.0000
  H   H54       1.0  0.3828499999999998  0.47695  0.9354500000000002  1.0000
  H   H55       1.0  0.7175500000000001  0.5868999999999999  0.90374  1.0000
  H   H56       1.0  0.28128  0.43375999999999987  0.00438  1.0000
  H   H57       1.0  0.08857000000000004  0.6218199999999999  0.88503  1.0000
  H   H58       1.0  0.09986999999999994  0.38432999999999984  0.8879200000000002  1.0000
  H   H59       1.0  0.21628000000000003  0.50956  0.75176  1.0000
  H   H60       1.0  0.94102  0.6159799999999997  0.88137  1.0000
  H   H61       1.0  0.20506000000000005  0.38262999999999997  0.93534  1.0000
  H   H62       1.0  0.7918  0.7175200000000002  0.9038200000000002  1.0000
  H   H63       1.0  0.2809299999999999  0.2811  0.00425  1.0000
  H   H64       1.0  0.8781600000000002  0.41150000000000003  0.61493  1.0000
  H   H65       1.0  0.11562999999999993  0.40010000000000007  0.61212  1.0000
  H   H66       1.0  0.99035  0.28373999999999994  0.74827  1.0000
  H   H67       1.0  0.8840599999999993  0.55894  0.6186300000000002  1.0000
  H   H68       1.0  0.11740000000000007  0.2948899999999999  0.56467  1.0000
  H   H69       1.0  0.7825099999999998  0.70817  0.59616  1.0000
  H   H70       1.0  0.21891999999999998  0.21904999999999994  0.49576000000000003  1.0000
  H   H71       1.0  0.41152999999999984  0.09571999999999999  0.61482  1.0000
  H   H72       1.0  0.40003000000000016  0.87241  0.61222  1.0000
  H   H73       1.0  0.28376000000000007  0.97759  0.74825  1.0000
  H   H74       1.0  0.5588700000000002  0.9384799999999995  0.6185800000000002  1.0000
  H   H75       1.0  0.29488  0.023099999999999954  0.56471  1.0000
  H   H76       1.0  0.7080099999999999  0.9131999999999999  0.59609  1.0000
  H   H77       1.0  0.21923999999999996  0.06616999999999995  0.49583  1.0000
  H   H78       1.0  0.09572  0.8778  0.61495  1.0000
  H   H79       1.0  0.8721  0.11557999999999995  0.6121900000000001  1.0000
  H   H80       1.0  0.9776699999999999  0.9903399999999998  0.7481400000000002  1.0000
  H   H81       1.0  0.9383399999999998  0.88374  0.6186800000000002  1.0000
  H   H82       1.0  0.023039999999999988  0.11715999999999997  0.5645400000000002  1.0000
  H   H83       1.0  0.9131099999999999  0.78243  0.59627  1.0000
  H   H84       1.0  0.06625  0.21873999999999996  0.49561000000000005  1.0000
  C   C1        1.0  0.6131200000000001  0.8187  0.21029000000000003  1.0000
  C   C2        1.0  0.48366  0.9128899999999998  0.1072  1.0000
  C   C3        1.0  0.35351000000000005  0.80628  0.20790000000000003  1.0000
  C   C4        1.0  0.54494  0.89264  0.13376  1.0000
  C   C5        1.0  0.5143199999999999  0.9139099999999998  0.01349  1.0000
  C   C6        1.0  0.47526  0.0435  0.03984  1.0000
  C   C7        1.0  0.4200600000000002  0.8861499999999998  0.13221  1.0000
  C   C8        1.0  0.41788000000000003  0.8396899999999998  0.1829  1.0000
  C   C9        1.0  0.4900800000000001  0.9580599999999998  0.05256000000000001  1.0000
  C   C10       1.0  0.47898999999999997  0.82023  0.20920000000000002  1.0000
  C   C11       1.0  0.44805  0.09042  0.07859  1.0000
  C   C12       1.0  0.54304  0.8462  0.18437  1.0000
  C   C13       1.0  0.53047  0.82724  0.0248  1.0000
  C   C14       1.0  0.43375  0.17353  0.06598  1.0000
  C   C15       1.0  0.5547499999999997  0.78497  0.9863500000000002  1.0000
  C   C16       1.0  0.35783000000000004  0.61314  0.21022  1.0000
  C   C17       1.0  0.49618  0.48340999999999995  0.1072  1.0000
  C   C18       1.0  0.6324800000000002  0.35343999999999987  0.20768  1.0000
  C   C19       1.0  0.42856  0.54482  0.13378  1.0000
  C   C20       1.0  0.5582699999999999  0.51427  0.01341  1.0000
  C   C21       1.0  0.44133  0.47519  0.03991  1.0000
  C   C22       1.0  0.56167  0.4198099999999999  0.13214  1.0000
  C   C23       1.0  0.55963  0.4177599999999999  0.18276  1.0000
  C   C24       1.0  0.49924000000000013  0.48991999999999986  0.05257  1.0000
  C   C25       1.0  0.4916  0.47893  0.20909000000000005  1.0000
  C   C26       1.0  0.38275  0.44793999999999995  0.07870000000000002  1.0000
  C   C27       1.0  0.42633  0.54297  0.18432  1.0000
  C   C28       1.0  0.61743  0.53043  0.024640000000000006  1.0000
  C   C29       1.0  0.32658999999999994  0.43366  0.06614  1.0000
  C   C30       1.0  0.6739499999999998  0.55479  0.98616  1.0000
  C   C31       1.0  0.81859  0.35808  0.21038  1.0000
  C   C32       1.0  0.91302  0.49649  0.10721000000000003  1.0000
  C   C33       1.0  0.80647  0.63237  0.20785000000000003  1.0000
  C   C34       1.0  0.8926899999999999  0.42887  0.13382  1.0000
  C   C35       1.0  0.9139499999999999  0.55838  0.013440000000000004  1.0000
  C   C36       1.0  0.04357  0.4414  0.03988  1.0000
  C   C37       1.0  0.88628  0.56186  0.13214  1.0000
  C   C38       1.0  0.83982  0.55971  0.18283000000000005  1.0000
  C   C39       1.0  0.9581599999999999  0.49945999999999996  0.05256000000000001  1.0000
  C   C40       1.0  0.82031  0.4917  0.20918  1.0000
  C   C41       1.0  0.09054999999999999  0.38286  0.07865000000000001  1.0000
  C   C42       1.0  0.8462300000000001  0.42654  0.18441  1.0000
  C   C43       1.0  0.8272599999999997  0.6176  0.02472  1.0000
  C   C44       1.0  0.17367  0.32659  0.06606  1.0000
  C   C45       1.0  0.7848900000000001  0.6740699999999997  0.9862500000000002  1.0000
  C   C46       1.0  0.14212999999999987  0.68113  0.2896500000000001  1.0000
  C   C47       1.0  0.003519999999999987  0.587  0.39279000000000003  1.0000
  C   C48       1.0  0.86752  0.69368  0.29219  1.0000
  C   C49       1.0  0.07116999999999994  0.60727  0.36619000000000007  1.0000
  C   C50       1.0  0.9416199999999999  0.58607  0.4865600000000001  1.0000
  C   C51       1.0  0.05858999999999988  0.45644  0.4601200000000001  1.0000
  C   C52       1.0  0.93818  0.6137699999999999  0.3678400000000001  1.0000
  C   C53       1.0  0.94031  0.66025  0.3171400000000001  1.0000
  C   C54       1.0  0.0005299999999999295  0.54186  0.44744000000000006  1.0000
  C   C55       1.0  0.008359999999999992  0.67969  0.2908  1.0000
  C   C56       1.0  0.11710999999999996  0.40947999999999996  0.4213500000000001  1.0000
  C   C57       1.0  0.07353000000000012  0.6536899999999998  0.31559000000000004  1.0000
  C   C58       1.0  0.8823900000000001  0.6727699999999998  0.47527000000000014  1.0000
  C   C59       1.0  0.17338999999999993  0.32635  0.43395  1.0000
  C   C60       1.0  0.82593  0.71513  0.51373  1.0000
  C   C61       1.0  0.68114  0.88704  0.28966  1.0000
  C   C62       1.0  0.5870599999999999  0.01636999999999999  0.3928  1.0000
  C   C63       1.0  0.69373  0.14645  0.29216  1.0000
  C   C64       1.0  0.60731  0.95509  0.36625  1.0000
  C   C65       1.0  0.5860799999999999  0.98569  0.48652  1.0000
  C   C66       1.0  0.4565  0.02473999999999997  0.4601600000000001  1.0000
  C   C67       1.0  0.6138199999999999  0.07996999999999999  0.36780000000000007  1.0000
  C   C68       1.0  0.66029  0.08213  0.31712  1.0000
  C   C69       1.0  0.54192  0.009930000000000005  0.44744000000000006  1.0000
  C   C70       1.0  0.67971  0.021050000000000006  0.29082  1.0000
  C   C71       1.0  0.40957999999999983  0.05193999999999998  0.42141000000000006  1.0000
  C   C72       1.0  0.65372  0.95701  0.31565  1.0000
  C   C73       1.0  0.6727199999999999  0.9695400000000001  0.47522  1.0000
  C   C74       1.0  0.32649  0.06623  0.43401  1.0000
  C   C75       1.0  0.7149999999999997  0.9452600000000001  0.51367  1.0000
  C   C76       1.0  0.88695  0.14226  0.28972  1.0000
  C   C77       1.0  0.016629999999999992  0.0037899999999999627  0.39278000000000013  1.0000
  C   C78       1.0  0.14662999999999998  0.86749  0.29230000000000006  1.0000
  C   C79       1.0  0.9552099999999999  0.07141999999999998  0.3662  1.0000
  C   C80       1.0  0.9857499999999999  0.9417300000000001  0.48659  1.0000
  C   C81       1.0  0.02484000000000002  0.05866000000000001  0.46008  1.0000
  C   C82       1.0  0.08021999999999999  0.93831  0.3678400000000001  1.0000
  C   C83       1.0  0.08228999999999999  0.94036  0.31721  1.0000
  C   C84       1.0  0.01012000000000003  0.0007300000000000126  0.44742  1.0000
  C   C85       1.0  0.021090000000000008  0.008419999999999993  0.29088  1.0000
  C   C86       1.0  0.05206999999999995  0.11725999999999998  0.4213000000000001  1.0000
  C   C87       1.0  0.95706  0.07366999999999999  0.31566  1.0000
  C   C88       1.0  0.9695799999999999  0.8825600000000001  0.47537  1.0000
  C   C89       1.0  0.06633  0.17343000000000003  0.43385  1.0000
  C   C90       1.0  0.9452200000000001  0.8260299999999999  0.51385  1.0000
  C   C91       1.0  0.38689000000000007  0.18128999999999998  0.78971  1.0000
  C   C92       1.0  0.5163499999999999  0.08709999999999998  0.8928000000000001  1.0000
  C   C93       1.0  0.6464999999999999  0.1937099999999999  0.7921000000000002  1.0000
  C   C94       1.0  0.4550699999999999  0.10736  0.86624  1.0000
  C   C95       1.0  0.48568999999999996  0.08609000000000004  0.98651  1.0000
  C   C96       1.0  0.5247500000000002  0.95649  0.96016  1.0000
  C   C97       1.0  0.57996  0.11384000000000004  0.86779  1.0000
  C   C98       1.0  0.58213  0.1603  0.8171  1.0000
  C   C99       1.0  0.5099299999999999  0.041939999999999915  0.9474400000000002  1.0000
  C   C100      1.0  0.5210199999999996  0.17977  0.7908  1.0000
  C   C101      1.0  0.55196  0.90957  0.9214100000000002  1.0000
  C   C102      1.0  0.4569699999999999  0.15380000000000002  0.81563  1.0000
  C   C103      1.0  0.46954  0.17274999999999996  0.9752000000000002  1.0000
  C   C104      1.0  0.5662599999999999  0.82647  0.93402  1.0000
  C   C105      1.0  0.44526  0.21503  0.01365  1.0000
  C   C106      1.0  0.6421800000000001  0.38685  0.78978  1.0000
  C   C107      1.0  0.5038299999999999  0.51658  0.8928000000000001  1.0000
  C   C108      1.0  0.3675300000000001  0.64656  0.7923200000000001  1.0000
  C   C109      1.0  0.5714500000000001  0.4551799999999999  0.8662200000000001  1.0000
  C   C110      1.0  0.4417399999999999  0.48573  0.9865900000000001  1.0000
  C   C111      1.0  0.5586799999999998  0.52481  0.9600900000000001  1.0000
  C   C112      1.0  0.43834  0.5801799999999999  0.8678600000000002  1.0000
  C   C113      1.0  0.44038  0.58223  0.81724  1.0000
  C   C114      1.0  0.5007699999999999  0.51008  0.94743  1.0000
  C   C115      1.0  0.5084099999999999  0.52106  0.7909100000000002  1.0000
  C   C116      1.0  0.6172600000000001  0.5520599999999999  0.9213  1.0000
  C   C117      1.0  0.5736799999999999  0.45703  0.81568  1.0000
  C   C118      1.0  0.38258  0.46957  0.97536  1.0000
  C   C119      1.0  0.67342  0.56633  0.93386  1.0000
  C   C120      1.0  0.32606  0.44521  0.01384  1.0000
  C   C121      1.0  0.1814199999999999  0.64192  0.7896200000000002  1.0000
  C   C122      1.0  0.08698999999999996  0.50351  0.89279  1.0000
  C   C123      1.0  0.19353999999999985  0.36761999999999995  0.7921500000000002  1.0000
  C   C124      1.0  0.10731999999999993  0.57113  0.86618  1.0000
  C   C125      1.0  0.08605999999999996  0.44162000000000007  0.98656  1.0000
  C   C126      1.0  0.9564399999999997  0.5586  0.9601200000000002  1.0000
  C   C127      1.0  0.11373999999999983  0.43813999999999986  0.8678600000000002  1.0000
  C   C128      1.0  0.16018999999999994  0.44029000000000007  0.81717  1.0000
  C   C129      1.0  0.041849999999999964  0.50054  0.94743  1.0000
  C   C130      1.0  0.17969999999999997  0.5083  0.79082  1.0000
  C   C131      1.0  0.9094599999999998  0.61714  0.92135  1.0000
  C   C132      1.0  0.15377999999999994  0.57345  0.81559  1.0000
  C   C133      1.0  0.1727499999999999  0.3823999999999999  0.9752800000000003  1.0000
  C   C134      1.0  0.8263400000000001  0.6734  0.93393  1.0000
  C   C135      1.0  0.21511999999999992  0.32593  0.013750000000000004  1.0000
  C   C136      1.0  0.8578799999999992  0.31886  0.71035  1.0000
  C   C137      1.0  0.99649  0.41298999999999997  0.60721  1.0000
  C   C138      1.0  0.13249  0.3063199999999999  0.70781  1.0000
  C   C139      1.0  0.9288399999999999  0.3927199999999999  0.6338100000000002  1.0000
  C   C140      1.0  0.05838999999999999  0.41392000000000007  0.51344  1.0000
  C   C141      1.0  0.9414199999999999  0.5435499999999999  0.53988  1.0000
  C   C142      1.0  0.06182999999999991  0.3862300000000001  0.63216  1.0000
  C   C143      1.0  0.05969999999999995  0.33973999999999976  0.6828500000000002  1.0000
  C   C144      1.0  0.9994799999999999  0.45813  0.55256  1.0000
  C   C145      1.0  0.99165  0.3203  0.7092000000000002  1.0000
  C   C146      1.0  0.8828999999999999  0.5905200000000002  0.57865  1.0000
  C   C147      1.0  0.92648  0.34629999999999994  0.6844100000000002  1.0000
  C   C148      1.0  0.11761999999999999  0.32723  0.52473  1.0000
  C   C149      1.0  0.82662  0.67365  0.56605  1.0000
  C   C150      1.0  0.17408000000000004  0.28487  0.48626  1.0000
  C   C151      1.0  0.31886999999999993  0.1129499999999999  0.7103400000000002  1.0000
  C   C152      1.0  0.4129499999999999  0.98362  0.6072  1.0000
  C   C153      1.0  0.30627999999999994  0.8535499999999999  0.7078400000000002  1.0000
  C   C154      1.0  0.3927  0.0449  0.63375  1.0000
  C   C155      1.0  0.4139299999999999  0.014299999999999983  0.51348  1.0000
  C   C156      1.0  0.54351  0.9752599999999999  0.53984  1.0000
  C   C157      1.0  0.38618999999999987  0.9200299999999998  0.6322000000000002  1.0000
  C   C158      1.0  0.33972000000000013  0.9178599999999999  0.68288  1.0000
  C   C159      1.0  0.4580900000000001  0.9900599999999997  0.55256  1.0000
  C   C160      1.0  0.3203000000000001  0.9789399999999999  0.7091800000000003  1.0000
  C   C161      1.0  0.59043  0.94805  0.57859  1.0000
  C   C162      1.0  0.34629  0.04298  0.68435  1.0000
  C   C163      1.0  0.32729  0.030449999999999994  0.52478  1.0000
  C   C164      1.0  0.6735200000000001  0.93376  0.56599  1.0000
  C   C165      1.0  0.28501  0.05473000000000001  0.48633  1.0000
  C   C166      1.0  0.11306000000000001  0.85774  0.71028  1.0000
  C   C167      1.0  0.9833800000000003  0.9961999999999999  0.60722  1.0000
  C   C168      1.0  0.8533800000000001  0.13250999999999996  0.7077  1.0000
  C   C169      1.0  0.044799999999999965  0.9285700000000001  0.6338  1.0000
  C   C170      1.0  0.01426  0.05827  0.51341  1.0000
  C   C171      1.0  0.9751800000000002  0.94133  0.53991  1.0000
  C   C172      1.0  0.91979  0.06167999999999998  0.63216  1.0000
  C   C173      1.0  0.9177199999999999  0.059629999999999975  0.68279  1.0000
  C   C174      1.0  0.9898899999999998  0.9992600000000003  0.55258  1.0000
  C   C175      1.0  0.97892  0.99157  0.70912  1.0000
  C   C176      1.0  0.9479400000000001  0.8827400000000001  0.5787  1.0000
  C   C177      1.0  0.04294999999999992  0.92632  0.68434  1.0000
  C   C178      1.0  0.03043000000000003  0.11743999999999999  0.52463  1.0000
  C   C179      1.0  0.9336800000000001  0.8265599999999999  0.5661500000000002  1.0000
  C   C180      1.0  0.05479000000000001  0.17397  0.48615  1.0000
  O   O1        1.0  0.30207  0.82197  0.18099000000000004  1.0000
  O   O2        1.0  0.61067  0.77143  0.25513  1.0000
  O   O3        1.0  0.35599999999999987  0.76307  0.25382  1.0000
  O   O4        1.0  0.67122  0.8424299999999998  0.18524  1.0000
  O   O5        1.0  0.6949999999999996  0.3016  0.18087  1.0000
  O   O6        1.0  0.36241999999999996  0.61043  0.25513  1.0000
  O   O7        1.0  0.6275299999999999  0.35629  0.25341  1.0000
  O   O8        1.0  0.30140000000000006  0.67162  0.18505  1.0000
  O   O9        1.0  0.8220799999999999  0.69517  0.18091000000000004  1.0000
  O   O10       1.0  0.7717299999999999  0.3626400000000001  0.25533  1.0000
  O   O11       1.0  0.76343  0.62696  0.25381  1.0000
  O   O12       1.0  0.8417500000000001  0.30171  0.18522000000000005  1.0000
  O   O13       1.0  0.8048600000000001  0.67781  0.31913  1.0000
  O   O14       1.0  0.13776  0.72784  0.24465000000000006  1.0000
  O   O15       1.0  0.8726799999999999  0.73705  0.2463  1.0000
  O   O16       1.0  0.19850000000000004  0.65793  0.31482  1.0000
  O   O17       1.0  0.6776699999999999  0.1981  0.31902  1.0000
  O   O18       1.0  0.7279999999999999  0.88985  0.24472  1.0000
  O   O19       1.0  0.73731  0.14375  0.24633  1.0000
  O   O20       1.0  0.6577500000000001  0.8287199999999998  0.31472  1.0000
  O   O21       1.0  0.19829999999999987  0.80478  0.3191600000000001  1.0000
  O   O22       1.0  0.8898800000000001  0.1379  0.24472  1.0000
  O   O23       1.0  0.14394000000000015  0.87261  0.24649  1.0000
  O   O24       1.0  0.82837  0.19859  0.31493  1.0000
  O   O25       1.0  0.69795  0.17802  0.81901  1.0000
  O   O26       1.0  0.38933999999999996  0.22856999999999988  0.7448700000000003  1.0000
  O   O27       1.0  0.6440199999999999  0.2369299999999999  0.7461800000000002  1.0000
  O   O28       1.0  0.3287900000000001  0.15756999999999985  0.8147600000000002  1.0000
  O   O29       1.0  0.3050100000000001  0.6984  0.81913  1.0000
  O   O30       1.0  0.6375899999999998  0.38956999999999997  0.7448700000000003  1.0000
  O   O31       1.0  0.3724799999999998  0.64371  0.74659  1.0000
  O   O32       1.0  0.6986099999999998  0.32838  0.81494  1.0000
  O   O33       1.0  0.17793  0.3048199999999999  0.8190900000000001  1.0000
  O   O34       1.0  0.22828  0.6373499999999996  0.7446700000000003  1.0000
  O   O35       1.0  0.23657999999999993  0.37304  0.74619  1.0000
  O   O36       1.0  0.1582599999999998  0.69829  0.8147800000000001  1.0000
  O   O37       1.0  0.19514999999999988  0.3221899999999999  0.68087  1.0000
  O   O38       1.0  0.8622499999999998  0.27216  0.75535  1.0000
  O   O39       1.0  0.12733000000000003  0.26295  0.7537  1.0000
  O   O40       1.0  0.8015099999999996  0.34206999999999993  0.6851800000000002  1.0000
  O   O41       1.0  0.3223399999999997  0.8019  0.68098  1.0000
  O   O42       1.0  0.27201  0.11015  0.75528  1.0000
  O   O43       1.0  0.2627  0.85625  0.75367  1.0000
  O   O44       1.0  0.3422600000000001  0.17126999999999992  0.68528  1.0000
  O   O45       1.0  0.8017100000000001  0.19520999999999997  0.6808400000000001  1.0000
  O   O46       1.0  0.11013000000000021  0.8620999999999999  0.75528  1.0000
  O   O47       1.0  0.85607  0.1273899999999999  0.7535100000000002  1.0000
  O   O48       1.0  0.17164  0.80141  0.68507  1.0000
