data_image0
_chemical_formula_structural       Mn8H64C112S8O48
_chemical_formula_sum              "Mn8 H64 C112 S8 O48"
_cell_length_a       11.07057
_cell_length_b       20.40146
_cell_length_c       23.646089999999997
_cell_angle_alpha    113.27599999999998
_cell_angle_beta     100.96540999999999
_cell_angle_gamma    97.35398999999998

_symmetry_space_group_name_H-M    'P 1'
_symmetry_Int_Tables_number       1

loop_
  _symmetry_equiv_pos_as_xyz
  'x,y,z'

loop_
  _atom_site_type_symbol
  _atom_site_label
  _atom_site_symmetry_multiplicity
  _atom_site_fract_x
  _atom_site_fract_y
  _atom_site_fract_z
  _atom_site_occupancy
  Mn  Mn1       1.0  0.41589000000000004  0.17183  0.34079  1.0000
  Mn  Mn2       1.0  0.6572900000000003  0.24928  0.29134  1.0000
  Mn  Mn3       1.0  0.13292999999999996  0.047079999999999976  0.29284  1.0000
  Mn  Mn4       1.0  0.8665700000000002  0.11778  0.23146  1.0000
  Mn  Mn5       1.0  0.58412  0.82817  0.6592  1.0000
  Mn  Mn6       1.0  0.34271  0.7507199999999999  0.70866  1.0000
  Mn  Mn7       1.0  0.8670700000000001  0.9529200000000001  0.7071599999999999  1.0000
  Mn  Mn8       1.0  0.13343999999999995  0.8822299999999998  0.76855  1.0000
  H   H1        1.0  0.9103300000000001  0.37495  0.4794  1.0000
  H   H2        1.0  0.9906000000000003  0.45809999999999995  0.5969999999999999  1.0000
  H   H3        1.0  0.68065  0.34316  0.63198  1.0000
  H   H4        1.0  0.60404  0.25835  0.51446  1.0000
  H   H5        1.0  0.9112900000000002  0.57726  0.64945  1.0000
  H   H6        1.0  0.7818600000000002  0.66637  0.63907  1.0000
  H   H7        1.0  0.53734  0.60165  0.73802  1.0000
  H   H8        1.0  0.66644  0.51219  0.74847  1.0000
  H   H9        1.0  0.34771  0.04377999999999999  0.19391999999999998  1.0000
  H   H10       1.0  0.23577000000000004  0.91344  0.13013  1.0000
  H   H11       1.0  0.58965  0.84743  0.15349  1.0000
  H   H12       1.0  0.7008600000000001  0.9786  0.22146  1.0000
  H   H13       1.0  0.14976  0.83439  0.020999999999999998  1.0000
  H   H14       1.0  0.12598  0.8401299999999999  0.91614  1.0000
  H   H15       1.0  0.41288000000000014  0.71684  0.87793  1.0000
  H   H16       1.0  0.4459200000000002  0.71685  0.98509  1.0000
  H   H17       1.0  0.29545  0.8672  0.26407  1.0000
  H   H18       1.0  0.41446  0.76752  0.25226  1.0000
  H   H19       1.0  0.7628800000000001  0.9306200000000001  0.34939  1.0000
  H   H20       1.0  0.64393  0.029949999999999977  0.36105999999999994  1.0000
  H   H21       1.0  0.54746  0.71107  0.36372  1.0000
  H   H22       1.0  0.58927  0.74184  0.48089  1.0000
  H   H23       1.0  0.93498  0.8929600000000001  0.51962  1.0000
  H   H24       1.0  0.89632  0.86093  0.40248  1.0000
  H   H25       1.0  0.02023  0.2457  0.21969  1.0000
  H   H26       1.0  0.05988  0.30517  0.14929  1.0000
  H   H27       1.0  0.3924000000000002  0.21787  0.13077  1.0000
  H   H28       1.0  0.34724  0.15393  0.19641  1.0000
  H   H29       1.0  0.03622000000000007  0.26066  0.97689  1.0000
  H   H30       1.0  0.9667300000000001  0.15205000000000007  0.87116  1.0000
  H   H31       1.0  0.29856999999999984  0.07549999999999985  0.9201299999999998  1.0000
  H   H32       1.0  0.37523  0.18756  0.02317  1.0000
  H   H33       1.0  0.08968000000000001  0.62505  0.5206  1.0000
  H   H34       1.0  0.00939999999999997  0.5419  0.40301  1.0000
  H   H35       1.0  0.31933  0.65683  0.36800999999999995  1.0000
  H   H36       1.0  0.39596  0.74164  0.48551999999999995  1.0000
  H   H37       1.0  0.08870000000000001  0.42274  0.3505499999999999  1.0000
  H   H38       1.0  0.21814000000000003  0.33364  0.36093  1.0000
  H   H39       1.0  0.46267  0.39836  0.26199  1.0000
  H   H40       1.0  0.33355000000000007  0.48781  0.25153  1.0000
  H   H41       1.0  0.6522900000000001  0.95622  0.80608  1.0000
  H   H42       1.0  0.76423  0.08655999999999993  0.86987  1.0000
  H   H43       1.0  0.4103600000000001  0.15256999999999996  0.84651  1.0000
  H   H44       1.0  0.29913999999999996  0.02139999999999996  0.77854  1.0000
  H   H45       1.0  0.85025  0.16561  0.979  1.0000
  H   H46       1.0  0.87402  0.15987  0.08385999999999999  1.0000
  H   H47       1.0  0.58713  0.28316  0.12206999999999998  1.0000
  H   H48       1.0  0.5540900000000001  0.28315  0.01491  1.0000
  H   H49       1.0  0.70455  0.1328  0.73593  1.0000
  H   H50       1.0  0.5855399999999998  0.23247999999999988  0.7477299999999999  1.0000
  H   H51       1.0  0.23712  0.06938000000000001  0.65061  1.0000
  H   H52       1.0  0.35607  0.9700500000000001  0.63894  1.0000
  H   H53       1.0  0.45254  0.28892  0.63629  1.0000
  H   H54       1.0  0.4107400000000001  0.25816  0.51911  1.0000
  H   H55       1.0  0.06501999999999997  0.10703999999999994  0.4803799999999999  1.0000
  H   H56       1.0  0.10369000000000005  0.13907  0.59752  1.0000
  H   H57       1.0  0.9797700000000003  0.75431  0.7803099999999998  1.0000
  H   H58       1.0  0.9401199999999998  0.69482  0.8506999999999999  1.0000
  H   H59       1.0  0.6076  0.7821199999999999  0.86923  1.0000
  H   H60       1.0  0.65276  0.84607  0.80359  1.0000
  H   H61       1.0  0.96378  0.73934  0.02312  1.0000
  H   H62       1.0  0.03326000000000002  0.8479500000000001  0.12884  1.0000
  H   H63       1.0  0.7014300000000001  0.9245100000000002  0.07987  1.0000
  H   H64       1.0  0.6247600000000001  0.81244  0.97683  1.0000
  C   C1        1.0  0.69606  0.26909  0.42023  1.0000
  C   C2        1.0  0.7507900000000001  0.31337  0.49024  1.0000
  C   C3        1.0  0.86132  0.36853  0.51322  1.0000
  C   C4        1.0  0.9050100000000002  0.41507  0.57818  1.0000
  C   C5        1.0  0.83661  0.40645  0.61987  1.0000
  C   C6        1.0  0.72946  0.34959  0.59801  1.0000
  C   C7        1.0  0.68727  0.3028  0.5331  1.0000
  C   C8        1.0  0.7926600000000001  0.53852  0.69763  1.0000
  C   C9        1.0  0.8280299999999998  0.5821499999999998  0.6675599999999999  1.0000
  C   C10       1.0  0.7562800000000001  0.63148  0.66181  1.0000
  C   C11       1.0  0.6496  0.63711  0.68609  1.0000
  C   C12       1.0  0.61764  0.59468  0.71775  1.0000
  C   C13       1.0  0.68919  0.54508  0.72363  1.0000
  C   C14       1.0  0.57205  0.68969  0.68044  1.0000
  C   C15       1.0  0.5961100000000001  0.09737  0.24804  1.0000
  C   C16       1.0  0.53197  0.019559999999999966  0.21011999999999997  1.0000
  C   C17       1.0  0.40042  0.0010000000000000002  0.18427  1.0000
  C   C18       1.0  0.33788999999999997  0.92819  0.14835  1.0000
  C   C19       1.0  0.40758  0.87375  0.1365  1.0000
  C   C20       1.0  0.53823  0.89096  0.16228  1.0000
  C   C21       1.0  0.59989  0.96416  0.19995999999999997  1.0000
  C   C22       1.0  0.30123  0.77706  0.00951  1.0000
  C   C23       1.0  0.20921000000000012  0.8106800000000001  0.99027  1.0000
  C   C24       1.0  0.19526000000000002  0.81339  0.93164  1.0000
  C   C25       1.0  0.26994  0.7805999999999998  0.8912799999999999  1.0000
  C   C26       1.0  0.35789  0.74426  0.90993  1.0000
  C   C27       1.0  0.37562  0.74345  0.96981  1.0000
  C   C28       1.0  0.25452000000000014  0.7860600000000001  0.82943  1.0000
  C   C29       1.0  0.39077000000000006  0.012410000000000015  0.3198  1.0000
  C   C30       1.0  0.46264  0.9542500000000002  0.31455  1.0000
  C   C31       1.0  0.39726000000000006  0.8805299999999999  0.28344  1.0000
  C   C32       1.0  0.4628  0.82509  0.27682  1.0000
  C   C33       1.0  0.59378  0.84432  0.30171  1.0000
  C   C34       1.0  0.66064  0.91757  0.33179  1.0000
  C   C35       1.0  0.5946800000000001  0.97261  0.33819  1.0000
  C   C36       1.0  0.7170500000000001  0.7872  0.37777  1.0000
  C   C37       1.0  0.63096  0.7512699999999999  0.39827999999999997  1.0000
  C   C38       1.0  0.65407  0.76828  0.4630099999999999  1.0000
  C   C39       1.0  0.7612899999999997  0.82133  0.50698  1.0000
  C   C40       1.0  0.85045  0.8537400000000002  0.48521  1.0000
  C   C41       1.0  0.82864  0.8365200000000002  0.42038999999999993  1.0000
  C   C42       1.0  0.77435  0.84603  0.57672  1.0000
  C   C43       1.0  0.15469999999999998  0.15404999999999996  0.24915999999999994  1.0000
  C   C44       1.0  0.17760000000000006  0.19246  0.21057  1.0000
  C   C45       1.0  0.09848  0.23706  0.19822999999999996  1.0000
  C   C46       1.0  0.12082000000000001  0.27116  0.1594  1.0000
  C   C47       1.0  0.22569  0.26304  0.13412999999999997  1.0000
  C   C48       1.0  0.30844  0.22157  0.14824  1.0000
  C   C49       1.0  0.28354  0.18595  0.18528  1.0000
  C   C50       1.0  0.20745000000000005  0.22922000000000003  0.006899999999999999  1.0000
  C   C51       1.0  0.09303000000000006  0.2199899999999999  0.96422  1.0000
  C   C52       1.0  0.053719999999999976  0.15871999999999997  0.90532  1.0000
  C   C53       1.0  0.12605999999999995  0.1055  0.8902299999999999  1.0000
  C   C54       1.0  0.24206  0.11623000000000001  0.93314  1.0000
  C   C55       1.0  0.2841  0.17845  0.99084  1.0000
  C   C56       1.0  0.08073999999999999  0.03706999999999992  0.83044  1.0000
  C   C57       1.0  0.30394  0.73091  0.57977  1.0000
  C   C58       1.0  0.24922  0.68662  0.50976  1.0000
  C   C59       1.0  0.13869  0.63147  0.48678  1.0000
  C   C60       1.0  0.09499000000000002  0.58493  0.42181  1.0000
  C   C61       1.0  0.16338000000000005  0.59355  0.38013  1.0000
  C   C62       1.0  0.27053  0.6504  0.40198  1.0000
  C   C63       1.0  0.31273  0.6972  0.46689  1.0000
  C   C64       1.0  0.20733000000000007  0.46148  0.30237  1.0000
  C   C65       1.0  0.17195999999999995  0.41785  0.33243999999999996  1.0000
  C   C66       1.0  0.24372000000000002  0.36852  0.33819  1.0000
  C   C67       1.0  0.35040999999999994  0.3629  0.31391  1.0000
  C   C68       1.0  0.38236000000000003  0.40533  0.28226  1.0000
  C   C69       1.0  0.31081000000000003  0.45493  0.27637  1.0000
  C   C70       1.0  0.42795  0.31031  0.31955999999999996  1.0000
  C   C71       1.0  0.40389  0.90263  0.75196  1.0000
  C   C72       1.0  0.46803  0.98044  0.78988  1.0000
  C   C73       1.0  0.5995800000000001  0.9990000000000001  0.8157299999999998  1.0000
  C   C74       1.0  0.6621099999999999  0.07180999999999987  0.8516499999999999  1.0000
  C   C75       1.0  0.59242  0.12624999999999992  0.8634999999999999  1.0000
  C   C76       1.0  0.46177  0.10904000000000005  0.8377199999999999  1.0000
  C   C77       1.0  0.40011  0.035840000000000025  0.80004  1.0000
  C   C78       1.0  0.6987700000000002  0.22294  0.99049  1.0000
  C   C79       1.0  0.7908000000000002  0.18932  0.00973  1.0000
  C   C80       1.0  0.80475  0.18661  0.06836  1.0000
  C   C81       1.0  0.73007  0.21941000000000002  0.10872  1.0000
  C   C82       1.0  0.64212  0.25575  0.09007  1.0000
  C   C83       1.0  0.62438  0.25655  0.03019  1.0000
  C   C84       1.0  0.7454800000000003  0.21395  0.17057  1.0000
  C   C85       1.0  0.60923  0.98759  0.6802  1.0000
  C   C86       1.0  0.53736  0.04575999999999999  0.68545  1.0000
  C   C87       1.0  0.60274  0.11948000000000003  0.71656  1.0000
  C   C88       1.0  0.5372  0.17491  0.72318  1.0000
  C   C89       1.0  0.40622000000000014  0.15567999999999996  0.69829  1.0000
  C   C90       1.0  0.33935999999999994  0.08242999999999993  0.6682099999999999  1.0000
  C   C91       1.0  0.40532  0.027390000000000005  0.66181  1.0000
  C   C92       1.0  0.28295  0.21279  0.62223  1.0000
  C   C93       1.0  0.36904999999999993  0.24872999999999992  0.6017199999999999  1.0000
  C   C94       1.0  0.34594  0.23172  0.53699  1.0000
  C   C95       1.0  0.2387199999999999  0.17866999999999997  0.4930199999999999  1.0000
  C   C96       1.0  0.14956  0.14625999999999995  0.5147899999999999  1.0000
  C   C97       1.0  0.17137000000000002  0.16347  0.5796  1.0000
  C   C98       1.0  0.22567000000000004  0.15396  0.42328  1.0000
  C   C99       1.0  0.8453000000000002  0.8459600000000002  0.75085  1.0000
  C   C100      1.0  0.8224100000000001  0.80754  0.78943  1.0000
  C   C101      1.0  0.9015200000000001  0.7629399999999998  0.8017799999999999  1.0000
  C   C102      1.0  0.87918  0.7288400000000002  0.8406  1.0000
  C   C103      1.0  0.7743200000000001  0.73696  0.86588  1.0000
  C   C104      1.0  0.6915699999999999  0.77843  0.8517599999999999  1.0000
  C   C105      1.0  0.71647  0.81405  0.81472  1.0000
  C   C106      1.0  0.79255  0.7707800000000001  0.9931  1.0000
  C   C107      1.0  0.90696  0.78001  0.03578  1.0000
  C   C108      1.0  0.94627  0.84128  0.09468  1.0000
  C   C109      1.0  0.87394  0.8945  0.10977  1.0000
  C   C110      1.0  0.75794  0.88377  0.06686  1.0000
  C   C111      1.0  0.7158900000000001  0.8215500000000001  0.00916  1.0000
  C   C112      1.0  0.9192600000000002  0.96293  0.16957  1.0000
  S   S1        1.0  0.8820099999999998  0.4726699999999999  0.7016399999999999  1.0000
  S   S2        1.0  0.32469  0.78055  0.08771  1.0000
  S   S3        1.0  0.67809  0.77373  0.29637  1.0000
  S   S4        1.0  0.25652  0.30528  0.08378  1.0000
  S   S5        1.0  0.11798000000000002  0.52733  0.29835  1.0000
  S   S6        1.0  0.67531  0.2194499999999999  0.9122799999999999  1.0000
  S   S7        1.0  0.32189999999999996  0.22625999999999996  0.7036199999999999  1.0000
  S   S8        1.0  0.7434800000000001  0.6947099999999999  0.9162199999999999  1.0000
  O   O1        1.0  0.5921  0.22243000000000002  0.40196  1.0000
  O   O2        1.0  0.68567  0.81711  0.59287  1.0000
  O   O3        1.0  0.45472  0.07707  0.3355  1.0000
  O   O4        1.0  0.6183300000000002  0.7367600000000001  0.66225  1.0000
  O   O5        1.0  0.23579  0.11714000000000001  0.26301  1.0000
  O   O6        1.0  0.52925  0.14649  0.25828  1.0000
  O   O7        1.0  0.75545  0.28204  0.38258  1.0000
  O   O8        1.0  0.46657  0.68495  0.6943  1.0000
  O   O9        1.0  0.31145  0.74975  0.78943  1.0000
  O   O10       1.0  0.71711  0.11732999999999999  0.26943  1.0000
  O   O11       1.0  0.8715200000000004  0.8962900000000001  0.61588  1.0000
  O   O12       1.0  0.27123  0.99404  0.30731  1.0000
  O   O13       1.0  0.98575  0.032049999999999954  0.7873299999999999  1.0000
  O   O14       1.0  0.0536  0.15158  0.26895  1.0000
  O   O15       1.0  0.18389999999999995  0.8276999999999999  0.8200499999999998  1.0000
  O   O16       1.0  0.14033000000000004  0.98596  0.82569  1.0000
  O   O17       1.0  0.014900000000000002  0.50717  0.71662  1.0000
  O   O18       1.0  0.8331100000000002  0.43866  0.73894  1.0000
  O   O19       1.0  0.40876  0.73299  0.0936  1.0000
  O   O20       1.0  0.2014799999999999  0.77388  0.10147999999999999  1.0000
  O   O21       1.0  0.79487  0.79309  0.28088  1.0000
  O   O22       1.0  0.58865  0.70348  0.25839  1.0000
  O   O23       1.0  0.39381000000000005  0.32871  0.09875999999999999  1.0000
  O   O24       1.0  0.1738  0.35568  0.08579  1.0000
  O   O25       1.0  0.40790000000000004  0.7775799999999999  0.59804  1.0000
  O   O26       1.0  0.31438000000000005  0.18287  0.40713  1.0000
  O   O27       1.0  0.54528  0.92293  0.66448  1.0000
  O   O28       1.0  0.38167000000000006  0.26324  0.33775  1.0000
  O   O29       1.0  0.76421  0.88286  0.73699  1.0000
  O   O30       1.0  0.4707500000000001  0.8535200000000001  0.74172  1.0000
  O   O31       1.0  0.24454999999999996  0.71796  0.61741  1.0000
  O   O32       1.0  0.53342  0.31505  0.3057  1.0000
  O   O33       1.0  0.68854  0.25025  0.21056  1.0000
  O   O34       1.0  0.28289000000000003  0.8826699999999998  0.73056  1.0000
  O   O35       1.0  0.12849  0.10371999999999999  0.38412  1.0000
  O   O36       1.0  0.72878  0.005969999999999996  0.6927  1.0000
  O   O37       1.0  0.014259999999999991  0.96795  0.21267  1.0000
  O   O38       1.0  0.9464000000000002  0.84843  0.73106  1.0000
  O   O39       1.0  0.81611  0.1723  0.17996  1.0000
  O   O40       1.0  0.85966  0.014029999999999999  0.17433  1.0000
  O   O41       1.0  0.9850900000000001  0.49282000000000004  0.28337  1.0000
  O   O42       1.0  0.16686  0.56133  0.26104  1.0000
  O   O43       1.0  0.59124  0.26701  0.9063999999999999  1.0000
  O   O44       1.0  0.79853  0.22612  0.89851  1.0000
  O   O45       1.0  0.20511  0.20689000000000002  0.71911  1.0000
  O   O46       1.0  0.41134  0.29652  0.74161  1.0000
  O   O47       1.0  0.6061899999999999  0.6712799999999999  0.9012399999999999  1.0000
  O   O48       1.0  0.8261999999999998  0.6443199999999999  0.9142199999999999  1.0000
