data_image0
_chemical_formula_structural       Co3H90C132N18
_chemical_formula_sum              "Co3 H90 C132 N18"
_cell_length_a       9.43515
_cell_length_b       19.333959999999998
_cell_length_c       19.3386
_cell_angle_alpha    117.57432
_cell_angle_beta     99.36539
_cell_angle_gamma    99.33974

_space_group_name_H-M_alt    "P 1"
_space_group_IT_number       1

loop_
  _space_group_symop_operation_xyz
  'x, y, z'

loop_
  _atom_site_type_symbol
  _atom_site_label
  _atom_site_symmetry_multiplicity
  _atom_site_fract_x
  _atom_site_fract_y
  _atom_site_fract_z
  _atom_site_occupancy
  Co  Co1       1.0  0.49911  0.9996600000000001  0.49996  1.0000
  Co  Co2       1.0  0.0009399999999999847  0.5002  0.49972999999999995  1.0000
  Co  Co3       1.0  0.50011  0.49923999999999996  0.9994499999999998  1.0000
  H   H1        1.0  0.25237  0.23242  0.65304  1.0000
  H   H2        1.0  0.07433  0.14694  0.49984  1.0000
  H   H3        1.0  0.07386000000000004  0.88525  0.23004  1.0000
  H   H4        1.0  0.25727  0.78891  0.18971999999999994  1.0000
  H   H5        1.0  0.67529  0.81664  0.21799  1.0000
  H   H6        1.0  0.65119  0.68813  0.09047  1.0000
  H   H7        1.0  0.31093  0.56017  0.13181  1.0000
  H   H8        1.0  0.32024  0.68336  0.26037  1.0000
  H   H9        1.0  0.13454999999999998  0.04848999999999998  0.27732  1.0000
  H   H10       1.0  0.90096  0.05451000000000001  0.20327  1.0000
  H   H11       1.0  0.65984  0.98724  0.34305  1.0000
  H   H12       1.0  0.8917099999999999  0.9824599999999999  0.41777  1.0000
  H   H13       1.0  0.52158  0.9857  0.22211999999999998  1.0000
  H   H14       1.0  0.61877  0.009710000000000002  0.16095  1.0000
  H   H15       1.0  0.6078  0.08819  0.25431  1.0000
  H   H16       1.0  0.7478  0.7673999999999999  0.34711  1.0000
  H   H17       1.0  0.9256800000000001  0.8528900000000001  0.50037  1.0000
  H   H18       1.0  0.9269099999999999  0.11529000000000002  0.77075  1.0000
  H   H19       1.0  0.74385  0.21149000000000007  0.81091  1.0000
  H   H20       1.0  0.3247299999999999  0.1833299999999999  0.7818299999999998  1.0000
  H   H21       1.0  0.34861999999999993  0.31180999999999987  0.90931  1.0000
  H   H22       1.0  0.68913  0.44005  0.8682  1.0000
  H   H23       1.0  0.67982  0.31667  0.73951  1.0000
  H   H24       1.0  0.8653399999999999  0.9515400000000002  0.72244  1.0000
  H   H25       1.0  0.09872999999999993  0.94553  0.7967  1.0000
  H   H26       1.0  0.34072  0.013080000000000003  0.65717  1.0000
  H   H27       1.0  0.10845999999999989  0.017609999999999883  0.5821799999999998  1.0000
  H   H28       1.0  0.4782099999999999  0.01429999999999986  0.7778399999999998  1.0000
  H   H29       1.0  0.38115000000000004  0.9903100000000001  0.83907  1.0000
  H   H30       1.0  0.39207000000000003  0.9118300000000001  0.74568  1.0000
  H   H31       1.0  0.59959  0.34776  0.57978  1.0000
  H   H32       1.0  0.574  0.50062  0.64785  1.0000
  H   H33       1.0  0.84279  0.7708  0.65561  1.0000
  H   H34       1.0  0.06672000000000003  0.81  0.5998  1.0000
  H   H35       1.0  0.45623  0.78138  0.59804  1.0000
  H   H36       1.0  0.5598  0.90879  0.59812  1.0000
  H   H37       1.0  0.17768000000000003  0.8673  0.42822  1.0000
  H   H38       1.0  0.05893999999999999  0.73894  0.4226599999999999  1.0000
  H   H39       1.0  0.8571100000000001  0.72274  0.77121  1.0000
  H   H40       1.0  0.698  0.7972800000000001  0.85189  1.0000
  H   H41       1.0  0.31608  0.65716  0.64397  1.0000
  H   H42       1.0  0.47361  0.5819  0.56406  1.0000
  H   H43       1.0  0.2993599999999999  0.7777799999999999  0.7635899999999998  1.0000
  H   H44       1.0  0.4576  0.8393499999999999  0.84925  1.0000
  H   H45       1.0  0.35337  0.74597  0.834  1.0000
  H   H46       1.0  0.39988  0.65235  0.42073  1.0000
  H   H47       1.0  0.42599  0.49935  0.35266  1.0000
  H   H48       1.0  0.15702  0.22998  0.34472  1.0000
  H   H49       1.0  0.9327199999999999  0.18999  0.40028  1.0000
  H   H50       1.0  0.54339  0.21861  0.40164  1.0000
  H   H51       1.0  0.43973000000000007  0.09090000000000001  0.40152  1.0000
  H   H52       1.0  0.8218199999999999  0.13233999999999987  0.5711499999999998  1.0000
  H   H53       1.0  0.9406399999999999  0.261  0.57712  1.0000
  H   H54       1.0  0.14281  0.27707  0.22848  1.0000
  H   H55       1.0  0.30229  0.20264  0.14808  1.0000
  H   H56       1.0  0.68357  0.34307  0.35593  1.0000
  H   H57       1.0  0.52641  0.41812  0.43578  1.0000
  H   H58       1.0  0.70085  0.22213  0.23633  1.0000
  H   H59       1.0  0.54255  0.16064  0.15072  1.0000
  H   H60       1.0  0.64683  0.25398  0.16594  1.0000
  H   H61       1.0  0.02072999999999989  0.4206499999999999  0.7680599999999997  1.0000
  H   H62       1.0  0.9265699999999996  0.35265  0.85324  1.0000
  H   H63       1.0  0.18758000000000002  0.34458  0.11464  1.0000
  H   H64       1.0  0.4683300000000001  0.40049  0.21036  1.0000
  H   H65       1.0  0.8582399999999999  0.40133000000000013  0.18239  1.0000
  H   H66       1.0  0.96228  0.40183  0.31029  1.0000
  H   H67       1.0  0.75008  0.57146  0.43936  1.0000
  H   H68       1.0  0.63667  0.57721  0.31654  1.0000
  H   H69       1.0  0.08637000000000006  0.2289000000000001  0.95148  1.0000
  H   H70       1.0  0.8470099999999999  0.14861  0.94553  1.0000
  H   H71       1.0  0.67254  0.35607  0.013059999999999999  1.0000
  H   H72       1.0  0.90932  0.43576  0.01772  1.0000
  H   H73       1.0  0.53629  0.23668  0.0144  1.0000
  H   H74       1.0  0.60914  0.15119  0.99005  1.0000
  H   H75       1.0  0.51981  0.166  0.91181  1.0000
  H   H76       1.0  0.97929  0.57945  0.23211  1.0000
  H   H77       1.0  0.07354999999999996  0.6474699999999999  0.14692999999999998  1.0000
  H   H78       1.0  0.8124900000000002  0.65554  0.88552  1.0000
  H   H79       1.0  0.53167  0.59962  0.78981  1.0000
  H   H80       1.0  0.14211999999999994  0.59858  0.81739  1.0000
  H   H81       1.0  0.038300000000000015  0.59807  0.68946  1.0000
  H   H82       1.0  0.25073  0.42828999999999995  0.56072  1.0000
  H   H83       1.0  0.36391  0.42276  0.68357  1.0000
  H   H84       1.0  0.9136699999999999  0.77119  0.04853  1.0000
  H   H85       1.0  0.15312000000000003  0.8514300000000001  0.05451  1.0000
  H   H86       1.0  0.3274300000000001  0.64392  0.98703  1.0000
  H   H87       1.0  0.09053999999999995  0.5642699999999999  0.9822799999999999  1.0000
  H   H88       1.0  0.46375  0.76332  0.98561  1.0000
  H   H89       1.0  0.39089  0.8488099999999998  0.009959999999999998  1.0000
  H   H90       1.0  0.48017  0.83398  0.08818999999999999  1.0000
  C   C1        1.0  0.37492  0.13662  0.60661  1.0000
  C   C2        1.0  0.26135  0.17768000000000006  0.60312  1.0000
  C   C3        1.0  0.17028  0.13417  0.52557  1.0000
  C   C4        1.0  0.22766000000000003  0.06644000000000004  0.48134  1.0000
  C   C5        1.0  0.17069999999999996  0.010609999999999984  0.39768  1.0000
  C   C6        1.0  0.23876  0.95119  0.35277  1.0000
  C   C7        1.0  0.17677  0.89038  0.26812  1.0000
  C   C8        1.0  0.26914999999999994  0.84083  0.24802  1.0000
  C   C9        1.0  0.38905  0.8712499999999999  0.32043  1.0000
  C   C10       1.0  0.50592  0.8356099999999999  0.32506  1.0000
  C   C11       1.0  0.49935  0.76042  0.24975999999999998  1.0000
  C   C12       1.0  0.59348  0.76074  0.2008  1.0000
  C   C13       1.0  0.58017  0.68924  0.12984  1.0000
  C   C14       1.0  0.39014  0.61802  0.15261  1.0000
  C   C15       1.0  0.39564  0.68685  0.22431  1.0000
  C   C16       1.0  0.03106999999999997  0.015349999999999999  0.35339  1.0000
  C   C17       1.0  0.030339999999999992  0.03504000000000001  0.29186  1.0000
  C   C18       1.0  0.89837  0.03802999999999999  0.24984999999999996  1.0000
  C   C19       1.0  0.7624  0.021020000000000014  0.26735  1.0000
  C   C20       1.0  0.76351  0.0011700000000000007  0.32845  1.0000
  C   C21       1.0  0.89525  0.99878  0.37117  1.0000
  C   C22       1.0  0.62  0.026090000000000023  0.22357  1.0000
  C   C23       1.0  0.62596  0.86344  0.39344  1.0000
  C   C24       1.0  0.73994  0.82263  0.39693  1.0000
  C   C25       1.0  0.8307000000000001  0.8662300000000002  0.47457  1.0000
  C   C26       1.0  0.77271  0.93375  0.51884  1.0000
  C   C27       1.0  0.82926  0.98943  0.60262  1.0000
  C   C28       1.0  0.76149  0.04896  0.64766  1.0000
  C   C29       1.0  0.82458  0.11034999999999998  0.7322  1.0000
  C   C30       1.0  0.73213  0.15987  0.75227  1.0000
  C   C31       1.0  0.61147  0.12877000000000002  0.67987  1.0000
  C   C32       1.0  0.49435  0.16423999999999989  0.6751199999999998  1.0000
  C   C33       1.0  0.50059  0.23971000000000003  0.75002  1.0000
  C   C34       1.0  0.40646  0.23925999999999994  0.79897  1.0000
  C   C35       1.0  0.41962  0.31072  0.86992  1.0000
  C   C36       1.0  0.6098099999999999  0.38215999999999983  0.8473499999999998  1.0000
  C   C37       1.0  0.6043699999999999  0.31333999999999984  0.7756299999999998  1.0000
  C   C38       1.0  0.9691800000000002  0.9848  0.64661  1.0000
  C   C39       1.0  0.9696899999999999  0.9649800000000001  0.70803  1.0000
  C   C40       1.0  0.10147999999999993  0.96184  0.7499999999999998  1.0000
  C   C41       1.0  0.23754999999999996  0.97891  0.7325899999999997  1.0000
  C   C42       1.0  0.23679  0.9987900000000001  0.67149  1.0000
  C   C43       1.0  0.10507  0.0012500000000000011  0.62878  1.0000
  C   C44       1.0  0.3799  0.97391  0.77646  1.0000
  C   C45       1.0  0.76812  0.39396  0.5301899999999999  1.0000
  C   C46       1.0  0.65728  0.39755  0.57452  1.0000
  C   C47       1.0  0.64359  0.47497  0.60869  1.0000
  C   C48       1.0  0.7462499999999999  0.51904  0.58545  1.0000
  C   C49       1.0  0.77296  0.60254  0.61339  1.0000
  C   C50       1.0  0.8851699999999999  0.64739  0.59867  1.0000
  C   C51       1.0  0.90616  0.7317599999999999  0.6219999999999999  1.0000
  C   C52       1.0  0.019019999999999912  0.7515599999999999  0.5926099999999999  1.0000
  C   C53       1.0  0.06726999999999987  0.6794099999999998  0.5509399999999998  1.0000
  C   C54       1.0  0.17979999999999996  0.67474  0.51065  1.0000
  C   C55       1.0  0.2482199999999999  0.7495999999999999  0.5102199999999999  1.0000
  C   C56       1.0  0.39165  0.7985  0.5595  1.0000
  C   C57       1.0  0.4492999999999999  0.8695  0.55937  1.0000
  C   C58       1.0  0.23653000000000005  0.8467500000000001  0.46532  1.0000
  C   C59       1.0  0.17029  0.77507  0.46219  1.0000
  C   C60       1.0  0.677  0.64664  0.66197  1.0000
  C   C61       1.0  0.73819  0.70833  0.74341  1.0000
  C   C62       1.0  0.64847  0.75039  0.78864  1.0000
  C   C63       1.0  0.49493  0.73281  0.75391  1.0000
  C   C64       1.0  0.43443000000000004  0.6715  0.67263  1.0000
  C   C65       1.0  0.5233  0.62868  0.62731  1.0000
  C   C66       1.0  0.39631999999999995  0.77667  0.80279  1.0000
  C   C67       1.0  0.23126  0.60623  0.46983  1.0000
  C   C68       1.0  0.34132  0.60234  0.42513  1.0000
  C   C69       1.0  0.35542  0.52498  0.391  1.0000
  C   C70       1.0  0.25386  0.48092  0.41457  1.0000
  C   C71       1.0  0.2271  0.39741  0.38693  1.0000
  C   C72       1.0  0.11456999999999999  0.35264  0.40161  1.0000
  C   C73       1.0  0.09231  0.26822  0.37785  1.0000
  C   C74       1.0  0.97933  0.24839999999999998  0.40717  1.0000
  C   C75       1.0  0.9320899999999999  0.32084999999999997  0.4493699999999999  1.0000
  C   C76       1.0  0.81972  0.32553  0.48966999999999994  1.0000
  C   C77       1.0  0.75118  0.25028  0.48947  1.0000
  C   C78       1.0  0.60792  0.20123999999999997  0.4400399999999999  1.0000
  C   C79       1.0  0.5503599999999998  0.13017999999999996  0.44008  1.0000
  C   C80       1.0  0.7632799999999998  0.15298999999999993  0.53415  1.0000
  C   C81       1.0  0.82924  0.22476  0.53735  1.0000
  C   C82       1.0  0.32254  0.35321  0.33793  1.0000
  C   C83       1.0  0.26168  0.29159  0.25644  1.0000
  C   C84       1.0  0.3516  0.24955  0.21132  1.0000
  C   C85       1.0  0.50512  0.26718  0.24610999999999997  1.0000
  C   C86       1.0  0.56522  0.32857  0.32734  1.0000
  C   C87       1.0  0.47624  0.37133  0.3726  1.0000
  C   C88       1.0  0.60384  0.22333  0.19721  1.0000
  C   C89       1.0  0.23838  0.46973000000000004  0.86373  1.0000
  C   C90       1.0  0.08322999999999998  0.4253100000000001  0.82284  1.0000
  C   C91       1.0  0.035289999999999995  0.3913200000000001  0.86612  1.0000
  C   C92       1.0  0.16099999999999992  0.41472999999999993  0.9336699999999998  1.0000
  C   C93       1.0  0.15979999999999991  0.38686999999999994  0.9892399999999999  1.0000
  C   C94       1.0  0.2869  0.40149  0.04881  1.0000
  C   C95       1.0  0.28511  0.37813  0.10974  1.0000
  C   C96       1.0  0.42768  0.4074999999999999  0.15901  1.0000
  C   C97       1.0  0.51711  0.4492999999999999  0.12852  1.0000
  C   C98       1.0  0.66993  0.48952  0.16396  1.0000
  C   C99       1.0  0.73886  0.4897500000000001  0.23918  1.0000
  C   C100      1.0  0.83216  0.44001  0.23832  1.0000
  C   C101      1.0  0.89018  0.44026000000000004  0.30947  1.0000
  C   C102      1.0  0.77154  0.53446  0.38145  1.0000
  C   C103      1.0  0.70849  0.53752  0.31283  1.0000
  C   C104      1.0  0.015299999999999895  0.33805999999999997  0.9844399999999999  1.0000
  C   C105      1.0  0.9953399999999999  0.2567699999999999  0.96483  1.0000
  C   C106      1.0  0.8604799999999999  0.2117199999999999  0.96185  1.0000
  C   C107      1.0  0.74161  0.2463600000000001  0.97899  1.0000
  C   C108      1.0  0.76218  0.32743999999999995  0.9987899999999998  1.0000
  C   C109      1.0  0.89625  0.37263  0.0012  1.0000
  C   C110      1.0  0.59412  0.19752  0.9739  1.0000
  C   C111      1.0  0.7617899999999999  0.5301199999999999  0.13613999999999996  1.0000
  C   C112      1.0  0.9167899999999999  0.57479  0.1773  1.0000
  C   C113      1.0  0.9648  0.60879  0.13405  1.0000
  C   C114      1.0  0.83921  0.5851599999999999  0.06632  1.0000
  C   C115      1.0  0.84034  0.61306  0.01078  1.0000
  C   C116      1.0  0.71323  0.59839  0.95119  1.0000
  C   C117      1.0  0.7149700000000001  0.6219800000000002  0.89041  1.0000
  C   C118      1.0  0.5724300000000001  0.59258  0.84112  1.0000
  C   C119      1.0  0.48306000000000004  0.55051  0.87137  1.0000
  C   C120      1.0  0.33025  0.51031  0.83587  1.0000
  C   C121      1.0  0.26145999999999986  0.5102699999999998  0.7607299999999998  1.0000
  C   C122      1.0  0.16787000000000002  0.55984  0.76145  1.0000
  C   C123      1.0  0.11000999999999998  0.55941  0.6901  1.0000
  C   C124      1.0  0.22881  0.46529  0.61854  1.0000
  C   C125      1.0  0.29189  0.46225000000000005  0.68713  1.0000
  C   C126      1.0  0.9847  0.66198  0.015569999999999999  1.0000
  C   C127      1.0  0.004619999999999965  0.74326  0.03513  1.0000
  C   C128      1.0  0.13952  0.78829  0.03811  1.0000
  C   C129      1.0  0.25837  0.75364  0.02097  1.0000
  C   C130      1.0  0.23777000000000004  0.67256  0.00118  1.0000
  C   C131      1.0  0.10368999999999995  0.6273999999999998  0.9987699999999999  1.0000
  C   C132      1.0  0.40589000000000003  0.80247  0.02609  1.0000
  N   N1        1.0  0.35081  0.06819000000000001  0.53236  1.0000
  N   N2        1.0  0.3691900000000001  0.9388500000000001  0.38319  1.0000
  N   N3        1.0  0.48092  0.61837  0.10558  1.0000
  N   N4        1.0  0.64853  0.9312499999999999  0.46799  1.0000
  N   N5        1.0  0.62958  0.06026  0.61744  1.0000
  N   N6        1.0  0.5188500000000001  0.3816700000000001  0.89428  1.0000
  N   N7        1.0  0.8200799999999999  0.46837000000000006  0.53707  1.0000
  N   N8        1.0  0.9868099999999999  0.61707  0.55688  1.0000
  N   N9        1.0  0.37432999999999994  0.8938900000000001  0.51298  1.0000
  N   N10       1.0  0.1819  0.53214  0.46395  1.0000
  N   N11       1.0  0.01431000000000001  0.38331000000000004  0.44426  1.0000
  N   N12       1.0  0.62531  0.10579  0.48644999999999994  1.0000
  N   N13       1.0  0.28282  0.46348  0.93166  1.0000
  N   N14       1.0  0.43004  0.44354  0.0605  1.0000
  N   N15       1.0  0.8619  0.48675  0.38048  1.0000
  N   N16       1.0  0.71745  0.53618  0.06811  1.0000
  N   N17       1.0  0.57016  0.5560699999999998  0.9392799999999998  1.0000
  N   N18       1.0  0.13842999999999986  0.5127799999999999  0.6191999999999998  1.0000
