data_image0
_chemical_formula_structural       Cd8H120C184N16O24
_chemical_formula_sum              "Cd8 H120 C184 N16 O24"
_cell_length_a       18.91993
_cell_length_b       18.914
_cell_length_c       18.98395
_cell_angle_alpha    108.59972
_cell_angle_beta     108.64244
_cell_angle_gamma    111.14044

_space_group_name_H-M_alt    "P 1"
_space_group_IT_number       1

loop_
  _space_group_symop_operation_xyz
  'x, y, z'

loop_
  _atom_site_type_symbol
  _atom_site_label
  _atom_site_symmetry_multiplicity
  _atom_site_fract_x
  _atom_site_fract_y
  _atom_site_fract_z
  _atom_site_occupancy
  Cd  Cd1       1.0  0.27358  0.25777  0.39366  1.0000
  Cd  Cd2       1.0  0.86413  0.8802299999999997  0.60649  1.0000
  Cd  Cd3       1.0  0.74274  0.13698999999999997  0.0171  1.0000
  Cd  Cd4       1.0  0.11971999999999981  0.7254699999999998  0.9828999999999998  1.0000
  Cd  Cd5       1.0  0.97545  0.86978  0.4829499999999999  1.0000
  Cd  Cd6       1.0  0.3870199999999999  0.4927  0.51703  1.0000
  Cd  Cd7       1.0  0.50772  0.02364000000000001  0.89358  1.0000
  Cd  Cd8       1.0  0.1303099999999999  0.6141499999999998  0.10664  1.0000
  H   H1        1.0  0.28407  0.47388  0.63267  1.0000
  H   H2        1.0  0.16634000000000004  0.43081  0.67003  1.0000
  H   H3        1.0  0.042639999999999845  0.27826999999999985  0.5902099999999998  1.0000
  H   H4        1.0  0.9751799999999998  0.1214599999999999  0.47828999999999994  1.0000
  H   H5        1.0  0.9803699999999999  0.014289999999999992  0.36772  1.0000
  H   H6        1.0  0.16523  0.08854000000000002  0.3139  1.0000
  H   H7        1.0  0.9826099999999998  0.93751  0.24735999999999994  1.0000
  H   H8        1.0  0.92911  0.81273  0.11521  1.0000
  H   H9        1.0  0.9558  0.7245099999999999  0.0102  1.0000
  H   H10       1.0  0.21628999999999998  0.91596  0.13602  1.0000
  H   H11       1.0  0.20178  0.012209999999999995  0.24597  1.0000
  H   H12       1.0  0.42283  0.16935000000000006  0.5674  1.0000
  H   H13       1.0  0.51241  0.10452999999999985  0.6086099999999998  1.0000
  H   H14       1.0  0.48699999999999993  0.006979999999999928  0.3578699999999999  1.0000
  H   H15       1.0  0.39536999999999983  0.06958999999999994  0.3171799999999999  1.0000
  H   H16       1.0  0.8410599999999999  0.65124  0.36763  1.0000
  H   H17       1.0  0.7608799999999999  0.49606  0.33037  1.0000
  H   H18       1.0  0.68796  0.45203999999999994  0.40977999999999987  1.0000
  H   H19       1.0  0.6429199999999999  0.49652999999999997  0.52153  1.0000
  H   H20       1.0  0.64669  0.61256  0.63214  1.0000
  H   H21       1.0  0.77486  0.85149  0.68643  1.0000
  H   H22       1.0  0.69  0.73502  0.75226  1.0000
  H   H23       1.0  0.69781  0.81354  0.88449  1.0000
  H   H24       1.0  0.7141499999999997  0.9451899999999998  0.9894099999999998  1.0000
  H   H25       1.0  0.77962  0.08038999999999999  0.86405  1.0000
  H   H26       1.0  0.7663599999999999  0.9561199999999997  0.7543999999999997  1.0000
  H   H27       1.0  0.60181  0.8555100000000001  0.43241  1.0000
  H   H28       1.0  0.49569999999999975  0.9037799999999998  0.39106999999999986  1.0000
  H   H29       1.0  0.64886  0.12915999999999989  0.6420299999999998  1.0000
  H   H30       1.0  0.75223  0.07836  0.68277  1.0000
  H   H31       1.0  0.52585  0.15835000000000002  0.80892  1.0000
  H   H32       1.0  0.56956  0.23928999999999997  0.73504  1.0000
  H   H33       1.0  0.7226299999999999  0.3127699999999998  0.7651299999999998  1.0000
  H   H34       1.0  0.8789299999999999  0.35661  0.85383  1.0000
  H   H35       1.0  0.98596  0.3528  0.96618  1.0000
  H   H36       1.0  0.9110599999999999  0.22436999999999999  0.07597999999999998  1.0000
  H   H37       1.0  0.06274999999999999  0.31029999999999996  0.04566999999999999  1.0000
  H   H38       1.0  0.18725  0.30198  0.11671  1.0000
  H   H39       1.0  0.27532  0.28497  0.23179  1.0000
  H   H40       1.0  0.0828  0.21957  0.2994  1.0000
  H   H41       1.0  0.98661  0.23319999999999996  0.18837  1.0000
  H   H42       1.0  0.83125  0.39914  0.25468  1.0000
  H   H43       1.0  0.8953  0.5047099999999999  0.40783  1.0000
  H   H44       1.0  0.99297  0.35020999999999997  0.4796299999999999  1.0000
  H   H45       1.0  0.9308499999999998  0.24757999999999997  0.3265  1.0000
  H   H46       1.0  0.34933999999999993  0.7168199999999999  0.19061999999999996  1.0000
  H   H47       1.0  0.5043599999999999  0.8345199999999998  0.26478  1.0000
  H   H48       1.0  0.5478699999999999  0.9577399999999999  0.23509999999999995  1.0000
  H   H49       1.0  0.50314  0.02540000000000001  0.14631  1.0000
  H   H50       1.0  0.38686  0.01995  0.03406  1.0000
  H   H51       1.0  0.14823999999999976  0.8351299999999999  0.9239999999999998  1.0000
  H   H52       1.0  0.26475999999999983  0.01717999999999987  0.9544299999999998  1.0000
  H   H53       1.0  0.18577999999999997  0.07094999999999992  0.88399  1.0000
  H   H54       1.0  0.05376999999999996  0.044170000000000015  0.76888  1.0000
  H   H55       1.0  0.91974  0.78349  0.70023  1.0000
  H   H56       1.0  0.044369999999999944  0.79822  0.81116  1.0000
  H   H57       1.0  0.14490000000000003  0.577  0.74541  1.0000
  H   H58       1.0  0.09703999999999997  0.48784999999999995  0.59229  1.0000
  H   H59       1.0  0.87084  0.51367  0.5203599999999998  1.0000
  H   H60       1.0  0.92141  0.6047599999999999  0.6733899999999998  1.0000
  H   H61       1.0  0.9668899999999999  0.09940000000000003  0.69049  1.0000
  H   H62       1.0  0.08465999999999986  0.2544299999999998  0.7647299999999998  1.0000
  H   H63       1.0  0.2078799999999999  0.2979199999999999  0.7351299999999997  1.0000
  H   H64       1.0  0.2755199999999999  0.25311999999999985  0.6462899999999998  1.0000
  H   H65       1.0  0.26997  0.13684  0.53407  1.0000
  H   H66       1.0  0.08507999999999996  0.8982399999999999  0.42398  1.0000
  H   H67       1.0  0.26712  0.014719999999999994  0.4544  1.0000
  H   H68       1.0  0.32091  0.93573  0.3839599999999999  1.0000
  H   H69       1.0  0.29411  0.80386  0.26893  1.0000
  H   H70       1.0  0.0335  0.66976  0.20025  1.0000
  H   H71       1.0  0.048200000000000034  0.79428  0.31114  1.0000
  H   H72       1.0  0.8270099999999999  0.8948699999999998  0.24534  1.0000
  H   H73       1.0  0.73779  0.84702  0.09216999999999997  1.0000
  H   H74       1.0  0.76366  0.62088  0.02034  1.0000
  H   H75       1.0  0.85483  0.67144  0.17345999999999995  1.0000
  H   H76       1.0  0.40830999999999995  0.27586  0.30901  1.0000
  H   H77       1.0  0.48924999999999996  0.31964  0.23519999999999994  1.0000
  H   H78       1.0  0.56272  0.47274  0.26527  1.0000
  H   H79       1.0  0.60658  0.6290799999999999  0.35396  1.0000
  H   H80       1.0  0.6028  0.73604  0.46621  1.0000
  H   H81       1.0  0.47438  0.66106  0.57598  1.0000
  H   H82       1.0  0.5603199999999999  0.8128799999999999  0.54577  1.0000
  H   H83       1.0  0.55203  0.93749  0.61683  1.0000
  H   H84       1.0  0.535  0.025409999999999967  0.73179  1.0000
  H   H85       1.0  0.4695099999999998  0.8326899999999999  0.7993499999999998  1.0000
  H   H86       1.0  0.48315999999999987  0.7366299999999999  0.6883999999999998  1.0000
  H   H87       1.0  0.64913  0.58129  0.75474  1.0000
  H   H88       1.0  0.75473  0.64537  0.90796  1.0000
  H   H89       1.0  0.60026  0.7429  0.97957  1.0000
  H   H90       1.0  0.4975499999999998  0.6807699999999998  0.82637  1.0000
  H   H91       1.0  0.7239199999999999  0.03400999999999996  0.13261999999999993  1.0000
  H   H92       1.0  0.68093  0.9163299999999999  0.17014  1.0000
  H   H93       1.0  0.52837  0.79265  0.09039  1.0000
  H   H94       1.0  0.3715899999999998  0.7252099999999999  0.9784999999999998  1.0000
  H   H95       1.0  0.26433  0.7303799999999999  0.8678  1.0000
  H   H96       1.0  0.33856999999999987  0.91524  0.81386  1.0000
  H   H97       1.0  0.18757  0.73256  0.74746  1.0000
  H   H98       1.0  0.06292999999999999  0.67912  0.6154  1.0000
  H   H99       1.0  0.97449  0.70571  0.51019  1.0000
  H   H100      1.0  0.16582  0.96624  0.63592  1.0000
  H   H101      1.0  0.2622200000000001  0.95181  0.74602  1.0000
  H   H102      1.0  0.41944  0.17281  0.06744999999999997  1.0000
  H   H103      1.0  0.35460999999999987  0.2623199999999999  0.10861999999999997  1.0000
  H   H104      1.0  0.25695000000000007  0.23696000000000003  0.85776  1.0000
  H   H105      1.0  0.31955999999999984  0.14540999999999982  0.8171599999999998  1.0000
  H   H106      1.0  0.90131  0.5911699999999998  0.86763  1.0000
  H   H107      1.0  0.7461499999999998  0.5109999999999998  0.8303099999999998  1.0000
  H   H108      1.0  0.7021  0.43803999999999993  0.9096899999999998  1.0000
  H   H109      1.0  0.74653  0.39296  0.021429999999999994  1.0000
  H   H110      1.0  0.86254  0.39666  0.13213  1.0000
  H   H111      1.0  0.10142999999999991  0.5247799999999998  0.18645  1.0000
  H   H112      1.0  0.98503  0.44001  0.25229  1.0000
  H   H113      1.0  0.06358999999999992  0.44780999999999993  0.3844799999999999  1.0000
  H   H114      1.0  0.19539999999999985  0.4642399999999998  0.4895299999999999  1.0000
  H   H115      1.0  0.33036  0.52962  0.36406  1.0000
  H   H116      1.0  0.20598  0.51628  0.25434  1.0000
  H   H117      1.0  0.10544999999999989  0.3517299999999998  0.9323099999999998  1.0000
  H   H118      1.0  0.15375999999999984  0.2457099999999998  0.8910499999999998  1.0000
  H   H119      1.0  0.37923  0.39888999999999997  0.14207  1.0000
  H   H120      1.0  0.32836999999999994  0.50215  0.18272999999999995  1.0000
  C   C1        1.0  0.22753000000000004  0.34717  0.52772  1.0000
  C   C2        1.0  0.22897999999999988  0.4072199999999998  0.5956899999999998  1.0000
  C   C3        1.0  0.16242  0.38214  0.61664  1.0000
  C   C4        1.0  0.0926599999999999  0.2971399999999999  0.5721899999999998  1.0000
  C   C5        1.0  0.08935999999999998  0.23329  0.50522  1.0000
  C   C6        1.0  0.15589000000000003  0.25755  0.48201  1.0000
  C   C7        1.0  0.02506999999999998  0.14327999999999994  0.46056  1.0000
  C   C8        1.0  0.027339999999999996  0.0835  0.39821  1.0000
  C   C9        1.0  0.09420000000000002  0.11300999999999997  0.37716  1.0000
  C   C10       1.0  0.10362999999999997  0.05659999999999998  0.31276  1.0000
  C   C11       1.0  0.04612999999999993  0.9718299999999999  0.25294  1.0000
  C   C12       1.0  0.06256999999999999  0.9211899999999998  0.19095  1.0000
  C   C13       1.0  0.9939199999999998  0.83849  0.12224  1.0000
  C   C14       1.0  0.008369999999999987  0.78884  0.06299  1.0000
  C   C15       1.0  0.15349000000000002  0.89573  0.13345  1.0000
  C   C16       1.0  0.14453999999999997  0.94935  0.1952  1.0000
  C   C17       1.0  0.35248  0.16499  0.41826  1.0000
  C   C18       1.0  0.40381999999999996  0.12341999999999995  0.4399599999999999  1.0000
  C   C19       1.0  0.43698999999999977  0.13301999999999986  0.5221899999999998  1.0000
  C   C20       1.0  0.4874299999999999  0.0975799999999999  0.5450799999999998  1.0000
  C   C21       1.0  0.50699  0.05251999999999993  0.48670999999999986  1.0000
  C   C22       1.0  0.47228999999999993  0.04159  0.40376  1.0000
  C   C23       1.0  0.42122999999999994  0.07668999999999998  0.38071  1.0000
  C   C24       1.0  0.81928  0.69966  0.4724299999999999  1.0000
  C   C25       1.0  0.8113400000000003  0.6331  0.40449  1.0000
  C   C26       1.0  0.76535  0.54551  0.38355  1.0000
  C   C27       1.0  0.72472  0.52016  0.4278099999999999  1.0000
  C   C28       1.0  0.7277699999999999  0.5838899999999999  0.4946899999999999  1.0000
  C   C29       1.0  0.77529  0.67373  0.51797  1.0000
  C   C30       1.0  0.6825  0.56423  0.53928  1.0000
  C   C31       1.0  0.68525  0.6290399999999999  0.60163  1.0000
  C   C32       1.0  0.73581  0.71706  0.62275  1.0000
  C   C33       1.0  0.7439199999999999  0.7908999999999998  0.68729  1.0000
  C   C34       1.0  0.7189300000000001  0.79312  0.74701  1.0000
  C   C35       1.0  0.7303399999999998  0.8716099999999998  0.8090699999999997  1.0000
  C   C36       1.0  0.7163499999999999  0.8714499999999997  0.87762  1.0000
  C   C37       1.0  0.7257699999999998  0.9451499999999999  0.9367899999999998  1.0000
  C   C38       1.0  0.76212  0.02012000000000002  0.86662  1.0000
  C   C39       1.0  0.7542  0.94945  0.8049899999999998  1.0000
  C   C40       1.0  0.7467  0.93465  0.58187  1.0000
  C   C41       1.0  0.68329  0.9640499999999999  0.55991  1.0000
  C   C42       1.0  0.6106399999999998  0.9148899999999999  0.47760999999999987  1.0000
  C   C43       1.0  0.5522799999999999  0.9423999999999999  0.45466  1.0000
  C   C44       1.0  0.5655299999999999  0.020339999999999976  0.51303  1.0000
  C   C45       1.0  0.63756  0.06859000000000001  0.59604  1.0000
  C   C46       1.0  0.6957599999999999  0.04068999999999991  0.6191799999999997  1.0000
  C   C47       1.0  0.65286  0.18087999999999999  0.88036  1.0000
  C   C48       1.0  0.5928  0.18848999999999994  0.82126  1.0000
  C   C49       1.0  0.6182099999999999  0.2347099999999999  0.7800799999999998  1.0000
  C   C50       1.0  0.7034099999999999  0.27553999999999984  0.7958599999999998  1.0000
  C   C51       1.0  0.76709  0.2722300000000001  0.85645  1.0000
  C   C52       1.0  0.7426299999999999  0.2248599999999999  0.8986899999999998  1.0000
  C   C53       1.0  0.8571  0.31722999999999996  0.88203  1.0000
  C   C54       1.0  0.91671  0.31439999999999996  0.94397  1.0000
  C   C55       1.0  0.8870400000000002  0.26406  0.98139  1.0000
  C   C56       1.0  0.9432899999999997  0.25570999999999994  0.04686999999999999  1.0000
  C   C57       1.0  0.02822  0.28099  0.07434  1.0000
  C   C58       1.0  0.07858999999999997  0.26938  0.14122999999999994  1.0000
  C   C59       1.0  0.16142  0.28325  0.15559999999999993  1.0000
  C   C60       1.0  0.21087000000000003  0.27357  0.21971  1.0000
  C   C61       1.0  0.10323999999999998  0.23719999999999997  0.25708  1.0000
  C   C62       1.0  0.04972999999999998  0.24528999999999998  0.19440999999999994  1.0000
  C   C63       1.0  0.8357699999999999  0.25376999999999994  0.18878  1.0000
  C   C64       1.0  0.8769399999999999  0.31694  0.28126  1.0000
  C   C65       1.0  0.8673500000000001  0.38981  0.30485  1.0000
  C   C66       1.0  0.9025800000000002  0.44809  0.39037  1.0000
  C   C67       1.0  0.94755  0.4344699999999999  0.45480999999999994  1.0000
  C   C68       1.0  0.9585099999999999  0.3621899999999999  0.43091  1.0000
  C   C69       1.0  0.9235599999999999  0.3041  0.34513  1.0000
  C   C70       1.0  0.30051000000000005  0.7726800000000001  0.11962  1.0000
  C   C71       1.0  0.36721  0.77159  0.17854  1.0000
  C   C72       1.0  0.45474  0.8382  0.21981999999999993  1.0000
  C   C73       1.0  0.4798499999999999  0.9077199999999999  0.20421  1.0000
  C   C74       1.0  0.41598  0.91089  0.14365999999999995  1.0000
  C   C75       1.0  0.32626  0.84415  0.10140999999999997  1.0000
  C   C76       1.0  0.43548999999999993  0.97533  0.11813999999999997  1.0000
  C   C77       1.0  0.3706  0.97291  0.05620999999999999  1.0000
  C   C78       1.0  0.28273  0.90576  0.01877  1.0000
  C   C79       1.0  0.2088499999999999  0.8964399999999999  0.9531999999999998  1.0000
  C   C80       1.0  0.20672999999999997  0.95389  0.92572  1.0000
  C   C81       1.0  0.12819999999999987  0.9374299999999999  0.8588399999999998  1.0000
  C   C82       1.0  0.12802999999999995  0.006150000000000003  0.84483  1.0000
  C   C83       1.0  0.054279999999999926  0.9916599999999999  0.78075  1.0000
  C   C84       1.0  0.97988  0.84635  0.7427  1.0000
  C   C85       1.0  0.05063000000000001  0.8554  0.80532  1.0000
  C   C86       1.0  0.06539  0.64694  0.81135  1.0000
  C   C87       1.0  0.03600999999999997  0.59594  0.71884  1.0000
  C   C88       1.0  0.08528999999999992  0.5628399999999999  0.6952499999999998  1.0000
  C   C89       1.0  0.057909999999999975  0.51254  0.60972  1.0000
  C   C90       1.0  0.9797699999999999  0.49294999999999994  0.5452599999999997  1.0000
  C   C91       1.0  0.93151  0.5279199999999998  0.5691599999999998  1.0000
  C   C92       1.0  0.9593099999999999  0.57879  0.65495  1.0000
  C   C93       1.0  0.02273999999999988  0.05053999999999987  0.6195799999999998  1.0000
  C   C94       1.0  0.021679999999999883  0.11726999999999992  0.6784699999999998  1.0000
  C   C95       1.0  0.0883099999999999  0.20479999999999984  0.7197599999999997  1.0000
  C   C96       1.0  0.15783999999999984  0.22988999999999982  0.7041799999999998  1.0000
  C   C97       1.0  0.16095999999999985  0.16599999999999987  0.6436299999999998  1.0000
  C   C98       1.0  0.09417999999999999  0.07626999999999996  0.60137  1.0000
  C   C99       1.0  0.22538999999999995  0.1854799999999999  0.6181199999999999  1.0000
  C   C100      1.0  0.2229299999999999  0.1205699999999999  0.5561899999999997  1.0000
  C   C101      1.0  0.15573999999999988  0.03270999999999989  0.5187399999999998  1.0000
  C   C102      1.0  0.14640999999999998  0.95884  0.4531899999999999  1.0000
  C   C103      1.0  0.20384  0.9567  0.42573  1.0000
  C   C104      1.0  0.18737999999999994  0.87818  0.3588699999999999  1.0000
  C   C105      1.0  0.25608000000000003  0.8780399999999999  0.34486  1.0000
  C   C106      1.0  0.2416  0.80433  0.28078  1.0000
  C   C107      1.0  0.09634999999999998  0.7298799999999999  0.24271  1.0000
  C   C108      1.0  0.10538999999999987  0.8005999999999999  0.30531999999999987  1.0000
  C   C109      1.0  0.8969499999999999  0.81534  0.31136  1.0000
  C   C110      1.0  0.8459599999999999  0.78599  0.21883  1.0000
  C   C111      1.0  0.81284  0.83527  0.1952  1.0000
  C   C112      1.0  0.7625299999999999  0.8079199999999997  0.10965999999999997  1.0000
  C   C113      1.0  0.74299  0.7298099999999997  0.04526  1.0000
  C   C114      1.0  0.77794  0.68153  0.06916999999999997  1.0000
  C   C115      1.0  0.8288099999999999  0.70932  0.15497  1.0000
  C   C116      1.0  0.43083  0.40287  0.38036  1.0000
  C   C117      1.0  0.43846  0.34282999999999997  0.3213199999999999  1.0000
  C   C118      1.0  0.48469  0.3683  0.2802  1.0000
  C   C119      1.0  0.52551  0.45352  0.29599  1.0000
  C   C120      1.0  0.5222199999999998  0.5172  0.35656  1.0000
  C   C121      1.0  0.4748399999999999  0.49265999999999993  0.3987399999999999  1.0000
  C   C122      1.0  0.56721  0.60721  0.38213  1.0000
  C   C123      1.0  0.56439  0.6668  0.44406  1.0000
  C   C124      1.0  0.5140599999999999  0.6370799999999996  0.4814599999999999  1.0000
  C   C125      1.0  0.50573  0.69334  0.54692  1.0000
  C   C126      1.0  0.5309999999999998  0.7782899999999998  0.5743999999999998  1.0000
  C   C127      1.0  0.5193899999999999  0.8286499999999999  0.64126  1.0000
  C   C128      1.0  0.53329  0.91152  0.65564  1.0000
  C   C129      1.0  0.5236  0.9609399999999999  0.71973  1.0000
  C   C130      1.0  0.48718  0.8532400000000001  0.75709  1.0000
  C   C131      1.0  0.49527999999999994  0.7997599999999999  0.69443  1.0000
  C   C132      1.0  0.50375  0.58571  0.68876  1.0000
  C   C133      1.0  0.56692  0.62692  0.78124  1.0000
  C   C134      1.0  0.6398099999999999  0.6173799999999998  0.8049  1.0000
  C   C135      1.0  0.6981099999999998  0.65262  0.8904199999999998  1.0000
  C   C136      1.0  0.68451  0.6975899999999999  0.9548099999999998  1.0000
  C   C137      1.0  0.6122  0.7084699999999999  0.93085  1.0000
  C   C138      1.0  0.5540899999999999  0.67352  0.8450599999999998  1.0000
  C   C139      1.0  0.5972  0.97751  0.02769  1.0000
  C   C140      1.0  0.6572599999999998  0.97896  0.09568  1.0000
  C   C141      1.0  0.63225  0.9124199999999999  0.11673  1.0000
  C   C142      1.0  0.54725  0.8426599999999997  0.07233  1.0000
  C   C143      1.0  0.48338  0.83935  0.00532  1.0000
  C   C144      1.0  0.50759  0.90586  0.98203  1.0000
  C   C145      1.0  0.3933599999999998  0.7750599999999997  0.9606799999999998  1.0000
  C   C146      1.0  0.33354999999999996  0.7773199999999999  0.8982899999999998  1.0000
  C   C147      1.0  0.36304  0.84417  0.87718  1.0000
  C   C148      1.0  0.30663  0.85363  0.81276  1.0000
  C   C149      1.0  0.2218399999999999  0.79607  0.7529699999999998  1.0000
  C   C150      1.0  0.17119  0.81255  0.69097  1.0000
  C   C151      1.0  0.08852  0.74388  0.62227  1.0000
  C   C152      1.0  0.03882000000000003  0.75829  0.56298  1.0000
  C   C153      1.0  0.14569999999999994  0.9034699999999999  0.63344  1.0000
  C   C154      1.0  0.19935999999999987  0.8945499999999997  0.69522  1.0000
  C   C155      1.0  0.415  0.10248  0.9183  1.0000
  C   C156      1.0  0.3734499999999999  0.15382999999999988  0.9399899999999998  1.0000
  C   C157      1.0  0.38308  0.18697  0.02221  1.0000
  C   C158      1.0  0.34764  0.23741  0.04508  1.0000
  C   C159      1.0  0.3025599999999999  0.2569999999999999  0.98668  1.0000
  C   C160      1.0  0.29159  0.22228999999999996  0.90373  1.0000
  C   C161      1.0  0.3266799999999999  0.17123999999999992  0.8807099999999998  1.0000
  C   C162      1.0  0.94969  0.56931  0.97245  1.0000
  C   C163      1.0  0.88316  0.56143  0.90448  1.0000
  C   C164      1.0  0.79559  0.51545  0.8835  1.0000
  C   C165      1.0  0.77021  0.47478  0.92774  1.0000
  C   C166      1.0  0.8339099999999999  0.4778099999999999  0.9946499999999998  1.0000
  C   C167      1.0  0.92375  0.52532  0.01798  1.0000
  C   C168      1.0  0.81422  0.43251  0.03921  1.0000
  C   C169      1.0  0.87899  0.43522  0.10158999999999997  1.0000
  C   C170      1.0  0.967  0.48575999999999997  0.12273999999999997  1.0000
  C   C171      1.0  0.040839999999999946  0.49384999999999996  0.18727999999999995  1.0000
  C   C172      1.0  0.04310999999999999  0.4689  0.24702  1.0000
  C   C173      1.0  0.12161999999999998  0.48031999999999997  0.30909  1.0000
  C   C174      1.0  0.12152  0.46636  0.37767  1.0000
  C   C175      1.0  0.19525999999999996  0.4758299999999999  0.43687  1.0000
  C   C176      1.0  0.27012  0.51213  0.36664  1.0000
  C   C177      1.0  0.19942  0.50416  0.30499  1.0000
  C   C178      1.0  0.18461  0.4966  0.08192  1.0000
  C   C179      1.0  0.21401999999999996  0.43321999999999994  0.059889999999999985  1.0000
  C   C180      1.0  0.16485000000000002  0.3606  0.97757  1.0000
  C   C181      1.0  0.19239999999999988  0.30227999999999994  0.95464  1.0000
  C   C182      1.0  0.27037  0.31553  0.01301  1.0000
  C   C183      1.0  0.31862  0.38753  0.09603  1.0000
  C   C184      1.0  0.29067999999999994  0.44569  0.11914  1.0000
  N   N1        1.0  0.15555  0.19795  0.41874  1.0000
  N   N2        1.0  0.08718999999999993  0.81624  0.0678  1.0000
  N   N3        1.0  0.77907  0.73684  0.58122  1.0000
  N   N4        1.0  0.7481800000000001  0.01923000000000004  0.93206  1.0000
  N   N5        1.0  0.8021199999999998  0.22110999999999992  0.9580299999999998  1.0000
  N   N6        1.0  0.18298  0.25113  0.27077  1.0000
  N   N7        1.0  0.26309  0.84422  0.04207  1.0000
  N   N8        1.0  0.9804899999999999  0.9127099999999999  0.72943  1.0000
  N   N9        1.0  0.09420999999999988  0.013079999999999883  0.5420299999999998  1.0000
  N   N10       1.0  0.16267999999999996  0.7305299999999999  0.22943999999999995  1.0000
  N   N11       1.0  0.47109999999999996  0.55214  0.4580799999999999  1.0000
  N   N12       1.0  0.50113  0.933  0.7707599999999998  1.0000
  N   N13       1.0  0.44795999999999986  0.9054999999999999  0.9187299999999998  1.0000
  N   N14       1.0  0.0662199999999999  0.8371399999999998  0.56779  1.0000
  N   N15       1.0  0.98683  0.52906  0.08123999999999998  1.0000
  N   N16       1.0  0.26932  0.49824  0.43213  1.0000
  O   O1        1.0  0.2875  0.36819  0.50508  1.0000
  O   O2        1.0  0.32076999999999994  0.1555999999999999  0.3430899999999999  1.0000
  O   O3        1.0  0.34293999999999997  0.2095799999999999  0.4771799999999999  1.0000
  O   O4        1.0  0.8631999999999997  0.7823799999999997  0.49531999999999987  1.0000
  O   O5        1.0  0.81236  0.9782199999999999  0.6571899999999998  1.0000
  O   O6        1.0  0.7325399999999997  0.8662099999999998  0.5229799999999998  1.0000
  O   O7        1.0  0.6318199999999996  0.13737999999999995  0.9193799999999998  1.0000
  O   O8        1.0  0.84529  0.18786  0.1667  1.0000
  O   O9        1.0  0.79132  0.2684  0.13473  1.0000
  O   O10       1.0  0.21784999999999988  0.7126799999999998  0.08065  1.0000
  O   O11       1.0  0.021459999999999903  0.6783199999999999  0.8335099999999998  1.0000
  O   O12       1.0  0.1340599999999999  0.65645  0.8653299999999998  1.0000
  O   O13       1.0  0.9627499999999999  0.96787  0.5806899999999998  1.0000
  O   O14       1.0  0.9283900000000002  0.77147  0.3336  1.0000
  O   O15       1.0  0.90636  0.88397  0.36528  1.0000
  O   O16       1.0  0.3872699999999999  0.38178999999999996  0.4192999999999999  1.0000
  O   O17       1.0  0.43784000000000006  0.59521  0.66656  1.0000
  O   O18       1.0  0.51842  0.54125  0.6348  1.0000
  O   O19       1.0  0.61818  0.037469999999999996  0.00498  1.0000
  O   O20       1.0  0.40549  0.07075999999999999  0.84309  1.0000
  O   O21       1.0  0.4596799999999999  0.09294000000000004  0.97721  1.0000
  O   O22       1.0  0.03239999999999997  0.61317  0.99536  1.0000
  O   O23       1.0  0.22819  0.56215  0.15728  1.0000
  O   O24       1.0  0.1162  0.48256  0.023049999999999994  1.0000
