data_image0
_chemical_formula_structural       Zn8H144C144N32O32
_chemical_formula_sum              "Zn8 H144 C144 N32 O32"
_cell_length_a       16.62494
_cell_length_b       17.51831
_cell_length_c       17.87008
_cell_angle_alpha    90.00627
_cell_angle_beta     90.0
_cell_angle_gamma    90.0

_symmetry_space_group_name_H-M    'P 1'
_symmetry_Int_Tables_number       1

loop_
  _symmetry_equiv_pos_as_xyz
  'x,y,z'

loop_
  _atom_site_type_symbol
  _atom_site_label
  _atom_site_symmetry_multiplicity
  _atom_site_fract_x
  _atom_site_fract_y
  _atom_site_fract_z
  _atom_site_occupancy
  Zn  Zn1       1.0  0.27483  0.89577  0.6187  1.0000
  Zn  Zn2       1.0  0.77483  0.60422  0.3813  1.0000
  Zn  Zn3       1.0  0.77483  0.39582  0.88126  1.0000
  Zn  Zn4       1.0  0.27483  0.10418  0.11874  1.0000
  Zn  Zn5       1.0  0.22517000000000004  0.60418  0.11874  1.0000
  Zn  Zn6       1.0  0.72517  0.89582  0.88126  1.0000
  Zn  Zn7       1.0  0.72517  0.10423  0.3813  1.0000
  Zn  Zn8       1.0  0.22517000000000004  0.39577  0.6187  1.0000
  H   H1        1.0  0.27559  0.0812  0.59057  1.0000
  H   H2        1.0  0.14288  0.02226  0.18383  1.0000
  H   H3        1.0  0.21813  0.84885  0.44825999999999994  1.0000
  H   H4        1.0  0.32418  0.84931  0.45876999999999996  1.0000
  H   H5        1.0  0.27975  0.88037  0.37276  1.0000
  H   H6        1.0  0.25031  0.20053999999999994  0.51752  1.0000
  H   H7        1.0  0.20077  0.18535  0.43032  1.0000
  H   H8        1.0  0.30711  0.19553  0.43327  1.0000
  H   H9        1.0  0.0921  0.90937  0.30655  1.0000
  H   H10       1.0  0.04564  0.99916  0.3244  1.0000
  H   H11       1.0  0.10758  0.95677  0.3933  1.0000
  H   H12       1.0  0.41232  0.08699  0.24816  1.0000
  H   H13       1.0  0.3981  0.08831  0.34722  1.0000
  H   H14       1.0  0.3652  0.16619  0.29106  1.0000
  H   H15       1.0  0.09579  0.73793  0.55081  1.0000
  H   H16       1.0  0.99253  0.67014  0.47178000000000003  1.0000
  H   H17       1.0  0.88568  0.88552  0.41634  1.0000
  H   H18       1.0  0.98171  0.95173  0.50036  1.0000
  H   H19       1.0  0.77559  0.4188  0.40943  1.0000
  H   H20       1.0  0.64289  0.47773  0.81616  1.0000
  H   H21       1.0  0.71813  0.65114  0.55173  1.0000
  H   H22       1.0  0.82418  0.65068  0.54122  1.0000
  H   H23       1.0  0.77976  0.61963  0.62724  1.0000
  H   H24       1.0  0.75031  0.29946  0.4824800000000001  1.0000
  H   H25       1.0  0.70077  0.31465  0.56968  1.0000
  H   H26       1.0  0.80711  0.30446999999999996  0.56672  1.0000
  H   H27       1.0  0.5921  0.59063  0.69345  1.0000
  H   H28       1.0  0.54564  0.50084  0.6756  1.0000
  H   H29       1.0  0.60758  0.54322  0.60669  1.0000
  H   H30       1.0  0.91232  0.41301  0.75184  1.0000
  H   H31       1.0  0.8981  0.41169  0.65278  1.0000
  H   H32       1.0  0.8652  0.33381  0.70893  1.0000
  H   H33       1.0  0.5958  0.76207  0.44918  1.0000
  H   H34       1.0  0.49252999999999997  0.82985  0.52822  1.0000
  H   H35       1.0  0.38567  0.61447  0.58366  1.0000
  H   H36       1.0  0.48171  0.54826  0.49964  1.0000
  H   H37       1.0  0.77561  0.5812  0.9094300000000001  1.0000
  H   H38       1.0  0.64298  0.52211  0.31618  1.0000
  H   H39       1.0  0.71814  0.34886  0.05169  1.0000
  H   H40       1.0  0.82419  0.34931  0.0412  1.0000
  H   H41       1.0  0.77977  0.38042  0.12721  1.0000
  H   H42       1.0  0.7503  0.7005  0.98248  1.0000
  H   H43       1.0  0.70076  0.68533  0.06969  1.0000
  H   H44       1.0  0.8071  0.69556  0.06673  1.0000
  H   H45       1.0  0.59215  0.40937  0.19342  1.0000
  H   H46       1.0  0.54565  0.49915  0.17559  1.0000
  H   H47       1.0  0.60761  0.45677999999999996  0.10668  1.0000
  H   H48       1.0  0.91236  0.58701  0.25183  1.0000
  H   H49       1.0  0.89811  0.58831  0.15277  1.0000
  H   H50       1.0  0.86521  0.66618  0.20895  1.0000
  H   H51       1.0  0.5958  0.23797  0.94927  1.0000
  H   H52       1.0  0.49257000000000006  0.17016  0.02826  1.0000
  H   H53       1.0  0.38567  0.38549  0.08374  1.0000
  H   H54       1.0  0.48172999999999994  0.45176  0.99981  1.0000
  H   H55       1.0  0.27561  0.9188000000000001  0.09057  1.0000
  H   H56       1.0  0.14298  0.9778899999999999  0.68382  1.0000
  H   H57       1.0  0.21814  0.15114  0.9483100000000001  1.0000
  H   H58       1.0  0.32419  0.15069  0.9588  1.0000
  H   H59       1.0  0.27977  0.11957999999999999  0.87279  1.0000
  H   H60       1.0  0.2503  0.79949  0.01752  1.0000
  H   H61       1.0  0.20075000000000004  0.81467  0.9303099999999999  1.0000
  H   H62       1.0  0.3071  0.80443  0.93326  1.0000
  H   H63       1.0  0.09215  0.09063  0.80658  1.0000
  H   H64       1.0  0.04565  0.0008400000000000001  0.82441  1.0000
  H   H65       1.0  0.10761  0.04322  0.89332  1.0000
  H   H66       1.0  0.41236000000000006  0.9129899999999999  0.74817  1.0000
  H   H67       1.0  0.39811  0.91168  0.84723  1.0000
  H   H68       1.0  0.36521  0.8338099999999999  0.79105  1.0000
  H   H69       1.0  0.0958  0.26203  0.05073  1.0000
  H   H70       1.0  0.9925700000000001  0.32983  0.9717400000000002  1.0000
  H   H71       1.0  0.88567  0.11450999999999999  0.9162600000000001  1.0000
  H   H72       1.0  0.9817300000000001  0.04824  0.00018  1.0000
  H   H73       1.0  0.22439  0.4188  0.09057  1.0000
  H   H74       1.0  0.35702  0.4778899999999999  0.68382  1.0000
  H   H75       1.0  0.28186  0.65114  0.9483100000000001  1.0000
  H   H76       1.0  0.17582  0.65069  0.9588  1.0000
  H   H77       1.0  0.22023  0.61958  0.87279  1.0000
  H   H78       1.0  0.2497  0.2994899999999999  0.01752  1.0000
  H   H79       1.0  0.29925  0.31467  0.9303099999999999  1.0000
  H   H80       1.0  0.19290000000000002  0.30443  0.93326  1.0000
  H   H81       1.0  0.40785  0.59063  0.80658  1.0000
  H   H82       1.0  0.45435  0.50084  0.82441  1.0000
  H   H83       1.0  0.39239  0.54322  0.89332  1.0000
  H   H84       1.0  0.08764  0.41299  0.74817  1.0000
  H   H85       1.0  0.1019  0.41168  0.84723  1.0000
  H   H86       1.0  0.13479  0.33381  0.79105  1.0000
  H   H87       1.0  0.40420000000000006  0.76203  0.05073  1.0000
  H   H88       1.0  0.50743  0.8298299999999997  0.9717400000000002  1.0000
  H   H89       1.0  0.61433  0.61451  0.9162600000000001  1.0000
  H   H90       1.0  0.51827  0.54824  0.00018  1.0000
  H   H91       1.0  0.7244  0.0812  0.9094300000000001  1.0000
  H   H92       1.0  0.8570200000000002  0.02211  0.31618  1.0000
  H   H93       1.0  0.78186  0.84886  0.05169  1.0000
  H   H94       1.0  0.67582  0.84931  0.0412  1.0000
  H   H95       1.0  0.72024  0.88042  0.12721  1.0000
  H   H96       1.0  0.74971  0.2005  0.98248  1.0000
  H   H97       1.0  0.79925  0.18533  0.06969  1.0000
  H   H98       1.0  0.69291  0.19557  0.06673  1.0000
  H   H99       1.0  0.90785  0.90937  0.19342  1.0000
  H   H100      1.0  0.95435  0.99915  0.17559  1.0000
  H   H101      1.0  0.89239  0.9567799999999999  0.10668  1.0000
  H   H102      1.0  0.58764  0.08701  0.25183  1.0000
  H   H103      1.0  0.6019000000000001  0.08832  0.15277  1.0000
  H   H104      1.0  0.63479  0.16619  0.20895  1.0000
  H   H105      1.0  0.9042  0.73797  0.94927  1.0000
  H   H106      1.0  0.00743  0.67016  0.02826  1.0000
  H   H107      1.0  0.11433000000000003  0.88549  0.08374  1.0000
  H   H108      1.0  0.01827  0.9517599999999999  0.99981  1.0000
  H   H109      1.0  0.72441  0.9188000000000001  0.40943  1.0000
  H   H110      1.0  0.85712  0.9777300000000001  0.81616  1.0000
  H   H111      1.0  0.78187  0.15114  0.55173  1.0000
  H   H112      1.0  0.67582  0.15069  0.54122  1.0000
  H   H113      1.0  0.72025  0.11962999999999999  0.62724  1.0000
  H   H114      1.0  0.74969  0.79946  0.4824800000000001  1.0000
  H   H115      1.0  0.79924  0.81465  0.56968  1.0000
  H   H116      1.0  0.69289  0.80447  0.56672  1.0000
  H   H117      1.0  0.9079  0.09063  0.69345  1.0000
  H   H118      1.0  0.9543600000000001  0.00084  0.6756  1.0000
  H   H119      1.0  0.89242  0.04322  0.60669  1.0000
  H   H120      1.0  0.58768  0.91301  0.75184  1.0000
  H   H121      1.0  0.6019000000000001  0.91169  0.65278  1.0000
  H   H122      1.0  0.6348  0.8338099999999999  0.70893  1.0000
  H   H123      1.0  0.90421  0.26207  0.4491899999999999  1.0000
  H   H124      1.0  0.007470000000000001  0.32986  0.52822  1.0000
  H   H125      1.0  0.11433000000000003  0.11446999999999999  0.58366  1.0000
  H   H126      1.0  0.01829  0.04826  0.49964  1.0000
  H   H127      1.0  0.22441000000000003  0.5812  0.59057  1.0000
  H   H128      1.0  0.35712  0.52226  0.18383  1.0000
  H   H129      1.0  0.28187  0.34884999999999994  0.44825999999999994  1.0000
  H   H130      1.0  0.17582  0.34931  0.45876999999999996  1.0000
  H   H131      1.0  0.22025  0.38037  0.37276  1.0000
  H   H132      1.0  0.24969  0.70054  0.51752  1.0000
  H   H133      1.0  0.29924  0.6853499999999999  0.43032  1.0000
  H   H134      1.0  0.19289  0.69553  0.43327  1.0000
  H   H135      1.0  0.4079  0.40937  0.30655  1.0000
  H   H136      1.0  0.45436  0.49916  0.3244  1.0000
  H   H137      1.0  0.39242  0.45677999999999996  0.3933  1.0000
  H   H138      1.0  0.08768  0.58698  0.24816  1.0000
  H   H139      1.0  0.1019  0.58831  0.34722  1.0000
  H   H140      1.0  0.1348  0.66618  0.29106  1.0000
  H   H141      1.0  0.40421  0.23793  0.55081  1.0000
  H   H142      1.0  0.50747  0.17014  0.47178000000000003  1.0000
  H   H143      1.0  0.61433  0.38551999999999986  0.41634  1.0000
  H   H144      1.0  0.5183  0.45174  0.50036  1.0000
  C   C1        1.0  0.27329  0.88013  0.43383  1.0000
  C   C2        1.0  0.27035  0.9601399999999999  0.46224  1.0000
  C   C3        1.0  0.25805  0.027809999999999998  0.42061  1.0000
  C   C4        1.0  0.26219  0.08781  0.47235  1.0000
  C   C5        1.0  0.25485  0.17189  0.4630500000000001  1.0000
  C   C6        1.0  0.10073  0.9654899999999998  0.33289  1.0000
  C   C7        1.0  0.1731  0.00525  0.30295  1.0000
  C   C8        1.0  0.24169  0.03274  0.34043  1.0000
  C   C9        1.0  0.29113  0.0657  0.28485  1.0000
  C   C10       1.0  0.37104  0.10365  0.29328  1.0000
  C   C11       1.0  0.10785  0.88817  0.57761  1.0000
  C   C12       1.0  0.04553  0.84896  0.53063  1.0000
  C   C13       1.0  0.04891  0.76931  0.5217  1.0000
  C   C14       1.0  0.99242  0.73192  0.47754  1.0000
  C   C15       1.0  0.93097  0.8532899999999998  0.44674  1.0000
  C   C16       1.0  0.9854700000000001  0.89035  0.49346  1.0000
  C   C17       1.0  0.86926  0.73344  0.39523  1.0000
  C   C18       1.0  0.93317  0.77376  0.43935  1.0000
  C   C19       1.0  0.7733  0.61986  0.56617  1.0000
  C   C20       1.0  0.77035  0.53986  0.53775  1.0000
  C   C21       1.0  0.75805  0.47218000000000004  0.57939  1.0000
  C   C22       1.0  0.76219  0.41218  0.52765  1.0000
  C   C23       1.0  0.75485  0.3281  0.53695  1.0000
  C   C24       1.0  0.60073  0.5345  0.66711  1.0000
  C   C25       1.0  0.6731  0.49473999999999996  0.69705  1.0000
  C   C26       1.0  0.74169  0.46726  0.65957  1.0000
  C   C27       1.0  0.79114  0.4343  0.71515  1.0000
  C   C28       1.0  0.87104  0.39635  0.70672  1.0000
  C   C29       1.0  0.60785  0.61182  0.42239  1.0000
  C   C30       1.0  0.54553  0.65104  0.46937  1.0000
  C   C31       1.0  0.54891  0.73068  0.47829  1.0000
  C   C32       1.0  0.49242  0.76808  0.52246  1.0000
  C   C33       1.0  0.43097  0.6467  0.55326  1.0000
  C   C34       1.0  0.48547000000000007  0.60965  0.50653  1.0000
  C   C35       1.0  0.36926  0.76655  0.60477  1.0000
  C   C36       1.0  0.43316  0.72623  0.56065  1.0000
  C   C37       1.0  0.77331  0.38015  0.06614  1.0000
  C   C38       1.0  0.77035  0.46014000000000005  0.03773  1.0000
  C   C39       1.0  0.75807  0.52782  0.07938  1.0000
  C   C40       1.0  0.76219  0.58781  0.02766  1.0000
  C   C41       1.0  0.75484  0.67189  0.03696  1.0000
  C   C42       1.0  0.60075  0.4655  0.1671  1.0000
  C   C43       1.0  0.67312  0.50528  0.19704  1.0000
  C   C44       1.0  0.74172  0.53275  0.15957  1.0000
  C   C45       1.0  0.79116  0.5657099999999999  0.21516  1.0000
  C   C46       1.0  0.87106  0.60365  0.20672  1.0000
  C   C47       1.0  0.60782  0.38811  0.92228  1.0000
  C   C48       1.0  0.54549  0.34898  0.9693500000000002  1.0000
  C   C49       1.0  0.54887  0.26932999999999996  0.9783199999999999  1.0000
  C   C50       1.0  0.49238  0.23194  0.02247  1.0000
  C   C51       1.0  0.43093  0.35329  0.05327  1.0000
  C   C52       1.0  0.48546  0.39036  0.00658  1.0000
  C   C53       1.0  0.36912  0.23346  0.1047  1.0000
  C   C54       1.0  0.43307  0.27376  0.06062  1.0000
  C   C55       1.0  0.2733  0.11985  0.93386  1.0000
  C   C56       1.0  0.27035  0.03985  0.9622699999999998  1.0000
  C   C57       1.0  0.25807  0.9721800000000002  0.92061  1.0000
  C   C58       1.0  0.26219  0.9121799999999999  0.97234  1.0000
  C   C59       1.0  0.25484  0.8281  0.96304  1.0000
  C   C60       1.0  0.10075  0.03449  0.8329  1.0000
  C   C61       1.0  0.17311  0.9947099999999999  0.80296  1.0000
  C   C62       1.0  0.24172  0.9672500000000002  0.84043  1.0000
  C   C63       1.0  0.29116  0.93429  0.78484  1.0000
  C   C64       1.0  0.3710600000000001  0.89635  0.79328  1.0000
  C   C65       1.0  0.10782  0.11187999999999998  0.07772  1.0000
  C   C66       1.0  0.04549  0.15102  0.030649999999999997  1.0000
  C   C67       1.0  0.04887  0.23065999999999998  0.02167  1.0000
  C   C68       1.0  0.99238  0.26806  0.9775200000000001  1.0000
  C   C69       1.0  0.93093  0.1467  0.94673  1.0000
  C   C70       1.0  0.9854600000000001  0.10964  0.99342  1.0000
  C   C71       1.0  0.86912  0.26654  0.89529  1.0000
  C   C72       1.0  0.93307  0.22624  0.9393800000000001  1.0000
  C   C73       1.0  0.2267  0.61985  0.93386  1.0000
  C   C74       1.0  0.22965  0.53985  0.9622699999999998  1.0000
  C   C75       1.0  0.24193  0.47218000000000004  0.92061  1.0000
  C   C76       1.0  0.23781  0.41218  0.97234  1.0000
  C   C77       1.0  0.24516  0.3281  0.96304  1.0000
  C   C78       1.0  0.3992500000000001  0.53449  0.8329  1.0000
  C   C79       1.0  0.32689000000000007  0.4947099999999999  0.80296  1.0000
  C   C80       1.0  0.25828  0.46725000000000005  0.84043  1.0000
  C   C81       1.0  0.20884  0.43429  0.78484  1.0000
  C   C82       1.0  0.12894  0.39635  0.79328  1.0000
  C   C83       1.0  0.39218  0.61188  0.07772  1.0000
  C   C84       1.0  0.45451  0.65102  0.030649999999999997  1.0000
  C   C85       1.0  0.4511300000000001  0.73066  0.02167  1.0000
  C   C86       1.0  0.50763  0.76806  0.9775200000000001  1.0000
  C   C87       1.0  0.56907  0.6467  0.94673  1.0000
  C   C88       1.0  0.51454  0.60964  0.99342  1.0000
  C   C89       1.0  0.63089  0.76654  0.89529  1.0000
  C   C90       1.0  0.56693  0.72624  0.9393800000000001  1.0000
  C   C91       1.0  0.7267000000000001  0.8801499999999999  0.06614  1.0000
  C   C92       1.0  0.72965  0.9601399999999999  0.03773  1.0000
  C   C93       1.0  0.74193  0.02782  0.07938  1.0000
  C   C94       1.0  0.73781  0.08782  0.02766  1.0000
  C   C95       1.0  0.7451600000000002  0.17189999999999997  0.03696  1.0000
  C   C96       1.0  0.89926  0.9654999999999999  0.1671  1.0000
  C   C97       1.0  0.82689  0.00528  0.19704  1.0000
  C   C98       1.0  0.75829  0.03275  0.15957  1.0000
  C   C99       1.0  0.70884  0.06571  0.21516  1.0000
  C   C100      1.0  0.62894  0.10365  0.20672  1.0000
  C   C101      1.0  0.89218  0.88811  0.92228  1.0000
  C   C102      1.0  0.95452  0.84897  0.9693500000000002  1.0000
  C   C103      1.0  0.95113  0.76933  0.9783199999999999  1.0000
  C   C104      1.0  0.0076300000000000005  0.7319299999999999  0.02247  1.0000
  C   C105      1.0  0.06907  0.8532899999999998  0.05327  1.0000
  C   C106      1.0  0.01454  0.89036  0.00658  1.0000
  C   C107      1.0  0.13088  0.7334599999999998  0.1047  1.0000
  C   C108      1.0  0.06693  0.77376  0.06062  1.0000
  C   C109      1.0  0.72671  0.11985999999999998  0.56617  1.0000
  C   C110      1.0  0.72965  0.03985999999999999  0.53775  1.0000
  C   C111      1.0  0.74195  0.9721800000000002  0.57939  1.0000
  C   C112      1.0  0.73782  0.9121799999999999  0.52765  1.0000
  C   C113      1.0  0.7451600000000002  0.8281  0.53695  1.0000
  C   C114      1.0  0.89928  0.0345  0.66711  1.0000
  C   C115      1.0  0.8269  0.99474  0.69705  1.0000
  C   C116      1.0  0.75831  0.96726  0.65957  1.0000
  C   C117      1.0  0.70887  0.9343  0.71515  1.0000
  C   C118      1.0  0.62896  0.89635  0.70672  1.0000
  C   C119      1.0  0.89215  0.11181999999999997  0.42239  1.0000
  C   C120      1.0  0.95447  0.15104  0.46937  1.0000
  C   C121      1.0  0.9511000000000002  0.23068  0.47829  1.0000
  C   C122      1.0  0.00758  0.26808  0.52246  1.0000
  C   C123      1.0  0.06903  0.1467  0.55326  1.0000
  C   C124      1.0  0.01453  0.10965  0.50653  1.0000
  C   C125      1.0  0.13074  0.26655  0.60476  1.0000
  C   C126      1.0  0.06684  0.22623  0.56065  1.0000
  C   C127      1.0  0.22671  0.38014  0.43383  1.0000
  C   C128      1.0  0.22965  0.46014000000000005  0.46224  1.0000
  C   C129      1.0  0.24195  0.52781  0.42061  1.0000
  C   C130      1.0  0.23782  0.58781  0.47235  1.0000
  C   C131      1.0  0.24515000000000003  0.67189  0.4630500000000001  1.0000
  C   C132      1.0  0.39928  0.4655  0.33289  1.0000
  C   C133      1.0  0.3269  0.50525  0.30295  1.0000
  C   C134      1.0  0.25831  0.53273  0.34043  1.0000
  C   C135      1.0  0.20887  0.5657  0.28485  1.0000
  C   C136      1.0  0.12896  0.60364  0.29328  1.0000
  C   C137      1.0  0.39215  0.38817999999999997  0.57761  1.0000
  C   C138      1.0  0.45447  0.34896  0.53063  1.0000
  C   C139      1.0  0.45109  0.26931  0.5217  1.0000
  C   C140      1.0  0.50758  0.23192  0.47754  1.0000
  C   C141      1.0  0.56903  0.35329  0.44674  1.0000
  C   C142      1.0  0.51453  0.39035  0.49346  1.0000
  C   C143      1.0  0.63074  0.23343999999999998  0.39523  1.0000
  C   C144      1.0  0.56684  0.27376  0.43935  1.0000
  N   N1        1.0  0.28044  0.9771899999999999  0.53524  1.0000
  N   N2        1.0  0.27546000000000004  0.05469  0.53994  1.0000
  N   N3        1.0  0.25458  0.05861000000000001  0.21794  1.0000
  N   N4        1.0  0.18336  0.02171  0.22954  1.0000
  N   N5        1.0  0.78045  0.5228  0.46476  1.0000
  N   N6        1.0  0.77546  0.44531  0.46005999999999997  1.0000
  N   N7        1.0  0.75458  0.4413899999999999  0.78206  1.0000
  N   N8        1.0  0.68336  0.4782799999999999  0.77046  1.0000
  N   N9        1.0  0.78041  0.4772  0.9647400000000002  1.0000
  N   N10       1.0  0.7754300000000002  0.5547  0.9600499999999998  1.0000
  N   N11       1.0  0.7546  0.55864  0.28207  1.0000
  N   N12       1.0  0.68338  0.5217599999999999  0.27045  1.0000
  N   N13       1.0  0.28041  0.02279  0.03526  1.0000
  N   N14       1.0  0.27543  0.9452999999999999  0.03994  1.0000
  N   N15       1.0  0.2546  0.9413599999999999  0.71793  1.0000
  N   N16       1.0  0.18338  0.97823  0.72954  1.0000
  N   N17       1.0  0.21959  0.52279  0.03526  1.0000
  N   N18       1.0  0.22457  0.4453  0.03994  1.0000
  N   N19       1.0  0.24540000000000003  0.44136  0.71793  1.0000
  N   N20       1.0  0.31663  0.47822999999999993  0.72954  1.0000
  N   N21       1.0  0.71959  0.9772000000000001  0.9647400000000002  1.0000
  N   N22       1.0  0.72457  0.0547  0.9600499999999998  1.0000
  N   N23       1.0  0.7454  0.05864  0.28207  1.0000
  N   N24       1.0  0.81663  0.02177  0.27045  1.0000
  N   N25       1.0  0.71956  0.0228  0.46476  1.0000
  N   N26       1.0  0.72454  0.9452999999999999  0.46005999999999997  1.0000
  N   N27       1.0  0.74542  0.94139  0.78206  1.0000
  N   N28       1.0  0.81664  0.97828  0.77046  1.0000
  N   N29       1.0  0.21956  0.47718999999999995  0.53524  1.0000
  N   N30       1.0  0.22454  0.55469  0.53994  1.0000
  N   N31       1.0  0.24542  0.5586  0.21794  1.0000
  N   N32       1.0  0.31664  0.52171  0.22954  1.0000
  O   O1        1.0  0.17246  0.84835  0.58746  1.0000
  O   O2        1.0  0.09519  0.9546  0.60282  1.0000
  O   O3        1.0  0.87285  0.6588699999999998  0.40128  1.0000
  O   O4        1.0  0.81702  0.76928  0.35972  1.0000
  O   O5        1.0  0.6724600000000002  0.65164  0.41253  1.0000
  O   O6        1.0  0.59519  0.5454  0.39718  1.0000
  O   O7        1.0  0.37285  0.84113  0.59871  1.0000
  O   O8        1.0  0.31702  0.73071  0.64028  1.0000
  O   O9        1.0  0.6725  0.34835  0.91258  1.0000
  O   O10       1.0  0.5951  0.45444  0.89686  1.0000
  O   O11       1.0  0.37281  0.15887  0.09873  1.0000
  O   O12       1.0  0.31686  0.26927  0.14021  1.0000
  O   O13       1.0  0.1725  0.15165  0.08742  1.0000
  O   O14       1.0  0.09510000000000002  0.04556  0.10314  1.0000
  O   O15       1.0  0.87281  0.34112  0.9012699999999999  1.0000
  O   O16       1.0  0.81686  0.23072  0.85978  1.0000
  O   O17       1.0  0.32751000000000013  0.65165  0.08742  1.0000
  O   O18       1.0  0.4049  0.54556  0.10314  1.0000
  O   O19       1.0  0.62719  0.84112  0.9012699999999999  1.0000
  O   O20       1.0  0.68314  0.73072  0.85978  1.0000
  O   O21       1.0  0.82751  0.84834  0.91258  1.0000
  O   O22       1.0  0.9049  0.95444  0.89686  1.0000
  O   O23       1.0  0.12719  0.6588699999999998  0.09873  1.0000
  O   O24       1.0  0.18314  0.7692699999999998  0.14021  1.0000
  O   O25       1.0  0.82754  0.15164  0.41253  1.0000
  O   O26       1.0  0.90481  0.0454  0.39718  1.0000
  O   O27       1.0  0.12715  0.34113  0.59871  1.0000
  O   O28       1.0  0.18299  0.23072  0.64028  1.0000
  O   O29       1.0  0.32754  0.34835  0.58746  1.0000
  O   O30       1.0  0.40481  0.4546  0.60282  1.0000
  O   O31       1.0  0.62715  0.15887  0.40128  1.0000
  O   O32       1.0  0.68299  0.26928  0.35972  1.0000
