data_image0
_chemical_formula_structural       Zn18H60C96O60
_chemical_formula_sum              "Zn18 H60 C96 O60"
_cell_length_a       15.27067
_cell_length_b       17.72759
_cell_length_c       18.170230000000004
_cell_angle_alpha    111.69714
_cell_angle_beta     89.94322999999999
_cell_angle_gamma    89.9851

_symmetry_space_group_name_H-M    'P 1'
_symmetry_Int_Tables_number       1

loop_
  _symmetry_equiv_pos_as_xyz
  'x,y,z'

loop_
  _atom_site_type_symbol
  _atom_site_label
  _atom_site_symmetry_multiplicity
  _atom_site_fract_x
  _atom_site_fract_y
  _atom_site_fract_z
  _atom_site_occupancy
  Zn  Zn1       1.0  0.49571  0.50041  0.83409  1.0000
  Zn  Zn2       1.0  0.10038999999999997  0.002770000000000001  0.16583  1.0000
  Zn  Zn3       1.0  0.6006499999999998  0.498  0.9945299999999999  1.0000
  Zn  Zn4       1.0  0.90266  0.9972100000000002  0.16746  1.0000
  Zn  Zn5       1.0  0.99574  0.99899  0.6654599999999998  1.0000
  Zn  Zn6       1.0  0.59879  0.498  0.33412999999999987  1.0000
  Zn  Zn7       1.0  0.10044  0.0024300000000000094  0.50598  1.0000
  Zn  Zn8       1.0  0.40091  0.50215  0.33212999999999987  1.0000
  Zn  Zn9       1.0  0.5043  0.4996  0.16591  1.0000
  Zn  Zn10      1.0  0.89961  0.9972300000000001  0.8341599999999998  1.0000
  Zn  Zn11      1.0  0.39934999999999987  0.502  0.005459999999999998  1.0000
  Zn  Zn12      1.0  0.09735  0.0027899999999999184  0.8325299999999998  1.0000
  Zn  Zn13      1.0  0.00427  0.00102  0.33454  1.0000
  Zn  Zn14      1.0  0.4012099999999999  0.502  0.66587  1.0000
  Zn  Zn15      1.0  0.8995599999999998  0.99757  0.49402  1.0000
  Zn  Zn16      1.0  0.5991  0.49784999999999996  0.6678599999999998  1.0000
  Zn  Zn17      1.0  0.0  0.0  0.0  1.0000
  Zn  Zn18      1.0  0.4999999999999999  0.5  0.5  1.0000
  H   H1        1.0  0.49933  0.39378999999999986  0.6970799999999998  1.0000
  H   H2        1.0  0.4977399999999999  0.60595  0.9712499999999998  1.0000
  H   H3        1.0  0.99587  0.10642  0.13792  1.0000
  H   H4        1.0  0.8343699999999997  0.16396000000000005  0.80115  1.0000
  H   H5        1.0  0.7507999999999998  0.28515  0.88911  1.0000
  H   H6        1.0  0.60098  0.28456  0.6889199999999998  1.0000
  H   H7        1.0  0.68959  0.1678  0.5999199999999998  1.0000
  H   H8        1.0  0.10935999999999997  0.78257  0.86694  1.0000
  H   H9        1.0  0.20667999999999995  0.6724899999999999  0.7781199999999999  1.0000
  H   H10       1.0  0.39326  0.7213899999999999  0.9667499999999999  1.0000
  H   H11       1.0  0.29585  0.8315200000000003  0.05561  1.0000
  H   H12       1.0  0.67269  0.6601  0.97816  1.0000
  H   H13       1.0  0.7491999999999998  0.7858500000000002  0.06486  1.0000
  H   H14       1.0  0.8282  0.8341700000000003  0.85924  1.0000
  H   H15       1.0  0.75098  0.7084899999999998  0.7724999999999997  1.0000
  H   H16       1.0  0.9967499999999999  0.10538999999999996  0.80297  1.0000
  H   H17       1.0  0.0006999999999999999  0.8929700000000002  0.52746  1.0000
  H   H18       1.0  0.49533  0.39396  0.36189  1.0000
  H   H19       1.0  0.3344  0.33534  0.69777  1.0000
  H   H20       1.0  0.25005  0.21445999999999996  0.6105999999999998  1.0000
  H   H21       1.0  0.1011  0.21644999999999995  0.81204  1.0000
  H   H22       1.0  0.19054999999999994  0.33271  0.9001199999999998  1.0000
  H   H23       1.0  0.6083299999999998  0.71643  0.63233  1.0000
  H   H24       1.0  0.70464  0.82673  0.72162  1.0000
  H   H25       1.0  0.8924599999999998  0.77907  0.53377  1.0000
  H   H26       1.0  0.7964  0.66845  0.4445099999999999  1.0000
  H   H27       1.0  0.17267999999999994  0.8404399999999999  0.52289  1.0000
  H   H28       1.0  0.24868  0.71404  0.4362  1.0000
  H   H29       1.0  0.3274  0.6660199999999998  0.6417199999999997  1.0000
  H   H30       1.0  0.251  0.79241  0.7288  1.0000
  H   H31       1.0  0.50068  0.60621  0.30290999999999996  1.0000
  H   H32       1.0  0.50227  0.39405  0.02875  1.0000
  H   H33       1.0  0.00414  0.8935899999999999  0.8620799999999997  1.0000
  H   H34       1.0  0.16563999999999995  0.83605  0.19885  1.0000
  H   H35       1.0  0.24919999999999995  0.71485  0.11089  1.0000
  H   H36       1.0  0.39903  0.7154400000000001  0.3110799999999999  1.0000
  H   H37       1.0  0.31042  0.8322  0.4000799999999999  1.0000
  H   H38       1.0  0.89064  0.21743  0.13306  1.0000
  H   H39       1.0  0.79333  0.32750999999999997  0.22187999999999994  1.0000
  H   H40       1.0  0.60674  0.27861  0.03325  1.0000
  H   H41       1.0  0.70415  0.16849  0.94438  1.0000
  H   H42       1.0  0.32731  0.33990000000000004  0.02183  1.0000
  H   H43       1.0  0.25081  0.21414999999999995  0.93513  1.0000
  H   H44       1.0  0.17181  0.16583  0.14076  1.0000
  H   H45       1.0  0.24903  0.29151  0.22749999999999995  1.0000
  H   H46       1.0  0.00325  0.89461  0.19703  1.0000
  H   H47       1.0  0.99931  0.10704000000000002  0.47254  1.0000
  H   H48       1.0  0.50468  0.6060400000000001  0.6381  1.0000
  H   H49       1.0  0.66561  0.66466  0.30222  1.0000
  H   H50       1.0  0.7499599999999997  0.78554  0.38939  1.0000
  H   H51       1.0  0.8988999999999998  0.78355  0.18795  1.0000
  H   H52       1.0  0.80946  0.66729  0.09987999999999997  1.0000
  H   H53       1.0  0.3916699999999999  0.28357  0.36767  1.0000
  H   H54       1.0  0.29536  0.17328  0.27838  1.0000
  H   H55       1.0  0.10754  0.22093  0.46623  1.0000
  H   H56       1.0  0.2036  0.33155000000000007  0.5554899999999999  1.0000
  H   H57       1.0  0.8273199999999998  0.15955999999999998  0.47709999999999997  1.0000
  H   H58       1.0  0.7513199999999998  0.28597  0.56379  1.0000
  H   H59       1.0  0.6726  0.33397999999999994  0.35827999999999993  1.0000
  H   H60       1.0  0.74901  0.20759  0.27119  1.0000
  C   C1        1.0  0.8250199999999998  0.09177999999999999  0.64269  1.0000
  C   C2        1.0  0.76858  0.15965  0.6949499999999997  1.0000
  C   C3        1.0  0.78429  0.19171  0.7768999999999998  1.0000
  C   C4        1.0  0.73698  0.2585499999999999  0.8260299999999998  1.0000
  C   C5        1.0  0.67076  0.2926499999999999  0.7944599999999998  1.0000
  C   C6        1.0  0.62103  0.36567  0.84706  1.0000
  C   C7        1.0  0.6528299999999998  0.2585299999999999  0.7129599999999998  1.0000
  C   C8        1.0  0.7020599999999998  0.19328  0.6633  1.0000
  C   C9        1.0  0.13938  0.87959  0.01903  1.0000
  C   C10       1.0  0.19698999999999994  0.8135  0.96638  1.0000
  C   C11       1.0  0.17161999999999994  0.76885  0.88811  1.0000
  C   C12       1.0  0.22559999999999997  0.70777  0.8388  1.0000
  C   C13       1.0  0.30572  0.6906  0.86722  1.0000
  C   C14       1.0  0.36331999999999987  0.6245600000000001  0.81433  1.0000
  C   C15       1.0  0.33103  0.73518  0.9455499999999998  1.0000
  C   C16       1.0  0.2770499999999999  0.7963100000000001  0.99487  1.0000
  C   C17       1.0  0.65848  0.60291  0.81784  1.0000
  C   C18       1.0  0.70652  0.6769400000000002  0.86987  1.0000
  C   C19       1.0  0.70622  0.6985500000000001  0.95239  1.0000
  C   C20       1.0  0.74939  0.76842  0.00087  1.0000
  C   C21       1.0  0.79389  0.81742  0.9674999999999999  1.0000
  C   C22       1.0  0.84163  0.8916300000000001  0.019439999999999995  1.0000
  C   C23       1.0  0.79437  0.79575  0.88492  1.0000
  C   C24       1.0  0.75106  0.72597  0.83649  1.0000
  C   C25       1.0  0.32548  0.40789  0.85663  1.0000
  C   C26       1.0  0.26904  0.34018  0.80461  1.0000
  C   C27       1.0  0.28437  0.30802999999999997  0.7225399999999997  1.0000
  C   C28       1.0  0.23684999999999995  0.24127000000000004  0.67382  1.0000
  C   C29       1.0  0.17106  0.20736000000000007  0.706  1.0000
  C   C30       1.0  0.12226999999999998  0.13361999999999996  0.65422  1.0000
  C   C31       1.0  0.15306  0.24189000000000008  0.7875  1.0000
  C   C32       1.0  0.20256999999999994  0.30698  0.83667  1.0000
  C   C33       1.0  0.6394799999999998  0.6196  0.47992999999999997  1.0000
  C   C34       1.0  0.69672  0.68572  0.53314  1.0000
  C   C35       1.0  0.67069  0.7302799999999999  0.6113499999999997  1.0000
  C   C36       1.0  0.72405  0.79165  0.66097  1.0000
  C   C37       1.0  0.8042599999999999  0.80937  0.6330399999999998  1.0000
  C   C38       1.0  0.86141  0.8753900000000001  0.68649  1.0000
  C   C39       1.0  0.8302299999999998  0.7649499999999999  0.5547699999999998  1.0000
  C   C40       1.0  0.7769699999999998  0.70341  0.50518  1.0000
  C   C41       1.0  0.15852  0.89815  0.6831399999999999  1.0000
  C   C42       1.0  0.20638  0.8238200000000001  0.63127  1.0000
  C   C43       1.0  0.20598  0.80185  0.54867  1.0000
  C   C44       1.0  0.24878999999999996  0.7316000000000001  0.50022  1.0000
  C   C45       1.0  0.29282  0.68245  0.5337  1.0000
  C   C46       1.0  0.34029  0.60759  0.4822699999999999  1.0000
  C   C47       1.0  0.29357  0.70465  0.61632  1.0000
  C   C48       1.0  0.25076  0.7748200000000001  0.6647799999999998  1.0000
  C   C49       1.0  0.17499  0.9082200000000001  0.3573  1.0000
  C   C50       1.0  0.23143  0.8403500000000003  0.3050499999999999  1.0000
  C   C51       1.0  0.21571999999999994  0.80829  0.2231  1.0000
  C   C52       1.0  0.2630199999999999  0.74146  0.17396  1.0000
  C   C53       1.0  0.32924  0.70735  0.20554  1.0000
  C   C54       1.0  0.37897  0.63433  0.15293  1.0000
  C   C55       1.0  0.34716999999999987  0.74147  0.28703  1.0000
  C   C56       1.0  0.29795  0.80672  0.33669  1.0000
  C   C57       1.0  0.86063  0.12040999999999996  0.9809699999999999  1.0000
  C   C58       1.0  0.8030099999999998  0.1865  0.03361  1.0000
  C   C59       1.0  0.8283899999999997  0.23115000000000002  0.11187999999999998  1.0000
  C   C60       1.0  0.77441  0.29223  0.1612  1.0000
  C   C61       1.0  0.69428  0.30939999999999995  0.13276999999999994  1.0000
  C   C62       1.0  0.63668  0.37544999999999995  0.18566999999999995  1.0000
  C   C63       1.0  0.66897  0.26482  0.05444  1.0000
  C   C64       1.0  0.7229499999999998  0.20369  0.00512  1.0000
  C   C65       1.0  0.34153  0.39709  0.18215  1.0000
  C   C66       1.0  0.29348  0.32305999999999996  0.13012  1.0000
  C   C67       1.0  0.29378  0.30145  0.04761  1.0000
  C   C68       1.0  0.25062  0.23158  0.9991299999999999  1.0000
  C   C69       1.0  0.20611  0.18258  0.0325  1.0000
  C   C70       1.0  0.15837  0.10837  0.98056  1.0000
  C   C71       1.0  0.20562999999999995  0.20425  0.11508  1.0000
  C   C72       1.0  0.24895  0.27403  0.16351  1.0000
  C   C73       1.0  0.6745299999999997  0.5921099999999999  0.14336999999999994  1.0000
  C   C74       1.0  0.73096  0.65982  0.19539  1.0000
  C   C75       1.0  0.71563  0.69197  0.27745  1.0000
  C   C76       1.0  0.76316  0.75873  0.32618  1.0000
  C   C77       1.0  0.8289499999999997  0.79264  0.29399  1.0000
  C   C78       1.0  0.87774  0.86638  0.34578  1.0000
  C   C79       1.0  0.8469499999999999  0.75811  0.21249  1.0000
  C   C80       1.0  0.79744  0.69302  0.16333  1.0000
  C   C81       1.0  0.3605199999999999  0.3803999999999999  0.5200699999999998  1.0000
  C   C82       1.0  0.3032799999999999  0.31428  0.46685  1.0000
  C   C83       1.0  0.3293199999999999  0.2697300000000001  0.3886499999999999  1.0000
  C   C84       1.0  0.27596  0.20834999999999998  0.3390199999999999  1.0000
  C   C85       1.0  0.19573999999999994  0.19062999999999997  0.36695999999999995  1.0000
  C   C86       1.0  0.13859  0.12461  0.3135  1.0000
  C   C87       1.0  0.16978  0.23505  0.4452199999999999  1.0000
  C   C88       1.0  0.22302999999999995  0.2965900000000001  0.49480999999999997  1.0000
  C   C89       1.0  0.84148  0.10184999999999997  0.31686  1.0000
  C   C90       1.0  0.79362  0.17618  0.36872  1.0000
  C   C91       1.0  0.79402  0.19815  0.45133  1.0000
  C   C92       1.0  0.7512199999999998  0.2684  0.49977999999999995  1.0000
  C   C93       1.0  0.70719  0.31755000000000005  0.46629  1.0000
  C   C94       1.0  0.6597099999999998  0.3924099999999999  0.5177199999999997  1.0000
  C   C95       1.0  0.70643  0.2953500000000001  0.38368  1.0000
  C   C96       1.0  0.74924  0.22518  0.33522  1.0000
  O   O1        1.0  0.4979599999999999  0.45227999999999996  0.71087  1.0000
  O   O2        1.0  0.4977699999999999  0.54737  0.9569  1.0000
  O   O3        1.0  0.9990099999999998  0.047819999999999994  0.12272999999999999  1.0000
  O   O4        1.0  0.3338199999999999  0.58688  0.74364  1.0000
  O   O5        1.0  0.16899  0.9180900000000001  0.08947999999999998  1.0000
  O   O6        1.0  0.8227599999999998  0.07842000000000002  0.56761  1.0000
  O   O7        1.0  0.5512799999999998  0.38611999999999996  0.8215499999999998  1.0000
  O   O8        1.0  0.4357699999999999  0.6103399999999999  0.8406599999999997  1.0000
  O   O9        1.0  0.87906  0.9360900000000001  0.9882899999999999  1.0000
  O   O10       1.0  0.6541199999999998  0.40256  0.91645  1.0000
  O   O11       1.0  0.06664999999999999  0.89303  0.9926299999999999  1.0000
  O   O12       1.0  0.8709099999999997  0.05295999999999998  0.67447  1.0000
  O   O13       1.0  0.6222699999999998  0.5570400000000002  0.84825  1.0000
  O   O14       1.0  0.84048  0.90504  0.09446999999999997  1.0000
  O   O15       1.0  0.65799  0.59089  0.74319  1.0000
  O   O16       1.0  0.99587  0.046859999999999895  0.7890099999999998  1.0000
  O   O17       1.0  0.99852  0.95152  0.54202  1.0000
  O   O18       1.0  0.49747  0.45264  0.3774299999999999  1.0000
  O   O19       1.0  0.83134  0.9128600000000001  0.75718  1.0000
  O   O20       1.0  0.6709  0.57952  0.41038  1.0000
  O   O21       1.0  0.32467  0.42040000000000005  0.9315899999999998  1.0000
  O   O22       1.0  0.05312999999999999  0.11336999999999996  0.6808399999999998  1.0000
  O   O23       1.0  0.93427  0.88954  0.6607799999999998  1.0000
  O   O24       1.0  0.3777999999999999  0.5639  0.51425  1.0000
  O   O25       1.0  0.15568999999999994  0.09589  0.58498  1.0000
  O   O26       1.0  0.56503  0.60764  0.5045599999999999  1.0000
  O   O27       1.0  0.36953999999999987  0.44772  0.82471  1.0000
  O   O28       1.0  0.12063999999999997  0.9426000000000001  0.65201  1.0000
  O   O29       1.0  0.3385999999999999  0.5932600000000001  0.40704  1.0000
  O   O30       1.0  0.15979999999999994  0.91179  0.7581  1.0000
  O   O31       1.0  0.50204  0.5477200000000002  0.28912  1.0000
  O   O32       1.0  0.50224  0.45263000000000003  0.043099999999999986  1.0000
  O   O33       1.0  0.0009999999999999998  0.9521799999999999  0.87727  1.0000
  O   O34       1.0  0.6661799999999998  0.41312  0.25635999999999987  1.0000
  O   O35       1.0  0.83101  0.08192000000000002  0.91052  1.0000
  O   O36       1.0  0.17724  0.9215800000000001  0.4323899999999999  1.0000
  O   O37       1.0  0.4487199999999999  0.61388  0.17843999999999993  1.0000
  O   O38       1.0  0.56424  0.38966  0.15934  1.0000
  O   O39       1.0  0.12095  0.06391  0.01171  1.0000
  O   O40       1.0  0.34589  0.59744  0.08355  1.0000
  O   O41       1.0  0.9333499999999998  0.10697  0.00736  1.0000
  O   O42       1.0  0.1291  0.94704  0.32553  1.0000
  O   O43       1.0  0.3777299999999999  0.44295999999999996  0.15174999999999994  1.0000
  O   O44       1.0  0.15952999999999998  0.09496000000000006  0.90552  1.0000
  O   O45       1.0  0.34202  0.40911  0.25680999999999987  1.0000
  O   O46       1.0  0.00414  0.95314  0.21098  1.0000
  O   O47       1.0  0.0014900000000000002  0.04847999999999996  0.4579799999999999  1.0000
  O   O48       1.0  0.50254  0.54736  0.6225599999999998  1.0000
  O   O49       1.0  0.16866  0.08714999999999999  0.24281999999999998  1.0000
  O   O50       1.0  0.3291099999999999  0.4204800000000001  0.58962  1.0000
  O   O51       1.0  0.67534  0.5796100000000001  0.06841  1.0000
  O   O52       1.0  0.94688  0.8866300000000003  0.31915  1.0000
  O   O53       1.0  0.06572999999999997  0.11045999999999996  0.3392199999999999  1.0000
  O   O54       1.0  0.62221  0.4361  0.48573999999999995  1.0000
  O   O55       1.0  0.8443099999999998  0.90411  0.41502  1.0000
  O   O56       1.0  0.4349699999999999  0.39236  0.49543  1.0000
  O   O57       1.0  0.63046  0.55228  0.17529  1.0000
  O   O58       1.0  0.87937  0.0574  0.34798  1.0000
  O   O59       1.0  0.6614  0.40675  0.59296  1.0000
  O   O60       1.0  0.8402099999999998  0.08821  0.24189  1.0000
