data_image0
_chemical_formula_structural       Zn20P20H68C72N20O80
_chemical_formula_sum              "Zn20 P20 H68 C72 N20 O80"
_cell_length_a       4.80462
_cell_length_b       25.021030000000003
_cell_length_c       27.35129
_cell_angle_alpha    90.15255999999998
_cell_angle_beta     93.70021999999999
_cell_angle_gamma    90.00229

_symmetry_space_group_name_H-M    'P 1'
_symmetry_Int_Tables_number       1

loop_
  _symmetry_equiv_pos_as_xyz
  'x,y,z'

loop_
  _atom_site_type_symbol
  _atom_site_label
  _atom_site_symmetry_multiplicity
  _atom_site_fract_x
  _atom_site_fract_y
  _atom_site_fract_z
  _atom_site_occupancy
  Zn  Zn1       1.0  0.38186  0.2841  0.36679  1.0000
  Zn  Zn2       1.0  0.8822200000000001  0.10908  0.3748100000000001  1.0000
  Zn  Zn3       1.0  0.22791999999999998  0.06436  0.27740000000000004  1.0000
  Zn  Zn4       1.0  0.82678  0.95634  0.21264000000000005  1.0000
  Zn  Zn5       1.0  0.73834  0.0066099999999999996  0.4390600000000001  1.0000
  Zn  Zn6       1.0  0.10736  0.7843699999999999  0.13419  1.0000
  Zn  Zn7       1.0  0.61745  0.60795  0.12541000000000002  1.0000
  Zn  Zn8       1.0  0.27162  0.56381  0.22249000000000005  1.0000
  Zn  Zn9       1.0  0.67415  0.45652  0.28878  1.0000
  Zn  Zn10      1.0  0.77011  0.50401  0.06231000000000001  1.0000
  Zn  Zn11      1.0  0.61811  0.7159  0.63321  1.0000
  Zn  Zn12      1.0  0.11775000000000001  0.89092  0.62519  1.0000
  Zn  Zn13      1.0  0.77206  0.93564  0.7226  1.0000
  Zn  Zn14      1.0  0.17319000000000007  0.04366  0.7873600000000002  1.0000
  Zn  Zn15      1.0  0.26163  0.99339  0.56094  1.0000
  Zn  Zn16      1.0  0.89261  0.21563  0.86582  1.0000
  Zn  Zn17      1.0  0.38252000000000014  0.39205  0.8745900000000002  1.0000
  Zn  Zn18      1.0  0.7283499999999999  0.4361999999999999  0.77751  1.0000
  Zn  Zn19      1.0  0.32582  0.54348  0.71122  1.0000
  Zn  Zn20      1.0  0.22986000000000006  0.49599  0.9376900000000002  1.0000
  P   P1        1.0  0.34865  0.16435  0.34157  1.0000
  P   P2        1.0  0.33594  0.01615  0.17891  1.0000
  P   P3        1.0  0.59448  0.85195  0.15946  1.0000
  P   P4        1.0  0.73395  0.0036899999999999997  0.32062  1.0000
  P   P5        1.0  0.77636  0.9314  0.529  1.0000
  P   P6        1.0  0.15168  0.664  0.15848  1.0000
  P   P7        1.0  0.16725  0.51662  0.32119  1.0000
  P   P8        1.0  0.89485  0.35197  0.34272  1.0000
  P   P9        1.0  0.76612  0.50256  0.1799  1.0000
  P   P10       1.0  0.71887  0.4322599999999999  0.9705900000000001  1.0000
  P   P11       1.0  0.65132  0.83565  0.65843  1.0000
  P   P12       1.0  0.66403  0.98385  0.8211000000000002  1.0000
  P   P13       1.0  0.40549  0.14805  0.84055  1.0000
  P   P14       1.0  0.26602  0.99631  0.67938  1.0000
  P   P15       1.0  0.22361  0.0686  0.4710000000000001  1.0000
  P   P16       1.0  0.8482900000000001  0.33599999999999997  0.8415200000000003  1.0000
  P   P17       1.0  0.8327199999999999  0.4833799999999999  0.6788100000000002  1.0000
  P   P18       1.0  0.1051200000000001  0.64803  0.6572800000000002  1.0000
  P   P19       1.0  0.2338600000000001  0.49744  0.8201100000000002  1.0000
  P   P20       1.0  0.2811  0.56774  0.02941  1.0000
  H   H1        1.0  0.97902  0.02482  0.12723  1.0000
  H   H2        1.0  0.4748299999999999  0.9188299999999999  0.11122  1.0000
  H   H3        1.0  0.025660000000000075  0.20273999999999998  0.6937800000000002  1.0000
  H   H4        1.0  0.052880000000000066  0.3377  0.7579600000000001  1.0000
  H   H5        1.0  0.95616  0.06214  0.6337600000000001  1.0000
  H   H6        1.0  0.8995500000000001  0.22932999999999995  0.41199000000000013  1.0000
  H   H7        1.0  0.77134  0.20403999999999997  0.49534000000000006  1.0000
  H   H8        1.0  0.50744  0.28993  0.5521000000000001  1.0000
  H   H9        1.0  0.59857  0.31262  0.46544000000000013  1.0000
  H   H10       1.0  0.45793000000000006  0.34178  0.62515  1.0000
  H   H11       1.0  0.08445000000000004  0.37358999999999987  0.6796500000000002  1.0000
  H   H12       1.0  0.3559900000000001  0.27072  0.7912300000000002  1.0000
  H   H13       1.0  0.7256600000000001  0.23271999999999995  0.7430400000000001  1.0000
  H   H14       1.0  0.316  0.14346  0.70104  1.0000
  H   H15       1.0  0.7081300000000001  0.07977  0.7049600000000003  1.0000
  H   H16       1.0  0.8684099999999999  0.10541999999999997  0.5596300000000001  1.0000
  H   H17       1.0  0.47936000000000006  0.17128  0.54792  1.0000
  H   H18       1.0  0.52228  0.52598  0.37309  1.0000
  H   H19       1.0  0.011899999999999996  0.41801  0.39205  1.0000
  H   H20       1.0  0.47827000000000003  0.70317  0.8067300000000002  1.0000
  H   H21       1.0  0.44853  0.83784  0.74189  1.0000
  H   H22       1.0  0.54422  0.56361  0.8662800000000003  1.0000
  H   H23       1.0  0.5902699999999997  0.72943  0.08845  1.0000
  H   H24       1.0  0.72534  0.70545  0.00508  1.0000
  H   H25       1.0  0.9941  0.7919699999999998  0.9480200000000002  1.0000
  H   H26       1.0  0.89707  0.81395  0.03461  1.0000
  H   H27       1.0  0.04241000000000008  0.84337  0.8746100000000002  1.0000
  H   H28       1.0  0.41608  0.87461  0.81995  1.0000
  H   H29       1.0  0.14647  0.77025  0.7089500000000001  1.0000
  H   H30       1.0  0.7767099999999999  0.7327299999999999  0.75731  1.0000
  H   H31       1.0  0.18518000000000012  0.64464  0.7992000000000002  1.0000
  H   H32       1.0  0.79115  0.58125  0.7950700000000002  1.0000
  H   H33       1.0  0.63679  0.60631  0.9408600000000001  1.0000
  H   H34       1.0  0.02732000000000002  0.6719999999999999  0.9527500000000001  1.0000
  H   H35       1.0  0.02095000000000009  0.97518  0.8727800000000002  1.0000
  H   H36       1.0  0.5251400000000002  0.08117  0.8887800000000001  1.0000
  H   H37       1.0  0.97431  0.79726  0.30622  1.0000
  H   H38       1.0  0.94709  0.6623  0.24204000000000006  1.0000
  H   H39       1.0  0.04381000000000005  0.93786  0.3662400000000001  1.0000
  H   H40       1.0  0.10042  0.77067  0.58801  1.0000
  H   H41       1.0  0.22862999999999997  0.7959599999999999  0.50466  1.0000
  H   H42       1.0  0.49253  0.71007  0.44791  1.0000
  H   H43       1.0  0.4014  0.6873799999999999  0.53456  1.0000
  H   H44       1.0  0.54204  0.65822  0.37485000000000007  1.0000
  H   H45       1.0  0.9155200000000001  0.62641  0.32035  1.0000
  H   H46       1.0  0.64398  0.72928  0.20877000000000007  1.0000
  H   H47       1.0  0.27431  0.7672799999999997  0.25696  1.0000
  H   H48       1.0  0.68397  0.8565399999999999  0.2989600000000001  1.0000
  H   H49       1.0  0.29184  0.92023  0.29504  1.0000
  H   H50       1.0  0.13156  0.89458  0.44037  1.0000
  H   H51       1.0  0.52062  0.82872  0.4520800000000001  1.0000
  H   H52       1.0  0.4776900000000001  0.47402  0.6269100000000002  1.0000
  H   H53       1.0  0.9880700000000001  0.58199  0.60795  1.0000
  H   H54       1.0  0.5217  0.29683  0.19328  1.0000
  H   H55       1.0  0.55144  0.16216  0.25811  1.0000
  H   H56       1.0  0.45574999999999993  0.4363899999999999  0.13372  1.0000
  H   H57       1.0  0.4097100000000001  0.27057  0.9115600000000003  1.0000
  H   H58       1.0  0.27463000000000004  0.29455  0.9949200000000002  1.0000
  H   H59       1.0  0.00587  0.20802999999999996  0.05198  1.0000
  H   H60       1.0  0.10290000000000006  0.18604999999999994  0.9653900000000001  1.0000
  H   H61       1.0  0.95756  0.15663  0.12539000000000003  1.0000
  H   H62       1.0  0.58389  0.12539  0.18006  1.0000
  H   H63       1.0  0.8535000000000001  0.22975  0.29105  1.0000
  H   H64       1.0  0.22326  0.26727  0.24269  1.0000
  H   H65       1.0  0.81479  0.35536  0.20080000000000006  1.0000
  H   H66       1.0  0.20883  0.4187499999999999  0.20493  1.0000
  H   H67       1.0  0.36318  0.3936899999999999  0.05914  1.0000
  H   H68       1.0  0.9726499999999999  0.328  0.04725  1.0000
  C   C1        1.0  0.025600000000000057  0.24216  0.4442100000000001  1.0000
  C   C2        1.0  0.9474  0.23053  0.49142000000000013  1.0000
  C   C3        1.0  0.12095000000000003  0.24884999999999993  0.5313800000000001  1.0000
  C   C4        1.0  0.3598  0.2773  0.5223  1.0000
  C   C5        1.0  0.42589  0.28707  0.47421  1.0000
  C   C6        1.0  0.04653000000000004  0.24156999999999998  0.5828  1.0000
  C   C7        1.0  0.8221400000000001  0.26103  0.6471800000000001  1.0000
  C   C8        1.0  0.15419  0.20705  0.62046  1.0000
  C   C9        1.0  0.61992  0.2833  0.67851  1.0000
  C   C10       1.0  0.43775  0.32430999999999993  0.6610400000000002  1.0000
  C   C11       1.0  0.23501000000000008  0.34246  0.6901400000000002  1.0000
  C   C12       1.0  0.38640000000000013  0.28376  0.7540800000000002  1.0000
  C   C13       1.0  0.59114  0.26328  0.72605  1.0000
  C   C14       1.0  0.37054000000000004  0.16681  0.6241500000000001  1.0000
  C   C15       1.0  0.43472999999999995  0.13908  0.6687200000000001  1.0000
  C   C16       1.0  0.6512700000000001  0.10277  0.6721700000000003  1.0000
  C   C17       1.0  0.74171  0.11776  0.58941  1.0000
  C   C18       1.0  0.52948  0.15463  0.584  1.0000
  C   C19       1.0  0.46738  0.7430099999999998  0.05622  1.0000
  C   C20       1.0  0.54947  0.7319999999999999  0.00902  1.0000
  C   C21       1.0  0.37890000000000007  0.75065  0.9689200000000002  1.0000
  C   C22       1.0  0.13963000000000003  0.77905  0.9779400000000001  1.0000
  C   C23       1.0  0.07013  0.78837  0.02602000000000001  1.0000
  C   C24       1.0  0.45512  0.7432099999999999  0.9175200000000002  1.0000
  C   C25       1.0  0.6799200000000001  0.7620999999999999  0.8531000000000001  1.0000
  C   C26       1.0  0.34862000000000004  0.70822  0.8799600000000001  1.0000
  C   C27       1.0  0.88183  0.7840699999999998  0.8216100000000002  1.0000
  C   C28       1.0  0.06322000000000005  0.82539  0.8388600000000003  1.0000
  C   C29       1.0  0.26584000000000013  0.84327  0.8096800000000002  1.0000
  C   C30       1.0  0.11564000000000002  0.78373  0.7460400000000001  1.0000
  C   C31       1.0  0.91111  0.7634899999999998  0.7741700000000002  1.0000
  C   C32       1.0  0.13278  0.6678599999999999  0.87629  1.0000
  C   C33       1.0  0.06703000000000005  0.6402599999999999  0.8315500000000001  1.0000
  C   C34       1.0  0.8496200000000002  0.6041  0.828  1.0000
  C   C35       1.0  0.7624900000000001  0.61877  0.9110400000000002  1.0000
  C   C36       1.0  0.9755299999999999  0.6555099999999999  0.91657  1.0000
  C   C37       1.0  0.9743700000000001  0.75784  0.55579  1.0000
  C   C38       1.0  0.05256999999999999  0.7694699999999999  0.50858  1.0000
  C   C39       1.0  0.87902  0.75115  0.46862  1.0000
  C   C40       1.0  0.64017  0.7227  0.4777000000000001  1.0000
  C   C41       1.0  0.57408  0.71293  0.5257900000000001  1.0000
  C   C42       1.0  0.95344  0.75843  0.4172100000000001  1.0000
  C   C43       1.0  0.17783000000000004  0.7389699999999998  0.35282000000000013  1.0000
  C   C44       1.0  0.8457800000000001  0.79295  0.37954  1.0000
  C   C45       1.0  0.38004999999999994  0.7166999999999998  0.32149  1.0000
  C   C46       1.0  0.5622200000000002  0.6756899999999999  0.33896  1.0000
  C   C47       1.0  0.76497  0.65754  0.30986  1.0000
  C   C48       1.0  0.61357  0.7162399999999999  0.24592000000000006  1.0000
  C   C49       1.0  0.40883  0.7367199999999999  0.27395  1.0000
  C   C50       1.0  0.6294400000000001  0.83319  0.37585000000000013  1.0000
  C   C51       1.0  0.56524  0.86092  0.33128000000000013  1.0000
  C   C52       1.0  0.3487  0.89723  0.32783  1.0000
  C   C53       1.0  0.25826  0.8822399999999999  0.41059  1.0000
  C   C54       1.0  0.4704900000000001  0.84537  0.4160000000000001  1.0000
  C   C55       1.0  0.53259  0.25699  0.9437800000000002  1.0000
  C   C56       1.0  0.45051  0.268  0.9909800000000002  1.0000
  C   C57       1.0  0.62107  0.24935  0.031090000000000007  1.0000
  C   C58       1.0  0.8603500000000001  0.22095  0.022060000000000003  1.0000
  C   C59       1.0  0.92984  0.21163  0.9739900000000002  1.0000
  C   C60       1.0  0.54485  0.25679  0.08248000000000001  1.0000
  C   C61       1.0  0.32005000000000006  0.2379  0.14691000000000004  1.0000
  C   C62       1.0  0.65135  0.29178  0.12005  1.0000
  C   C63       1.0  0.11814  0.21593  0.17839  1.0000
  C   C64       1.0  0.9367600000000001  0.17460999999999996  0.16114  1.0000
  C   C65       1.0  0.73413  0.15673  0.19032  1.0000
  C   C66       1.0  0.88433  0.21626999999999993  0.2539600000000001  1.0000
  C   C67       1.0  0.08887000000000003  0.23651  0.22583000000000006  1.0000
  C   C68       1.0  0.86719  0.3321399999999999  0.12371000000000003  1.0000
  C   C69       1.0  0.93295  0.35974  0.16845000000000004  1.0000
  C   C70       1.0  0.15035  0.39589999999999986  0.17200000000000004  1.0000
  C   C71       1.0  0.23747999999999997  0.38123  0.08896000000000003  1.0000
  C   C72       1.0  0.02444  0.34449  0.08343  1.0000
  N   N1        1.0  0.25832  0.26947  0.43565  1.0000
  N   N2        1.0  0.85073  0.27445  0.6002400000000002  1.0000
  N   N3        1.0  0.0038700000000000743  0.22052  0.6603800000000002  1.0000
  N   N4        1.0  0.21163000000000007  0.32165  0.7356000000000001  1.0000
  N   N5        1.0  0.8017800000000002  0.09341  0.63304  1.0000
  N   N6        1.0  0.23433000000000004  0.77029  0.06476  1.0000
  N   N7        1.0  0.6506500000000001  0.776  0.8999900000000001  1.0000
  N   N8        1.0  0.49878  0.72141  0.84002  1.0000
  N   N9        1.0  0.2896600000000001  0.8219199999999999  0.7643600000000003  1.0000
  N   N10       1.0  0.7001100000000002  0.59475  0.8672000000000002  1.0000
  N   N11       1.0  0.7416600000000001  0.73053  0.5643500000000002  1.0000
  N   N12       1.0  0.14924000000000004  0.72555  0.39977000000000007  1.0000
  N   N13       1.0  0.9961000000000001  0.77948  0.33962  1.0000
  N   N14       1.0  0.78834  0.67835  0.2644  1.0000
  N   N15       1.0  0.19819000000000003  0.9065899999999998  0.3669600000000001  1.0000
  N   N16       1.0  0.7656400000000001  0.22971  0.9352400000000002  1.0000
  N   N17       1.0  0.34933000000000003  0.224  0.10001000000000003  1.0000
  N   N18       1.0  0.50119  0.27859  0.15998  1.0000
  N   N19       1.0  0.71031  0.17808  0.23565  1.0000
  N   N20       1.0  0.29986  0.40525  0.1328  1.0000
  O   O1        1.0  0.51142  0.21718999999999997  0.33827  1.0000
  O   O2        1.0  0.32968000000000003  0.14062  0.28817000000000004  1.0000
  O   O3        1.0  0.47814  0.11943999999999999  0.37571  1.0000
  O   O4        1.0  0.05584000000000002  0.17508999999999997  0.35934  1.0000
  O   O5        1.0  0.27585  0.06828  0.20716  1.0000
  O   O6        1.0  0.18217999999999995  0.023439999999999996  0.12431  1.0000
  O   O7        1.0  0.23642  0.9660799999999998  0.20544000000000007  1.0000
  O   O8        1.0  0.64821  0.01092  0.16887000000000002  1.0000
  O   O9        1.0  0.37922  0.89135  0.12888  1.0000
  O   O10       1.0  0.77975  0.82806  0.12085000000000003  1.0000
  O   O11       1.0  0.40172  0.80982  0.18063  1.0000
  O   O12       1.0  0.76257  0.8805299999999998  0.20134000000000005  1.0000
  O   O13       1.0  0.84543  0.9636599999999997  0.28373000000000004  1.0000
  O   O14       1.0  0.8212  0.98127  0.37241  1.0000
  O   O15       1.0  0.87388  0.06141  0.3138800000000001  1.0000
  O   O16       1.0  0.41783  0.010189999999999996  0.31664  1.0000
  O   O17       1.0  0.86142  0.94402  0.47608  1.0000
  O   O18       1.0  0.59999  0.8808  0.5257700000000001  1.0000
  O   O19       1.0  0.06546  0.92274  0.55975  1.0000
  O   O20       1.0  0.65131  0.9822099999999999  0.5521900000000001  1.0000
  O   O21       1.0  0.98839  0.71674  0.16193000000000005  1.0000
  O   O22       1.0  0.17000000000000007  0.64027  0.21176000000000006  1.0000
  O   O23       1.0  0.021130000000000006  0.61899  0.12427000000000003  1.0000
  O   O24       1.0  0.4444100000000001  0.6745299999999999  0.1406  1.0000
  O   O25       1.0  0.23598  0.56817  0.29295  1.0000
  O   O26       1.0  0.31939000000000006  0.5237  0.3759300000000001  1.0000
  O   O27       1.0  0.26315  0.46581  0.29512  1.0000
  O   O28       1.0  0.8539200000000001  0.51297  0.33077  1.0000
  O   O29       1.0  0.10953999999999998  0.39143999999999995  0.37356  1.0000
  O   O30       1.0  0.70704  0.32847  0.38102000000000014  1.0000
  O   O31       1.0  0.08518000000000002  0.30945  0.32146  1.0000
  O   O32       1.0  0.73328  0.38083  0.3004500000000001  1.0000
  O   O33       1.0  0.65459  0.4633  0.21714000000000006  1.0000
  O   O34       1.0  0.67907  0.47902  0.12826000000000004  1.0000
  O   O35       1.0  0.62671  0.56055  0.18606000000000006  1.0000
  O   O36       1.0  0.08246000000000003  0.50898  0.18332000000000007  1.0000
  O   O37       1.0  0.63825  0.44209  0.024280000000000006  1.0000
  O   O38       1.0  0.88907  0.3808599999999999  0.9716200000000003  1.0000
  O   O39       1.0  0.43022999999999995  0.42544  0.9395  1.0000
  O   O40       1.0  0.8466000000000001  0.48395999999999995  0.94982  1.0000
  O   O41       1.0  0.48855000000000004  0.78281  0.6617400000000002  1.0000
  O   O42       1.0  0.67029  0.85938  0.7118400000000001  1.0000
  O   O43       1.0  0.52183  0.88056  0.6243  1.0000
  O   O44       1.0  0.94413  0.82491  0.64066  1.0000
  O   O45       1.0  0.7241200000000001  0.93172  0.7928400000000001  1.0000
  O   O46       1.0  0.81779  0.9765599999999999  0.87569  1.0000
  O   O47       1.0  0.7635599999999999  0.03391999999999999  0.79457  1.0000
  O   O48       1.0  0.35176000000000013  0.98908  0.8311300000000003  1.0000
  O   O49       1.0  0.62075  0.10865  0.87113  1.0000
  O   O50       1.0  0.22022000000000003  0.17193999999999995  0.87916  1.0000
  O   O51       1.0  0.5982500000000002  0.19018  0.8193800000000002  1.0000
  O   O52       1.0  0.23740000000000006  0.11947  0.7986700000000002  1.0000
  O   O53       1.0  0.15454000000000007  0.03634  0.7162800000000001  1.0000
  O   O54       1.0  0.17877000000000015  0.01873  0.6275900000000002  1.0000
  O   O55       1.0  0.12609  0.9386  0.68612  1.0000
  O   O56       1.0  0.58214  0.98981  0.6833600000000002  1.0000
  O   O57       1.0  0.13855000000000003  0.05597999999999999  0.5239200000000002  1.0000
  O   O58       1.0  0.39998000000000006  0.1192  0.47423  1.0000
  O   O59       1.0  0.93451  0.07726  0.4402600000000001  1.0000
  O   O60       1.0  0.34866  0.01779  0.44781  1.0000
  O   O61       1.0  0.011580000000000075  0.28326  0.8380700000000002  1.0000
  O   O62       1.0  0.8299800000000002  0.35973  0.7882400000000003  1.0000
  O   O63       1.0  0.9788400000000002  0.38100999999999996  0.8757300000000002  1.0000
  O   O64       1.0  0.5555600000000003  0.32547  0.8594000000000003  1.0000
  O   O65       1.0  0.76399  0.43182999999999994  0.70705  1.0000
  O   O66       1.0  0.68058  0.4762999999999999  0.6240700000000001  1.0000
  O   O67       1.0  0.7368300000000001  0.53419  0.7048800000000002  1.0000
  O   O68       1.0  0.14606000000000013  0.4870299999999999  0.6692300000000002  1.0000
  O   O69       1.0  0.8904300000000002  0.60856  0.62644  1.0000
  O   O70       1.0  0.29293  0.67153  0.61899  1.0000
  O   O71       1.0  0.91479  0.69055  0.67854  1.0000
  O   O72       1.0  0.2667  0.61917  0.69955  1.0000
  O   O73       1.0  0.3453900000000001  0.5367  0.7828600000000002  1.0000
  O   O74       1.0  0.3209000000000001  0.52098  0.8717400000000001  1.0000
  O   O75       1.0  0.37327  0.43945  0.81395  1.0000
  O   O76       1.0  0.91752  0.4910199999999999  0.8166800000000001  1.0000
  O   O77       1.0  0.36173000000000005  0.55791  0.9757200000000001  1.0000
  O   O78       1.0  0.1109  0.61914  0.028380000000000002  1.0000
  O   O79       1.0  0.56975  0.57456  0.06050000000000001  1.0000
  O   O80       1.0  0.15337  0.51604  0.050180000000000016  1.0000
