data_image0
_chemical_formula_structural       Cu16H120C160N8O48
_chemical_formula_sum              "Cu16 H120 C160 N8 O48"
_cell_length_a       9.66639
_cell_length_b       19.52893
_cell_length_c       25.55971
_cell_angle_alpha    90.0
_cell_angle_beta     90.01793999999998
_cell_angle_gamma    90.0

_symmetry_space_group_name_H-M    'P 1'
_symmetry_Int_Tables_number       1

loop_
  _symmetry_equiv_pos_as_xyz
  'x,y,z'

loop_
  _atom_site_type_symbol
  _atom_site_label
  _atom_site_symmetry_multiplicity
  _atom_site_fract_x
  _atom_site_fract_y
  _atom_site_fract_z
  _atom_site_occupancy
  Cu  Cu1       1.0  0.3931200000000001  0.4491  0.52551  1.0000
  Cu  Cu2       1.0  0.19287000000000004  0.55491  0.56649  1.0000
  Cu  Cu3       1.0  0.10688  0.4491  0.47449  1.0000
  Cu  Cu4       1.0  0.30713  0.55491  0.43351000000000006  1.0000
  Cu  Cu5       1.0  0.10691000000000002  0.051640000000000005  0.02561  1.0000
  Cu  Cu6       1.0  0.30628  0.94531  0.06643  1.0000
  Cu  Cu7       1.0  0.39309000000000005  0.05163000000000001  0.9743900000000001  1.0000
  Cu  Cu8       1.0  0.19372  0.94531  0.93357  1.0000
  Cu  Cu9       1.0  0.60689  0.5509  0.47449  1.0000
  Cu  Cu10      1.0  0.8071300000000001  0.44509000000000004  0.43351000000000006  1.0000
  Cu  Cu11      1.0  0.89312  0.5509  0.52551  1.0000
  Cu  Cu12      1.0  0.69287  0.44509000000000004  0.56649  1.0000
  Cu  Cu13      1.0  0.8930900000000002  0.94837  0.9743900000000001  1.0000
  Cu  Cu14      1.0  0.69372  0.05469  0.93357  1.0000
  Cu  Cu15      1.0  0.60692  0.94837  0.02561  1.0000
  Cu  Cu16      1.0  0.8062800000000001  0.05469  0.06643  1.0000
  H   H1        1.0  0.17720000000000002  0.18142  0.54155  1.0000
  H   H2        1.0  0.07114  0.07624  0.50435  1.0000
  H   H3        1.0  0.04263  0.9722  0.56011  1.0000
  H   H4        1.0  0.24153  0.07576  0.68787  1.0000
  H   H5        1.0  0.2628  0.18112  0.63328  1.0000
  H   H6        1.0  0.33828  0.93053  0.59799  1.0000
  H   H7        1.0  0.39868  0.81683  0.56075  1.0000
  H   H8        1.0  0.043410000000000004  0.72827  0.63489  1.0000
  H   H9        1.0  0.9810300000000001  0.8416599999999999  0.6724  1.0000
  H   H10       1.0  0.16228  0.87434  0.74042  1.0000
  H   H11       1.0  0.07255  0.8897300000000001  0.83024  1.0000
  H   H12       1.0  0.8571300000000001  0.07134  0.78167  1.0000
  H   H13       1.0  0.94959  0.058059999999999994  0.69192  1.0000
  H   H14       1.0  0.15847  0.42326  0.57299  1.0000
  H   H15       1.0  0.59766  0.38736  0.48493  1.0000
  H   H16       1.0  0.32281  0.18142  0.45845  1.0000
  H   H17       1.0  0.42886  0.07624  0.49565  1.0000
  H   H18       1.0  0.45737  0.9722  0.43988  1.0000
  H   H19       1.0  0.25847  0.07576  0.31212  1.0000
  H   H20       1.0  0.2372  0.18112  0.36671  1.0000
  H   H21       1.0  0.16172  0.93053  0.40201  1.0000
  H   H22       1.0  0.10132  0.81683  0.43924  1.0000
  H   H23       1.0  0.45659000000000005  0.72827  0.36511000000000005  1.0000
  H   H24       1.0  0.51897  0.8416599999999999  0.3276  1.0000
  H   H25       1.0  0.33773  0.87434  0.25958  1.0000
  H   H26       1.0  0.42745000000000005  0.8897300000000001  0.16976  1.0000
  H   H27       1.0  0.64287  0.07134  0.21833  1.0000
  H   H28       1.0  0.55041  0.058059999999999994  0.30808  1.0000
  H   H29       1.0  0.34153000000000006  0.42326  0.42701  1.0000
  H   H30       1.0  0.9023400000000001  0.38736  0.51507  1.0000
  H   H31       1.0  0.32283000000000006  0.31863  0.04158  1.0000
  H   H32       1.0  0.4289  0.4238100000000001  0.0044  1.0000
  H   H33       1.0  0.45747000000000004  0.52784  0.06016  1.0000
  H   H34       1.0  0.25856  0.4243  0.18789  1.0000
  H   H35       1.0  0.23722  0.31895  0.1333  1.0000
  H   H36       1.0  0.16194  0.56956  0.09802  1.0000
  H   H37       1.0  0.10156  0.68321  0.06075  1.0000
  H   H38       1.0  0.45688  0.7718  0.13492  1.0000
  H   H39       1.0  0.51912  0.65841  0.17249  1.0000
  H   H40       1.0  0.33860000000000007  0.62557  0.2407  1.0000
  H   H41       1.0  0.42813000000000007  0.60971  0.33046  1.0000
  H   H42       1.0  0.64305  0.4281499999999999  0.28148  1.0000
  H   H43       1.0  0.55055  0.44184000000000007  0.19176  1.0000
  H   H44       1.0  0.34183  0.07739  0.07296  1.0000
  H   H45       1.0  0.90214  0.11247999999999998  0.98504  1.0000
  H   H46       1.0  0.17717  0.31863  0.9584100000000001  1.0000
  H   H47       1.0  0.07111000000000002  0.4238100000000001  0.9956  1.0000
  H   H48       1.0  0.04253  0.52784  0.93984  1.0000
  H   H49       1.0  0.24145  0.4243  0.8121100000000001  1.0000
  H   H50       1.0  0.26278000000000007  0.31895  0.8667  1.0000
  H   H51       1.0  0.33807  0.56956  0.90198  1.0000
  H   H52       1.0  0.39844  0.68321  0.93925  1.0000
  H   H53       1.0  0.04313  0.7718  0.86507  1.0000
  H   H54       1.0  0.98089  0.65841  0.8275100000000001  1.0000
  H   H55       1.0  0.16140000000000002  0.62557  0.7593  1.0000
  H   H56       1.0  0.07187000000000002  0.60971  0.66953  1.0000
  H   H57       1.0  0.8569500000000001  0.4281499999999999  0.71851  1.0000
  H   H58       1.0  0.9494500000000001  0.44184000000000007  0.80824  1.0000
  H   H59       1.0  0.15817000000000003  0.07739  0.92704  1.0000
  H   H60       1.0  0.59787  0.11247999999999998  0.014950000000000001  1.0000
  H   H61       1.0  0.82281  0.81858  0.45845  1.0000
  H   H62       1.0  0.92886  0.9237600000000001  0.49565  1.0000
  H   H63       1.0  0.95737  0.0278  0.43988  1.0000
  H   H64       1.0  0.75848  0.9242400000000001  0.31212  1.0000
  H   H65       1.0  0.7372  0.81888  0.36671  1.0000
  H   H66       1.0  0.66172  0.06947  0.40201  1.0000
  H   H67       1.0  0.60132  0.18318  0.43924  1.0000
  H   H68       1.0  0.9565900000000002  0.27173  0.36511000000000005  1.0000
  H   H69       1.0  0.01897  0.15834  0.3276  1.0000
  H   H70       1.0  0.8377300000000001  0.12566  0.25958  1.0000
  H   H71       1.0  0.92745  0.11027  0.16976  1.0000
  H   H72       1.0  0.14287000000000002  0.9286599999999999  0.21833  1.0000
  H   H73       1.0  0.05041000000000002  0.94194  0.30808  1.0000
  H   H74       1.0  0.84153  0.57674  0.42701  1.0000
  H   H75       1.0  0.40234  0.61264  0.51507  1.0000
  H   H76       1.0  0.6772000000000001  0.81858  0.54155  1.0000
  H   H77       1.0  0.57114  0.9237600000000001  0.50435  1.0000
  H   H78       1.0  0.54263  0.0278  0.56011  1.0000
  H   H79       1.0  0.74153  0.9242400000000001  0.68787  1.0000
  H   H80       1.0  0.7628000000000001  0.81888  0.63328  1.0000
  H   H81       1.0  0.8382800000000001  0.06947  0.59799  1.0000
  H   H82       1.0  0.8986800000000001  0.18318  0.56075  1.0000
  H   H83       1.0  0.5434100000000001  0.27173  0.63489  1.0000
  H   H84       1.0  0.48103  0.15834  0.6724  1.0000
  H   H85       1.0  0.66228  0.12566  0.74042  1.0000
  H   H86       1.0  0.57255  0.11027  0.83024  1.0000
  H   H87       1.0  0.35713  0.9286599999999999  0.78167  1.0000
  H   H88       1.0  0.44959  0.94194  0.69192  1.0000
  H   H89       1.0  0.6584700000000001  0.57674  0.57299  1.0000
  H   H90       1.0  0.09766000000000001  0.61264  0.48493  1.0000
  H   H91       1.0  0.67717  0.68137  0.9584100000000001  1.0000
  H   H92       1.0  0.57111  0.57619  0.9956  1.0000
  H   H93       1.0  0.54253  0.47215999999999997  0.93984  1.0000
  H   H94       1.0  0.74145  0.5757  0.8121100000000001  1.0000
  H   H95       1.0  0.76278  0.68105  0.8667  1.0000
  H   H96       1.0  0.83807  0.43043999999999993  0.90198  1.0000
  H   H97       1.0  0.89844  0.31679  0.93925  1.0000
  H   H98       1.0  0.54313  0.2282  0.86507  1.0000
  H   H99       1.0  0.48088  0.34159  0.8275100000000001  1.0000
  H   H100      1.0  0.6614000000000001  0.37443  0.7593  1.0000
  H   H101      1.0  0.57187  0.39029  0.66953  1.0000
  H   H102      1.0  0.35695  0.57185  0.71851  1.0000
  H   H103      1.0  0.44945  0.55816  0.80824  1.0000
  H   H104      1.0  0.6581700000000001  0.9226100000000002  0.92704  1.0000
  H   H105      1.0  0.09787  0.88752  0.014950000000000001  1.0000
  H   H106      1.0  0.82283  0.68137  0.04158  1.0000
  H   H107      1.0  0.9289000000000001  0.57619  0.0044  1.0000
  H   H108      1.0  0.9574700000000002  0.47215999999999997  0.06016  1.0000
  H   H109      1.0  0.75856  0.5757  0.18789  1.0000
  H   H110      1.0  0.73723  0.68105  0.1333  1.0000
  H   H111      1.0  0.66194  0.43043999999999993  0.09802  1.0000
  H   H112      1.0  0.60156  0.31679  0.06075  1.0000
  H   H113      1.0  0.95688  0.2282  0.13492  1.0000
  H   H114      1.0  0.01912  0.34159  0.17249  1.0000
  H   H115      1.0  0.8386  0.37443  0.2407  1.0000
  H   H116      1.0  0.9281300000000001  0.39029  0.33046  1.0000
  H   H117      1.0  0.14305  0.57185  0.28148  1.0000
  H   H118      1.0  0.05055000000000001  0.55816  0.19176  1.0000
  H   H119      1.0  0.8418300000000001  0.9226100000000002  0.07296  1.0000
  H   H120      1.0  0.40214000000000005  0.88752  0.98504  1.0000
  C   C1        1.0  0.16808  0.13548  0.56536  1.0000
  C   C2        1.0  0.1079  0.07635  0.54456  1.0000
  C   C3        1.0  0.09206  0.018  0.57547  1.0000
  C   C4        1.0  0.13908  0.01802  0.62738  1.0000
  C   C5        1.0  0.20296000000000003  0.07665  0.6478900000000001  1.0000
  C   C6        1.0  0.2153  0.13533  0.61706  1.0000
  C   C7        1.0  0.15582  0.8936699999999999  0.63811  1.0000
  C   C8        1.0  0.27343  0.88634  0.60622  1.0000
  C   C9        1.0  0.30742  0.8226699999999999  0.5852  1.0000
  C   C10       1.0  0.22593000000000002  0.76498  0.59579  1.0000
  C   C11       1.0  0.10797  0.77277  0.62742  1.0000
  C   C12       1.0  0.07277000000000002  0.83611  0.6482200000000001  1.0000
  C   C13       1.0  0.0643  0.9654499999999999  0.7097  1.0000
  C   C14       1.0  0.09549000000000002  0.91752  0.74929  1.0000
  C   C15       1.0  0.04429000000000001  0.9258  0.7996  1.0000
  C   C16       1.0  0.9582800000000001  0.98158  0.81185  1.0000
  C   C17       1.0  0.9252000000000001  0.028819999999999995  0.77227  1.0000
  C   C18       1.0  0.9768700000000001  0.02112  0.72199  1.0000
  C   C19       1.0  0.9008  0.9901400000000001  0.86496  1.0000
  C   C20       1.0  0.26265  0.69589  0.57437  1.0000
  C   C21       1.0  0.33192000000000005  0.13548  0.43464  1.0000
  C   C22       1.0  0.3921  0.07635  0.45544  1.0000
  C   C23       1.0  0.40794  0.018  0.4245300000000001  1.0000
  C   C24       1.0  0.36092  0.01802  0.37261  1.0000
  C   C25       1.0  0.29705  0.07665  0.35211  1.0000
  C   C26       1.0  0.28470000000000006  0.13533  0.38294  1.0000
  C   C27       1.0  0.34418  0.8936699999999999  0.36189  1.0000
  C   C28       1.0  0.22658000000000003  0.88634  0.39378  1.0000
  C   C29       1.0  0.19258  0.8226699999999999  0.41480000000000006  1.0000
  C   C30       1.0  0.27407  0.76498  0.40421  1.0000
  C   C31       1.0  0.39203  0.77277  0.37258  1.0000
  C   C32       1.0  0.42724000000000006  0.83611  0.35178  1.0000
  C   C33       1.0  0.4357  0.9654499999999999  0.2903  1.0000
  C   C34       1.0  0.4045100000000001  0.91752  0.25071  1.0000
  C   C35       1.0  0.45571  0.9258  0.20039  1.0000
  C   C36       1.0  0.54173  0.98158  0.18814  1.0000
  C   C37       1.0  0.5748  0.028819999999999995  0.22773  1.0000
  C   C38       1.0  0.52313  0.02112  0.27801  1.0000
  C   C39       1.0  0.5992  0.9901400000000001  0.13504  1.0000
  C   C40       1.0  0.23736000000000002  0.69589  0.42562  1.0000
  C   C41       1.0  0.33196000000000003  0.36457  0.06539  1.0000
  C   C42       1.0  0.39215  0.4237099999999999  0.0446  1.0000
  C   C43       1.0  0.4080300000000001  0.48206  0.07552  1.0000
  C   C44       1.0  0.36102  0.48205  0.12742  1.0000
  C   C45       1.0  0.2971  0.42341  0.14791  1.0000
  C   C46       1.0  0.28474000000000005  0.36473  0.11708  1.0000
  C   C47       1.0  0.3443800000000001  0.6064  0.13818  1.0000
  C   C48       1.0  0.22679  0.61374  0.10625  1.0000
  C   C49       1.0  0.19281  0.67741  0.08522000000000002  1.0000
  C   C50       1.0  0.27422  0.73512  0.09581  1.0000
  C   C51       1.0  0.39221  0.72733  0.12745  1.0000
  C   C52       1.0  0.42739  0.66398  0.14829  1.0000
  C   C53       1.0  0.43607  0.53448  0.20975  1.0000
  C   C54       1.0  0.4052  0.58227  0.24947  1.0000
  C   C55       1.0  0.45640000000000003  0.57371  0.29978  1.0000
  C   C56       1.0  0.54233  0.51781  0.31184  1.0000
  C   C57       1.0  0.57516  0.47075  0.27213  1.0000
  C   C58       1.0  0.52339  0.47869999999999996  0.22189  1.0000
  C   C59       1.0  0.60015  0.50871  0.36482000000000003  1.0000
  C   C60       1.0  0.23728  0.80417  0.07435  1.0000
  C   C61       1.0  0.16804000000000002  0.36457  0.93461  1.0000
  C   C62       1.0  0.10785  0.4237099999999999  0.95539  1.0000
  C   C63       1.0  0.09198  0.48206  0.92448  1.0000
  C   C64       1.0  0.13899  0.48205  0.87257  1.0000
  C   C65       1.0  0.2029  0.42341  0.85209  1.0000
  C   C66       1.0  0.21527  0.36473  0.88292  1.0000
  C   C67       1.0  0.15563  0.6064  0.86182  1.0000
  C   C68       1.0  0.27321  0.61374  0.89374  1.0000
  C   C69       1.0  0.3072  0.67741  0.91478  1.0000
  C   C70       1.0  0.22578000000000004  0.73512  0.9041900000000002  1.0000
  C   C71       1.0  0.10779  0.72733  0.87254  1.0000
  C   C72       1.0  0.07262  0.66398  0.85171  1.0000
  C   C73       1.0  0.06393  0.53448  0.79024  1.0000
  C   C74       1.0  0.0948  0.58227  0.75053  1.0000
  C   C75       1.0  0.04360000000000001  0.57371  0.70021  1.0000
  C   C76       1.0  0.95767  0.51781  0.68816  1.0000
  C   C77       1.0  0.92484  0.47075  0.72786  1.0000
  C   C78       1.0  0.97661  0.47869999999999996  0.7781  1.0000
  C   C79       1.0  0.89986  0.50871  0.63518  1.0000
  C   C80       1.0  0.26272  0.80417  0.92565  1.0000
  C   C81       1.0  0.83192  0.86452  0.43464  1.0000
  C   C82       1.0  0.8921000000000001  0.9236599999999999  0.45544  1.0000
  C   C83       1.0  0.90794  0.9819999999999999  0.4245300000000001  1.0000
  C   C84       1.0  0.86092  0.9819800000000001  0.37261  1.0000
  C   C85       1.0  0.79705  0.9233500000000001  0.35211  1.0000
  C   C86       1.0  0.7847000000000001  0.86467  0.38294  1.0000
  C   C87       1.0  0.8441800000000002  0.10633  0.36189  1.0000
  C   C88       1.0  0.72658  0.11366000000000001  0.39378  1.0000
  C   C89       1.0  0.6925900000000001  0.17733  0.41480000000000006  1.0000
  C   C90       1.0  0.77407  0.23502  0.40421  1.0000
  C   C91       1.0  0.89203  0.22723  0.37258  1.0000
  C   C92       1.0  0.92724  0.16389  0.35178  1.0000
  C   C93       1.0  0.9357  0.03455  0.2903  1.0000
  C   C94       1.0  0.90452  0.08248  0.25071  1.0000
  C   C95       1.0  0.95571  0.0742  0.20039  1.0000
  C   C96       1.0  0.04173  0.01842  0.18814  1.0000
  C   C97       1.0  0.07480000000000002  0.9711799999999999  0.22773  1.0000
  C   C98       1.0  0.02313  0.97889  0.27801  1.0000
  C   C99       1.0  0.09920000000000001  0.00987  0.13504  1.0000
  C   C100      1.0  0.7373600000000001  0.30411  0.42562  1.0000
  C   C101      1.0  0.66808  0.86452  0.56536  1.0000
  C   C102      1.0  0.6079  0.9236599999999999  0.54456  1.0000
  C   C103      1.0  0.59206  0.9819999999999999  0.57547  1.0000
  C   C104      1.0  0.63908  0.9819800000000001  0.62738  1.0000
  C   C105      1.0  0.70296  0.9233500000000001  0.6478900000000001  1.0000
  C   C106      1.0  0.71531  0.86467  0.61706  1.0000
  C   C107      1.0  0.65582  0.10633  0.63811  1.0000
  C   C108      1.0  0.77343  0.11366000000000001  0.60622  1.0000
  C   C109      1.0  0.80742  0.17733  0.5852  1.0000
  C   C110      1.0  0.72593  0.23502  0.59579  1.0000
  C   C111      1.0  0.60797  0.22723  0.62742  1.0000
  C   C112      1.0  0.57277  0.16389  0.6482200000000001  1.0000
  C   C113      1.0  0.5643  0.03455  0.7097  1.0000
  C   C114      1.0  0.5954900000000001  0.08248  0.74929  1.0000
  C   C115      1.0  0.5442900000000002  0.0742  0.7996  1.0000
  C   C116      1.0  0.45827  0.01842  0.81185  1.0000
  C   C117      1.0  0.4252000000000001  0.9711799999999999  0.77227  1.0000
  C   C118      1.0  0.47687000000000007  0.97888  0.72199  1.0000
  C   C119      1.0  0.4008000000000001  0.00987  0.86496  1.0000
  C   C120      1.0  0.76265  0.30411  0.57437  1.0000
  C   C121      1.0  0.66805  0.63543  0.93461  1.0000
  C   C122      1.0  0.60785  0.57629  0.95539  1.0000
  C   C123      1.0  0.59198  0.51794  0.92448  1.0000
  C   C124      1.0  0.63899  0.51795  0.87257  1.0000
  C   C125      1.0  0.7029  0.57659  0.85209  1.0000
  C   C126      1.0  0.71527  0.63527  0.88292  1.0000
  C   C127      1.0  0.65563  0.3936  0.86182  1.0000
  C   C128      1.0  0.77321  0.38626  0.89374  1.0000
  C   C129      1.0  0.8072  0.32259  0.91478  1.0000
  C   C130      1.0  0.72578  0.26488  0.9041900000000002  1.0000
  C   C131      1.0  0.6077900000000002  0.27267  0.87254  1.0000
  C   C132      1.0  0.57262  0.33602  0.85171  1.0000
  C   C133      1.0  0.56393  0.46552  0.79024  1.0000
  C   C134      1.0  0.5948  0.41772999999999993  0.75053  1.0000
  C   C135      1.0  0.54361  0.42629  0.70021  1.0000
  C   C136      1.0  0.45767  0.48219  0.68816  1.0000
  C   C137      1.0  0.42484000000000005  0.52925  0.72786  1.0000
  C   C138      1.0  0.47661  0.52131  0.7781  1.0000
  C   C139      1.0  0.39985  0.49129  0.63518  1.0000
  C   C140      1.0  0.76272  0.19583  0.92565  1.0000
  C   C141      1.0  0.83196  0.63543  0.06539  1.0000
  C   C142      1.0  0.89215  0.57629  0.0446  1.0000
  C   C143      1.0  0.9080300000000001  0.51794  0.07552  1.0000
  C   C144      1.0  0.86102  0.51795  0.12742  1.0000
  C   C145      1.0  0.7971  0.57659  0.14791  1.0000
  C   C146      1.0  0.78474  0.63527  0.11708  1.0000
  C   C147      1.0  0.84438  0.3936  0.13818  1.0000
  C   C148      1.0  0.7267900000000002  0.38626  0.10625  1.0000
  C   C149      1.0  0.6928100000000001  0.32259  0.08522000000000002  1.0000
  C   C150      1.0  0.7742200000000002  0.26488  0.09581  1.0000
  C   C151      1.0  0.89222  0.27267  0.12745  1.0000
  C   C152      1.0  0.92739  0.33602  0.14829  1.0000
  C   C153      1.0  0.93607  0.46552  0.20975  1.0000
  C   C154      1.0  0.9052  0.41772999999999993  0.24947  1.0000
  C   C155      1.0  0.9564000000000001  0.42629  0.29978  1.0000
  C   C156      1.0  0.04233  0.48219  0.31184  1.0000
  C   C157      1.0  0.07516  0.52925  0.27213  1.0000
  C   C158      1.0  0.023390000000000005  0.52131  0.22189  1.0000
  C   C159      1.0  0.10015  0.49129  0.36482000000000003  1.0000
  C   C160      1.0  0.7372800000000002  0.19583  0.07435  1.0000
  N   N1        1.0  0.1203  0.95865  0.65915  1.0000
  N   N2        1.0  0.37971  0.95865  0.34085  1.0000
  N   N3        1.0  0.37989  0.5414  0.15922  1.0000
  N   N4        1.0  0.12011  0.5414  0.8407800000000001  1.0000
  N   N5        1.0  0.87971  0.04135  0.34085  1.0000
  N   N6        1.0  0.6203000000000001  0.04135  0.65915  1.0000
  N   N7        1.0  0.6201100000000002  0.45859999999999995  0.8407800000000001  1.0000
  N   N8        1.0  0.8798900000000001  0.45859999999999995  0.15922  1.0000
  O   O1        1.0  0.9518  0.9514  0.90142  1.0000
  O   O2        1.0  0.80578  0.03469  0.87121  1.0000
  O   O3        1.0  0.3700500000000001  0.68714  0.54737  1.0000
  O   O4        1.0  0.17394  0.64894  0.58714  1.0000
  O   O5        1.0  0.19323  0.45302  0.54545  1.0000
  O   O6        1.0  0.58316  0.4335399999999999  0.5022  1.0000
  O   O7        1.0  0.54821  0.9514  0.09858  1.0000
  O   O8        1.0  0.69422  0.03469  0.12879  1.0000
  O   O9        1.0  0.12995  0.68714  0.45263000000000003  1.0000
  O   O10       1.0  0.32606000000000007  0.64894  0.41285  1.0000
  O   O11       1.0  0.30677  0.45302  0.4545500000000001  1.0000
  O   O12       1.0  0.91684  0.4335399999999999  0.4978  1.0000
  O   O13       1.0  0.54694  0.5457  0.4018  1.0000
  O   O14       1.0  0.69775  0.46545  0.37057000000000007  1.0000
  O   O15       1.0  0.12985  0.81289  0.04732  1.0000
  O   O16       1.0  0.32589  0.85119  0.08714000000000001  1.0000
  O   O17       1.0  0.30716  0.04754  0.04545  1.0000
  O   O18       1.0  0.9166600000000001  0.0663  0.0023  1.0000
  O   O19       1.0  0.95307  0.5457  0.59819  1.0000
  O   O20       1.0  0.80225  0.46545  0.62943  1.0000
  O   O21       1.0  0.37015  0.81289  0.95268  1.0000
  O   O22       1.0  0.17412000000000002  0.85119  0.91286  1.0000
  O   O23       1.0  0.19285  0.04754  0.95455  1.0000
  O   O24       1.0  0.58334  0.0663  0.9977000000000001  1.0000
  O   O25       1.0  0.04821  0.0486  0.09858  1.0000
  O   O26       1.0  0.19422  0.9653099999999999  0.12879  1.0000
  O   O27       1.0  0.62995  0.31286  0.45263000000000003  1.0000
  O   O28       1.0  0.82606  0.35106  0.41285  1.0000
  O   O29       1.0  0.80678  0.54698  0.4545500000000001  1.0000
  O   O30       1.0  0.41684  0.56647  0.4978  1.0000
  O   O31       1.0  0.4517900000000001  0.0486  0.90142  1.0000
  O   O32       1.0  0.30578  0.9653099999999999  0.87121  1.0000
  O   O33       1.0  0.8700500000000001  0.31286  0.54737  1.0000
  O   O34       1.0  0.6739400000000001  0.35106  0.58714  1.0000
  O   O35       1.0  0.69323  0.54698  0.54545  1.0000
  O   O36       1.0  0.08316  0.56647  0.5022  1.0000
  O   O37       1.0  0.45307000000000003  0.4542999999999999  0.59819  1.0000
  O   O38       1.0  0.30225  0.53455  0.62943  1.0000
  O   O39       1.0  0.87015  0.18712  0.95268  1.0000
  O   O40       1.0  0.67412  0.14881  0.91286  1.0000
  O   O41       1.0  0.69285  0.95246  0.95455  1.0000
  O   O42       1.0  0.08334  0.9337000000000001  0.9977000000000001  1.0000
  O   O43       1.0  0.04693  0.4542999999999999  0.4018  1.0000
  O   O44       1.0  0.19775000000000004  0.53455  0.37057000000000007  1.0000
  O   O45       1.0  0.62986  0.18712  0.04732  1.0000
  O   O46       1.0  0.8258900000000002  0.14881  0.08714000000000001  1.0000
  O   O47       1.0  0.80716  0.95247  0.04545  1.0000
  O   O48       1.0  0.41666  0.9337000000000001  0.0023  1.0000
