data_image0
_chemical_formula_structural       Ni8H144C160N48
_chemical_formula_sum              "Ni8 H144 C160 N48"
_cell_length_a       15.7614
_cell_length_b       15.578869999999998
_cell_length_c       17.13552
_cell_angle_alpha    90.00815
_cell_angle_beta     90.00316999999998
_cell_angle_gamma    90.01169

_space_group_name_H-M_alt    "P 1"
_space_group_IT_number       1

loop_
  _space_group_symop_operation_xyz
  'x, y, z'

loop_
  _atom_site_type_symbol
  _atom_site_label
  _atom_site_symmetry_multiplicity
  _atom_site_fract_x
  _atom_site_fract_y
  _atom_site_fract_z
  _atom_site_occupancy
  Ni  Ni1       1.0  0.5132  0.9482200000000002  0.84769  1.0000
  Ni  Ni2       1.0  0.99156  0.45373000000000013  0.92628  1.0000
  Ni  Ni3       1.0  0.9868399999999998  0.9487500000000002  0.34821000000000013  1.0000
  Ni  Ni4       1.0  0.50851  0.4541  0.42535  1.0000
  Ni  Ni5       1.0  0.4859699999999999  0.05146  0.34751  1.0000
  Ni  Ni6       1.0  0.00832  0.54542  0.42592  1.0000
  Ni  Ni7       1.0  0.013209999999999996  0.0513  0.84833  1.0000
  Ni  Ni8       1.0  0.4934199999999999  0.54726  0.92558  1.0000
  H   H1        1.0  0.18272999999999995  0.10123  0.6636500000000001  1.0000
  H   H2        1.0  0.72204  0.2684900000000001  0.67268  1.0000
  H   H3        1.0  0.7818899999999998  0.7690700000000003  0.10331000000000003  1.0000
  H   H4        1.0  0.32065  0.61104  0.10879  1.0000
  H   H5        1.0  0.9742099999999998  0.05864000000000001  0.48794000000000004  1.0000
  H   H6        1.0  0.06089  0.1057  0.6001100000000001  1.0000
  H   H7        1.0  0.2650499999999999  0.9461400000000002  0.51107  1.0000
  H   H8        1.0  0.16855  0.90664  0.40267000000000003  1.0000
  H   H9        1.0  0.4136499999999999  0.09277000000000003  0.82032  1.0000
  H   H10       1.0  0.2985899999999999  0.14528  0.7359  1.0000
  H   H11       1.0  0.29857  0.89698  0.6218  1.0000
  H   H12       1.0  0.4143399999999999  0.8546000000000002  0.71063  1.0000
  H   H13       1.0  0.53666  0.03621  0.68139  1.0000
  H   H14       1.0  0.60649  0.17143000000000005  0.6438  1.0000
  H   H15       1.0  0.7373299999999998  0.16618  0.86534  1.0000
  H   H16       1.0  0.6675699999999998  0.027230000000000008  0.89107  1.0000
  H   H17       1.0  0.8175799999999998  0.38918  0.9551000000000001  1.0000
  H   H18       1.0  0.70368  0.31431  0.88252  1.0000
  H   H19       1.0  0.87099  0.31357  0.6819  1.0000
  H   H20       1.0  0.9778299999999998  0.38629  0.76317  1.0000
  H   H21       1.0  0.6865299999999998  0.88764  0.8203100000000001  1.0000
  H   H22       1.0  0.80056  0.8139700000000002  0.8933  1.0000
  H   H23       1.0  0.63268  0.81359  0.09364  1.0000
  H   H24       1.0  0.52606  0.8847300000000002  0.011470000000000003  1.0000
  H   H25       1.0  0.8360099999999998  0.52837  0.88488  1.0000
  H   H26       1.0  0.76635  0.6670200000000002  0.91056  1.0000
  H   H27       1.0  0.8935899999999998  0.66909  0.13471  1.0000
  H   H28       1.0  0.9633699999999997  0.5338500000000003  0.09692  1.0000
  H   H29       1.0  0.08521  0.60091  0.95373  1.0000
  H   H30       1.0  0.20005999999999993  0.6560300000000002  0.03798  1.0000
  H   H31       1.0  0.20855  0.4061200000000001  0.14876000000000006  1.0000
  H   H32       1.0  0.09296  0.3610700000000001  0.0605  1.0000
  H   H33       1.0  0.5259399999999997  0.56116  0.28761  1.0000
  H   H34       1.0  0.44296999999999986  0.6119100000000002  0.17463  1.0000
  H   H35       1.0  0.23171999999999995  0.4609  0.26115  1.0000
  H   H36       1.0  0.32424  0.41692  0.3706800000000001  1.0000
  H   H37       1.0  0.31666  0.10099  0.16349  1.0000
  H   H38       1.0  0.7771299999999998  0.26832  0.17333  1.0000
  H   H39       1.0  0.7183499999999998  0.7687  0.60314  1.0000
  H   H40       1.0  0.17981999999999995  0.6115  0.60894  1.0000
  H   H41       1.0  0.52553  0.058550000000000005  0.9882500000000001  1.0000
  H   H42       1.0  0.43908999999999987  0.10566  0.10047  1.0000
  H   H43       1.0  0.23462  0.9458600000000003  0.01128  1.0000
  H   H44       1.0  0.3306199999999999  0.9064200000000002  0.9028800000000002  1.0000
  H   H45       1.0  0.08578999999999998  0.09251000000000002  0.32022  1.0000
  H   H46       1.0  0.20162  0.14556  0.23652  1.0000
  H   H47       1.0  0.20118999999999995  0.8967200000000002  0.12205000000000002  1.0000
  H   H48       1.0  0.08496  0.85505  0.21047  1.0000
  H   H49       1.0  0.96267  0.03724  0.18115  1.0000
  H   H50       1.0  0.8928699999999998  0.17261  0.14428  1.0000
  H   H51       1.0  0.7627899999999997  0.16639  0.36597  1.0000
  H   H52       1.0  0.8319599999999998  0.02736  0.39102  1.0000
  H   H53       1.0  0.68232  0.3892700000000001  0.4552100000000001  1.0000
  H   H54       1.0  0.79538  0.3137200000000001  0.38299000000000005  1.0000
  H   H55       1.0  0.62792  0.31292  0.18274  1.0000
  H   H56       1.0  0.5217099999999998  0.38645  0.26353  1.0000
  H   H57       1.0  0.8125899999999998  0.88743  0.32018  1.0000
  H   H58       1.0  0.69923  0.81339  0.39339  1.0000
  H   H59       1.0  0.8672299999999997  0.81305  0.59323  1.0000
  H   H60       1.0  0.9737599999999997  0.88479  0.51145  1.0000
  H   H61       1.0  0.66368  0.5285500000000002  0.38494  1.0000
  H   H62       1.0  0.73299  0.66738  0.41055  1.0000
  H   H63       1.0  0.6059399999999998  0.6691500000000002  0.6346  1.0000
  H   H64       1.0  0.5365499999999997  0.53368  0.5968900000000003  1.0000
  H   H65       1.0  0.41510999999999987  0.6002000000000002  0.45425  1.0000
  H   H66       1.0  0.29999  0.65653  0.53748  1.0000
  H   H67       1.0  0.2906799999999999  0.40605  0.6489  1.0000
  H   H68       1.0  0.4066899999999999  0.3613300000000001  0.56118  1.0000
  H   H69       1.0  0.9736799999999998  0.5613300000000002  0.78736  1.0000
  H   H70       1.0  0.05658  0.61224  0.67456  1.0000
  H   H71       1.0  0.26815  0.4611900000000001  0.7613  1.0000
  H   H72       1.0  0.17515  0.41726  0.87058  1.0000
  H   H73       1.0  0.81731  0.89895  0.16362  1.0000
  H   H74       1.0  0.27758  0.7310500000000002  0.17301  1.0000
  H   H75       1.0  0.21837  0.23096000000000005  0.60303  1.0000
  H   H76       1.0  0.6793499999999998  0.38882  0.60909  1.0000
  H   H77       1.0  0.025609999999999994  0.94135  0.9881500000000001  1.0000
  H   H78       1.0  0.93899  0.8943000000000002  0.10017  1.0000
  H   H79       1.0  0.7350899999999998  0.054250000000000013  0.011050000000000003  1.0000
  H   H80       1.0  0.8315299999999998  0.09363  0.90276  1.0000
  H   H81       1.0  0.58639  0.90693  0.3201700000000001  1.0000
  H   H82       1.0  0.70164  0.85473  0.23576  1.0000
  H   H83       1.0  0.70119  0.10316000000000003  0.12174000000000001  1.0000
  H   H84       1.0  0.58536  0.14526  0.21052  1.0000
  H   H85       1.0  0.4631499999999999  0.963  0.18141  1.0000
  H   H86       1.0  0.39308  0.82771  0.14427  1.0000
  H   H87       1.0  0.2624899999999999  0.83383  0.36581  1.0000
  H   H88       1.0  0.33233999999999997  0.9728900000000003  0.3910800000000001  1.0000
  H   H89       1.0  0.18175  0.61074  0.45525000000000004  1.0000
  H   H90       1.0  0.29576999999999987  0.6856800000000002  0.38313000000000014  1.0000
  H   H91       1.0  0.12837  0.6866500000000001  0.18223  1.0000
  H   H92       1.0  0.02157999999999999  0.6138800000000002  0.26337  1.0000
  H   H93       1.0  0.3133199999999999  0.11246000000000003  0.32030000000000003  1.0000
  H   H94       1.0  0.19930999999999993  0.18645  0.39295  1.0000
  H   H95       1.0  0.3673299999999999  0.18674  0.59356  1.0000
  H   H96       1.0  0.4737999999999999  0.1152  0.51148  1.0000
  H   H97       1.0  0.1634  0.47161  0.3849  1.0000
  H   H98       1.0  0.23343999999999995  0.33304  0.41029  1.0000
  H   H99       1.0  0.10650999999999997  0.33075  0.6347300000000002  1.0000
  H   H100      1.0  0.03659999999999999  0.46588  0.5970200000000002  1.0000
  H   H101      1.0  0.9148299999999998  0.39955  0.4541  1.0000
  H   H102      1.0  0.8000099999999998  0.34353  0.53777  1.0000
  H   H103      1.0  0.7906599999999998  0.59348  0.6488300000000002  1.0000
  H   H104      1.0  0.9061899999999998  0.6387400000000002  0.56092  1.0000
  H   H105      1.0  0.4736899999999999  0.4387500000000001  0.78767  1.0000
  H   H106      1.0  0.55641  0.38768  0.67423  1.0000
  H   H107      1.0  0.76845  0.53883  0.76123  1.0000
  H   H108      1.0  0.67595  0.58266  0.87051  1.0000
  H   H109      1.0  0.6833799999999998  0.8989200000000003  0.6635  1.0000
  H   H110      1.0  0.22292  0.7317300000000002  0.67298  1.0000
  H   H111      1.0  0.28193  0.23136000000000007  0.10345  1.0000
  H   H112      1.0  0.82054  0.3887100000000001  0.10901  1.0000
  H   H113      1.0  0.47439  0.9410800000000002  0.48816  1.0000
  H   H114      1.0  0.5610299999999998  0.89405  0.60038  1.0000
  H   H115      1.0  0.7652699999999998  0.05384  0.51124  1.0000
  H   H116      1.0  0.66916  0.09327  0.40277000000000013  1.0000
  H   H117      1.0  0.9142399999999998  0.9075400000000002  0.82038  1.0000
  H   H118      1.0  0.7982799999999998  0.8543500000000003  0.7365500000000003  1.0000
  H   H119      1.0  0.79882  0.10325000000000002  0.62186  1.0000
  H   H120      1.0  0.9150499999999998  0.14487  0.71046  1.0000
  H   H121      1.0  0.03702  0.96289  0.68115  1.0000
  H   H122      1.0  0.10683999999999998  0.82794  0.64405  1.0000
  H   H123      1.0  0.23730999999999994  0.83391  0.86605  1.0000
  H   H124      1.0  0.16778999999999994  0.97271  0.89093  1.0000
  H   H125      1.0  0.31798  0.6105500000000003  0.9551700000000001  1.0000
  H   H126      1.0  0.20466999999999994  0.68637  0.8832000000000002  1.0000
  H   H127      1.0  0.37239  0.68726  0.68259  1.0000
  H   H128      1.0  0.4780199999999999  0.61346  0.7638  1.0000
  H   H129      1.0  0.18749  0.11207000000000003  0.8198700000000002  1.0000
  H   H130      1.0  0.30079  0.18674  0.89332  1.0000
  H   H131      1.0  0.13321999999999995  0.18731  0.09317  1.0000
  H   H132      1.0  0.02632  0.115  0.011720000000000003  1.0000
  H   H133      1.0  0.3364  0.47177  0.88481  1.0000
  H   H134      1.0  0.26712  0.3329100000000001  0.91045  1.0000
  H   H135      1.0  0.39399  0.33112  0.13431  1.0000
  H   H136      1.0  0.4634799999999999  0.46632  0.09649000000000003  1.0000
  H   H137      1.0  0.5851899999999998  0.39901  0.9542900000000001  1.0000
  H   H138      1.0  0.70047  0.34353  0.03805  1.0000
  H   H139      1.0  0.7089899999999998  0.5940200000000002  0.14897  1.0000
  H   H140      1.0  0.5932299999999998  0.6386200000000002  0.06083  1.0000
  H   H141      1.0  0.026039999999999994  0.4391100000000001  0.28806  1.0000
  H   H142      1.0  0.9432599999999998  0.38802  0.17507000000000003  1.0000
  H   H143      1.0  0.7319999999999998  0.53865  0.26131  1.0000
  H   H144      1.0  0.82433  0.58285  0.37102  1.0000
  C   C1        1.0  0.03884999999999999  0.03537  0.49539000000000005  1.0000
  C   C2        1.0  0.08747999999999997  0.06113  0.55735  1.0000
  C   C3        1.0  0.17111  0.02917  0.5675900000000003  1.0000
  C   C4        1.0  0.20102  0.9717300000000002  0.5094800000000003  1.0000
  C   C5        1.0  0.14738  0.94944  0.4484300000000001  1.0000
  C   C6        1.0  0.38651999999999986  0.05106  0.7765000000000002  1.0000
  C   C7        1.0  0.32201999999999986  0.08013000000000002  0.72882  1.0000
  C   C8        1.0  0.2861599999999999  0.025780000000000008  0.67135  1.0000
  C   C9        1.0  0.32286999999999993  0.94291  0.6636200000000002  1.0000
  C   C10       1.0  0.38774  0.91883  0.71405  1.0000
  C   C11       1.0  0.5807899999999998  0.06695  0.72121  1.0000
  C   C12       1.0  0.61901  0.14349000000000006  0.70084  1.0000
  C   C13       1.0  0.6769399999999998  0.18306  0.75241  1.0000
  C   C14       1.0  0.69213  0.14053  0.8239  1.0000
  C   C15       1.0  0.65285  0.06317  0.83848  1.0000
  C   C16       1.0  0.8278799999999997  0.36818  0.89547  1.0000
  C   C17       1.0  0.76452  0.32595000000000013  0.8546000000000001  1.0000
  C   C18       1.0  0.77819  0.30255  0.7759  1.0000
  C   C19       1.0  0.8567499999999998  0.32723  0.74276  1.0000
  C   C20       1.0  0.9167999999999997  0.3688  0.78762  1.0000
  C   C21       1.0  0.67655  0.8675200000000002  0.88025  1.0000
  C   C22       1.0  0.7399099999999997  0.8262400000000002  0.9213300000000001  1.0000
  C   C23       1.0  0.72643  0.8031000000000001  3.0000000000000004e-05  1.0000
  C   C24       1.0  0.6476199999999998  0.82717  0.03308  1.0000
  C   C25       1.0  0.58742  0.8679500000000002  0.98776  1.0000
  C   C26       1.0  0.8500899999999998  0.56342  0.9380400000000001  1.0000
  C   C27       1.0  0.81103  0.6410000000000001  0.95248  1.0000
  C   C28       1.0  0.8264199999999998  0.68298  0.024280000000000006  1.0000
  C   C29       1.0  0.8822999999999998  0.6420000000000002  0.0768  1.0000
  C   C30       1.0  0.92027  0.56539  0.05662000000000001  1.0000
  C   C31       1.0  0.11464  0.55962  0.9971400000000001  1.0000
  C   C32       1.0  0.17828999999999995  0.59018  0.04446  1.0000
  C   C33       1.0  0.21636999999999995  0.53591  0.10088  1.0000
  C   C34       1.0  0.18228  0.4519100000000001  0.108  1.0000
  C   C35       1.0  0.11788999999999997  0.4262200000000001  0.05788  1.0000
  C   C36       1.0  0.4608099999999999  0.54048  0.27972  1.0000
  C   C37       1.0  0.4139699999999999  0.56868  0.21636  1.0000
  C   C38       1.0  0.32962999999999987  0.5392300000000002  0.20566  1.0000
  C   C39       1.0  0.29648  0.4833600000000001  0.26332000000000005  1.0000
  C   C40       1.0  0.34833999999999987  0.4590100000000001  0.32534000000000013  1.0000
  C   C41       1.0  0.46075  0.03518  0.9955400000000001  1.0000
  C   C42       1.0  0.4123599999999999  0.06112  0.057340000000000016  1.0000
  C   C43       1.0  0.32873999999999987  0.02914  0.06746000000000003  1.0000
  C   C44       1.0  0.29863  0.9715200000000003  0.0095  1.0000
  C   C45       1.0  0.35234  0.9492700000000002  0.94862  1.0000
  C   C46       1.0  0.11351999999999997  0.05136  0.27615  1.0000
  C   C47       1.0  0.17782999999999993  0.08046000000000003  0.22872  1.0000
  C   C48       1.0  0.21365999999999993  0.02572  0.17132000000000006  1.0000
  C   C49       1.0  0.17663999999999994  0.9430000000000002  0.16359000000000007  1.0000
  C   C50       1.0  0.11199  0.9192200000000003  0.21393  1.0000
  C   C51       1.0  0.91874  0.06747  0.22129000000000004  1.0000
  C   C52       1.0  0.8802999999999997  0.14394  0.20125000000000007  1.0000
  C   C53       1.0  0.82258  0.1835  0.25289  1.0000
  C   C54       1.0  0.80772  0.14066  0.32423  1.0000
  C   C55       1.0  0.84699  0.06326  0.33863  1.0000
  C   C56       1.0  0.67163  0.3682100000000001  0.39567000000000013  1.0000
  C   C57       1.0  0.73482  0.3261100000000001  0.35489  1.0000
  C   C58       1.0  0.72122  0.30295000000000005  0.27629  1.0000
  C   C59       1.0  0.64262  0.32743  0.24314  1.0000
  C   C60       1.0  0.5826  0.36892  0.28805  1.0000
  C   C61       1.0  0.8231899999999998  0.8673900000000002  0.37995  1.0000
  C   C62       1.0  0.7598499999999998  0.8263100000000002  0.42123000000000005  1.0000
  C   C63       1.0  0.7735599999999998  0.8031300000000002  0.4998  1.0000
  C   C64       1.0  0.8523199999999997  0.82745  0.53275  1.0000
  C   C65       1.0  0.9123999999999998  0.86786  0.48755000000000004  1.0000
  C   C66       1.0  0.6497399999999998  0.56322  0.43801  1.0000
  C   C67       1.0  0.6886  0.6408700000000003  0.45273  1.0000
  C   C68       1.0  0.67362  0.68285  0.52426  1.0000
  C   C69       1.0  0.61776  0.64185  0.57687  1.0000
  C   C70       1.0  0.57949  0.56504  0.55674  1.0000
  C   C71       1.0  0.3853399999999999  0.55962  0.49785  1.0000
  C   C72       1.0  0.32178  0.5904500000000003  0.54486  1.0000
  C   C73       1.0  0.28339  0.5361000000000002  0.60113  1.0000
  C   C74       1.0  0.3176299999999999  0.4520900000000001  0.6083900000000002  1.0000
  C   C75       1.0  0.38189  0.4265200000000001  0.55848  1.0000
  C   C76       1.0  0.03875  0.54045  0.7793300000000002  1.0000
  C   C77       1.0  0.08574  0.56885  0.71662  1.0000
  C   C78       1.0  0.17005  0.53945  0.70574  1.0000
  C   C79       1.0  0.20297999999999994  0.4837200000000001  0.7635600000000002  1.0000
  C   C80       1.0  0.15113  0.4589700000000001  0.82502  1.0000
  C   C81       1.0  0.9611599999999998  0.9646600000000002  0.99532  1.0000
  C   C82       1.0  0.91236  0.93874  0.05768  1.0000
  C   C83       1.0  0.82887  0.97094  0.06754  1.0000
  C   C84       1.0  0.79888  0.028510000000000008  0.00959  1.0000
  C   C85       1.0  0.8527499999999998  0.05064000000000001  0.9484400000000001  1.0000
  C   C86       1.0  0.61366  0.94877  0.27622000000000013  1.0000
  C   C87       1.0  0.67786  0.91997  0.22882000000000005  1.0000
  C   C88       1.0  0.71385  0.97427  0.17124  1.0000
  C   C89       1.0  0.6769499999999998  0.05712000000000001  0.16359000000000007  1.0000
  C   C90       1.0  0.6121499999999997  0.08104  0.21394000000000002  1.0000
  C   C91       1.0  0.4189799999999999  0.9324900000000003  0.22133  1.0000
  C   C92       1.0  0.3806199999999999  0.8559700000000001  0.20117  1.0000
  C   C93       1.0  0.3226099999999999  0.81654  0.25275  1.0000
  C   C94       1.0  0.30766  0.8592900000000002  0.32422  1.0000
  C   C95       1.0  0.34697  0.9365800000000002  0.3386  1.0000
  C   C96       1.0  0.17148  0.63195  0.39573  1.0000
  C   C97       1.0  0.23511999999999994  0.67419  0.35497  1.0000
  C   C98       1.0  0.22126999999999994  0.6972300000000002  0.2762  1.0000
  C   C99       1.0  0.14272999999999994  0.6728900000000002  0.2429  1.0000
  C   C100      1.0  0.08248999999999997  0.6313200000000002  0.28793  1.0000
  C   C101      1.0  0.3232699999999999  0.13249000000000005  0.38015  1.0000
  C   C102      1.0  0.25988  0.17395  0.42111  1.0000
  C   C103      1.0  0.2737  0.19716  0.49973000000000006  1.0000
  C   C104      1.0  0.3523599999999999  0.17286  0.5330200000000002  1.0000
  C   C105      1.0  0.4123999999999999  0.13201000000000002  0.48778  1.0000
  C   C106      1.0  0.14976  0.4369  0.4380400000000001  1.0000
  C   C107      1.0  0.18892  0.35904  0.45244  1.0000
  C   C108      1.0  0.17360999999999993  0.3170700000000001  0.52408  1.0000
  C   C109      1.0  0.11797999999999997  0.35779  0.5769300000000003  1.0000
  C   C110      1.0  0.07968999999999997  0.4347400000000001  0.55687  1.0000
  C   C111      1.0  0.8853299999999997  0.44020000000000004  0.49765  1.0000
  C   C112      1.0  0.82156  0.40954  0.54471  1.0000
  C   C113      1.0  0.7832899999999999  0.4638800000000001  0.60096  1.0000
  C   C114      1.0  0.81746  0.54771  0.60796  1.0000
  C   C115      1.0  0.88165  0.5734000000000002  0.5583300000000002  1.0000
  C   C116      1.0  0.53898  0.4596500000000001  0.7791200000000003  1.0000
  C   C117      1.0  0.5855399999999997  0.4312100000000001  0.71648  1.0000
  C   C118      1.0  0.66997  0.46046  0.70566  1.0000
  C   C119      1.0  0.70359  0.5163200000000002  0.76334  1.0000
  C   C120      1.0  0.65169  0.54093  0.8247600000000002  1.0000
  C   C121      1.0  0.5391099999999998  0.96457  0.49548000000000003  1.0000
  C   C122      1.0  0.5875799999999998  0.9386800000000002  0.55729  1.0000
  C   C123      1.0  0.67122  0.9707200000000002  0.56743  1.0000
  C   C124      1.0  0.70113  0.02828  0.50942  1.0000
  C   C125      1.0  0.6474799999999998  0.05053  0.44857  1.0000
  C   C126      1.0  0.8863599999999998  0.9486200000000002  0.77615  1.0000
  C   C127      1.0  0.8222999999999998  0.9196  0.7288600000000002  1.0000
  C   C128      1.0  0.7863299999999998  0.9742200000000002  0.6713400000000002  1.0000
  C   C129      1.0  0.82338  0.05698000000000002  0.66356  1.0000
  C   C130      1.0  0.8879099999999998  0.08075000000000003  0.7138600000000003  1.0000
  C   C131      1.0  0.08106  0.9327400000000002  0.7211400000000002  1.0000
  C   C132      1.0  0.11968999999999998  0.8562500000000002  0.70101  1.0000
  C   C133      1.0  0.17749  0.8167300000000002  0.75269  1.0000
  C   C134      1.0  0.19244999999999995  0.8594600000000001  0.8240600000000002  1.0000
  C   C135      1.0  0.15305  0.93681  0.83851  1.0000
  C   C136      1.0  0.3284999999999999  0.6318000000000003  0.89567  1.0000
  C   C137      1.0  0.26512  0.6737200000000002  0.85486  1.0000
  C   C138      1.0  0.2784699999999999  0.69705  0.77611  1.0000
  C   C139      1.0  0.35713  0.67237  0.74295  1.0000
  C   C140      1.0  0.4169699999999999  0.63126  0.78799  1.0000
  C   C141      1.0  0.17692  0.13263000000000005  0.87962  1.0000
  C   C142      1.0  0.24043  0.17411  0.92106  1.0000
  C   C143      1.0  0.22654  0.19695000000000004  0.9999400000000002  1.0000
  C   C144      1.0  0.14784  0.17276  0.03261  1.0000
  C   C145      1.0  0.08765  0.13212000000000004  0.98752  1.0000
  C   C146      1.0  0.35056  0.4368900000000001  0.9379900000000001  1.0000
  C   C147      1.0  0.31133  0.3591  0.95247  1.0000
  C   C148      1.0  0.32640999999999987  0.3173100000000001  0.02423  1.0000
  C   C149      1.0  0.3824  0.3580000000000001  0.07694000000000001  1.0000
  C   C150      1.0  0.42047  0.43508000000000013  0.05615  1.0000
  C   C151      1.0  0.61498  0.44  0.9974800000000001  1.0000
  C   C152      1.0  0.67858  0.40942  0.04498  1.0000
  C   C153      1.0  0.7164899999999997  0.4638600000000001  0.10129  1.0000
  C   C154      1.0  0.68254  0.54788  0.10848  1.0000
  C   C155      1.0  0.6182899999999998  0.57357  0.05831  1.0000
  C   C156      1.0  0.9609799999999997  0.45974  0.27999  1.0000
  C   C157      1.0  0.9141699999999998  0.4313300000000001  0.21676  1.0000
  C   C158      1.0  0.8299299999999997  0.4605700000000001  0.20591  1.0000
  C   C159      1.0  0.7967999999999997  0.51641  0.26358  1.0000
  C   C160      1.0  0.8484999999999998  0.5409500000000003  0.32553  1.0000
  N   N1        1.0  0.06620999999999998  0.9782600000000002  0.43987  1.0000
  N   N2        1.0  0.21535  0.05631000000000001  0.6325  1.0000
  N   N3        1.0  0.4203699999999999  0.9702000000000002  0.77126  1.0000
  N   N4        1.0  0.59618  0.02464  0.78968  1.0000
  N   N5        1.0  0.7188999999999998  0.2574400000000001  0.7309  1.0000
  N   N6        1.0  0.9052399999999998  0.39012  0.8644000000000002  1.0000
  N   N7        1.0  0.5989899999999998  0.88872  0.9109300000000002  1.0000
  N   N8        1.0  0.7862099999999997  0.75878  0.04497000000000002  1.0000
  N   N9        1.0  0.9062599999999997  0.5244200000000002  0.9870900000000001  1.0000
  N   N10       1.0  0.08373999999999997  0.47751  0.00148  1.0000
  N   N11       1.0  0.28694999999999987  0.5671400000000002  0.13999  1.0000
  N   N12       1.0  0.43044  0.48437  0.33424  1.0000
  N   N13       1.0  0.43348  0.9780200000000002  0.9398500000000001  1.0000
  N   N14       1.0  0.2846  0.05576  0.13259  1.0000
  N   N15       1.0  0.07991999999999998  0.97035  0.27146  1.0000
  N   N16       1.0  0.9039399999999997  0.0248  0.2898800000000001  1.0000
  N   N17       1.0  0.7807299999999998  0.25797  0.23157  1.0000
  N   N18       1.0  0.5943299999999998  0.3901500000000001  0.36471  1.0000
  N   N19       1.0  0.90104  0.8882900000000002  0.4105400000000001  1.0000
  N   N20       1.0  0.7140899999999998  0.75855  0.54488  1.0000
  N   N21       1.0  0.5933699999999997  0.5241800000000002  0.48710000000000003  1.0000
  N   N22       1.0  0.4159799999999999  0.47739  0.50173  1.0000
  N   N23       1.0  0.21263999999999994  0.56696  0.63992  1.0000
  N   N24       1.0  0.06884999999999997  0.48415  0.83406  1.0000
  N   N25       1.0  0.93373  0.021790000000000004  0.9400099999999999  1.0000
  N   N26       1.0  0.7846399999999998  0.9437600000000003  0.13248  1.0000
  N   N27       1.0  0.57944  0.02964  0.27117  1.0000
  N   N28       1.0  0.40361  0.97504  0.28972  1.0000
  N   N29       1.0  0.28073  0.74214  0.23116  1.0000
  N   N30       1.0  0.09433  0.61001  0.36458  1.0000
  N   N31       1.0  0.40087  0.11136  0.41089  1.0000
  N   N32       1.0  0.21402999999999994  0.24141000000000007  0.5448000000000002  1.0000
  N   N33       1.0  0.09348  0.4755300000000001  0.48724  1.0000
  N   N34       1.0  0.9159799999999998  0.52243  0.50178  1.0000
  N   N35       1.0  0.71267  0.4329300000000001  0.63986  1.0000
  N   N36       1.0  0.5695199999999998  0.51585  0.83391  1.0000
  N   N37       1.0  0.56629  0.02173  0.43976  1.0000
  N   N38       1.0  0.71538  0.9441700000000002  0.63255  1.0000
  N   N39       1.0  0.9199899999999998  0.029720000000000003  0.77155  1.0000
  N   N40       1.0  0.09594999999999997  0.9751300000000003  0.78979  1.0000
  N   N41       1.0  0.2193  0.74237  0.73128  1.0000
  N   N42       1.0  0.40598  0.6101900000000002  0.8647300000000002  1.0000
  N   N43       1.0  0.09927999999999997  0.11163  0.91049  1.0000
  N   N44       1.0  0.2861199999999999  0.24149000000000007  0.04513  1.0000
  N   N45       1.0  0.40644999999999987  0.47593  0.9869900000000001  1.0000
  N   N46       1.0  0.58447  0.52232  0.00171  1.0000
  N   N47       1.0  0.78732  0.43282  0.1401  1.0000
  N   N48       1.0  0.93057  0.51585  0.33456  1.0000
