data_image0
_chemical_formula_structural       Cd8H108C140N32O28
_chemical_formula_sum              "Cd8 H108 C140 N32 O28"
_cell_length_a       12.47881
_cell_length_b       15.080190000000002
_cell_length_c       23.89108
_cell_angle_alpha    90.0
_cell_angle_beta     90.0
_cell_angle_gamma    96.26037

_space_group_name_H-M_alt    "P 1"
_space_group_IT_number       1

loop_
  _space_group_symop_operation_xyz
  'x, y, z'

loop_
  _atom_site_type_symbol
  _atom_site_label
  _atom_site_symmetry_multiplicity
  _atom_site_fract_x
  _atom_site_fract_y
  _atom_site_fract_z
  _atom_site_occupancy
  Cd  Cd1       1.0  0.021689999999999977  0.9512899999999997  0.10777  1.0000
  Cd  Cd2       1.0  0.009490000000000004  0.66986  0.10296  1.0000
  Cd  Cd3       1.0  0.51998  0.2183  0.11006  1.0000
  Cd  Cd4       1.0  0.51539  0.50158  0.10525000000000001  1.0000
  Cd  Cd5       1.0  0.9783100000000002  0.04871  0.60777  1.0000
  Cd  Cd6       1.0  0.99052  0.33014  0.60295  1.0000
  Cd  Cd7       1.0  0.48002  0.7817  0.61006  1.0000
  Cd  Cd8       1.0  0.48461  0.49842  0.6052500000000001  1.0000
  H   H1        1.0  0.01632  0.12627  0.4645900000000001  1.0000
  H   H2        1.0  0.30796  0.73766  0.10147  1.0000
  H   H3        1.0  0.85746  0.44527  0.16836  1.0000
  H   H4        1.0  0.77619  0.53047  0.59254  1.0000
  H   H5        1.0  0.10210000000000001  0.65854  0.31043  1.0000
  H   H6        1.0  0.69171  0.99794  0.60729  1.0000
  H   H7        1.0  0.41076  0.141  0.30899  1.0000
  H   H8        1.0  0.03684999999999999  0.2852499999999999  0.06253000000000002  1.0000
  H   H9        1.0  0.88355  0.07735  0.8140400000000001  1.0000
  H   H10       1.0  0.4794800000000001  0.57187  0.46154  1.0000
  H   H11       1.0  0.7695299999999999  0.73042  0.24848  1.0000
  H   H12       1.0  0.8940800000000001  0.57246  0.6874000000000002  1.0000
  H   H13       1.0  0.9824700000000001  0.6348  0.9612000000000002  1.0000
  H   H14       1.0  0.23459  0.4979  0.57996  1.0000
  H   H15       1.0  0.51857  0.16967  0.96841  1.0000
  H   H16       1.0  0.12476  0.60995  0.40699  1.0000
  H   H17       1.0  0.77212  0.44035  0.24427  1.0000
  H   H18       1.0  0.59081  0.61732  0.80168  1.0000
  H   H19       1.0  0.9301  0.59521  0.7744300000000001  1.0000
  H   H20       1.0  0.68478  0.7247  0.17392000000000005  1.0000
  H   H21       1.0  0.8562799999999999  0.8074299999999999  0.32994  1.0000
  H   H22       1.0  0.95995  0.86205  0.28736  1.0000
  H   H23       1.0  0.9518100000000003  0.74403  0.29782  1.0000
  H   H24       1.0  0.85834  0.23426  0.9758600000000001  1.0000
  H   H25       1.0  0.66936  0.71961  0.9764300000000002  1.0000
  H   H26       1.0  0.8395  0.16062  0.195  1.0000
  H   H27       1.0  0.55919  0.13269  0.77695  1.0000
  H   H28       1.0  0.49063  0.88255  0.07540000000000001  1.0000
  H   H29       1.0  0.44462  0.20813  0.23400000000000004  1.0000
  H   H30       1.0  0.43385  0.62118  0.27465000000000006  1.0000
  H   H31       1.0  0.62773  0.65669  0.89908  1.0000
  H   H32       1.0  0.13812  0.53796  0.4818  1.0000
  H   H33       1.0  0.07232  0.16184  0.2781  1.0000
  H   H34       1.0  0.70241  0.009729999999999999  0.20128  1.0000
  H   H35       1.0  0.4136  0.71009  0.19971  1.0000
  H   H36       1.0  0.55969  0.56684  0.7242200000000001  1.0000
  H   H37       1.0  0.11244  0.16832999999999995  0.19182  1.0000
  H   H38       1.0  0.21700000000000005  0.01534  0.5819  1.0000
  H   H39       1.0  0.53862  0.18351  0.87423  1.0000
  H   H40       1.0  0.86407  0.12878  0.91122  1.0000
  H   H41       1.0  0.6950500000000001  0.35356  0.32735000000000003  1.0000
  H   H42       1.0  0.58317  0.30871  0.28620000000000007  1.0000
  H   H43       1.0  0.60388  0.42594  0.30017  1.0000
  H   H44       1.0  0.23037000000000002  0.21568  0.09739000000000002  1.0000
  H   H45       1.0  0.36966  0.10014  0.4060300000000001  1.0000
  H   H46       1.0  0.90743  0.13682  0.72204  1.0000
  H   H47       1.0  0.03054  0.11486  0.37426  1.0000
  H   H48       1.0  0.32179000000000013  0.02866  0.4802900000000001  1.0000
  H   H49       1.0  0.4573  0.57354  0.37163000000000007  1.0000
  H   H50       1.0  0.9674200000000002  0.6371199999999999  0.87174  1.0000
  H   H51       1.0  0.7662800000000001  0.28468  0.07447  1.0000
  H   H52       1.0  0.07729000000000003  0.63785  0.22169  1.0000
  H   H53       1.0  0.77665  0.74493  0.07622  1.0000
  H   H54       1.0  0.58577  0.015089999999999996  0.70713  1.0000
  H   H55       1.0  0.9836900000000001  0.87373  0.96459  1.0000
  H   H56       1.0  0.69205  0.26234  0.6014600000000001  1.0000
  H   H57       1.0  0.14254  0.55473  0.6683600000000001  1.0000
  H   H58       1.0  0.22381000000000006  0.46953  0.09254  1.0000
  H   H59       1.0  0.89791  0.34146  0.81043  1.0000
  H   H60       1.0  0.30829  0.00206  0.10729000000000002  1.0000
  H   H61       1.0  0.58924  0.859  0.80899  1.0000
  H   H62       1.0  0.9631500000000002  0.71475  0.5625300000000001  1.0000
  H   H63       1.0  0.11645  0.92265  0.31404000000000004  1.0000
  H   H64       1.0  0.52052  0.42813  0.9615300000000001  1.0000
  H   H65       1.0  0.23047  0.26958  0.7484700000000001  1.0000
  H   H66       1.0  0.10592000000000003  0.42754  0.18740000000000004  1.0000
  H   H67       1.0  0.01753  0.3652  0.4612  1.0000
  H   H68       1.0  0.7654100000000001  0.5021  0.07996000000000002  1.0000
  H   H69       1.0  0.48143  0.83033  0.4684100000000001  1.0000
  H   H70       1.0  0.8752500000000002  0.39005  0.90698  1.0000
  H   H71       1.0  0.22788  0.55965  0.7442700000000001  1.0000
  H   H72       1.0  0.40919  0.38268  0.30168  1.0000
  H   H73       1.0  0.06989999999999999  0.40478999999999987  0.27443  1.0000
  H   H74       1.0  0.31522000000000006  0.2753  0.6739200000000002  1.0000
  H   H75       1.0  0.14372  0.19257  0.82994  1.0000
  H   H76       1.0  0.04005  0.13795  0.7873600000000001  1.0000
  H   H77       1.0  0.048190000000000004  0.25597  0.7978200000000001  1.0000
  H   H78       1.0  0.14165999999999998  0.7657399999999998  0.47586  1.0000
  H   H79       1.0  0.3306500000000001  0.28039  0.4764300000000001  1.0000
  H   H80       1.0  0.1605  0.83938  0.69499  1.0000
  H   H81       1.0  0.44081  0.86731  0.27695  1.0000
  H   H82       1.0  0.50937  0.11745  0.5754  1.0000
  H   H83       1.0  0.5553900000000002  0.79187  0.734  1.0000
  H   H84       1.0  0.56615  0.37882  0.77465  1.0000
  H   H85       1.0  0.37227000000000005  0.34331  0.39908  1.0000
  H   H86       1.0  0.86188  0.46203999999999995  0.9818  1.0000
  H   H87       1.0  0.9276800000000001  0.83816  0.7781  1.0000
  H   H88       1.0  0.2976  0.99027  0.7012800000000001  1.0000
  H   H89       1.0  0.5864  0.2899099999999999  0.6997100000000003  1.0000
  H   H90       1.0  0.4403200000000001  0.43316  0.22422000000000006  1.0000
  H   H91       1.0  0.8875600000000001  0.83167  0.69182  1.0000
  H   H92       1.0  0.783  0.98466  0.08191  1.0000
  H   H93       1.0  0.46137999999999996  0.81649  0.37423  1.0000
  H   H94       1.0  0.13594  0.8712199999999998  0.41123000000000004  1.0000
  H   H95       1.0  0.30495  0.6464399999999999  0.82735  1.0000
  H   H96       1.0  0.4168300000000001  0.69129  0.7862000000000002  1.0000
  H   H97       1.0  0.39613  0.57406  0.80017  1.0000
  H   H98       1.0  0.76963  0.78432  0.59739  1.0000
  H   H99       1.0  0.63034  0.89986  0.90603  1.0000
  H   H100      1.0  0.09258  0.8631799999999998  0.22204000000000002  1.0000
  H   H101      1.0  0.96946  0.8851499999999998  0.87426  1.0000
  H   H102      1.0  0.6782100000000001  0.97134  0.98029  1.0000
  H   H103      1.0  0.5427  0.42645999999999995  0.87163  1.0000
  H   H104      1.0  0.03258  0.36288  0.3717400000000001  1.0000
  H   H105      1.0  0.23372000000000007  0.71532  0.57447  1.0000
  H   H106      1.0  0.9227100000000003  0.36215  0.72169  1.0000
  H   H107      1.0  0.22335  0.25507  0.57622  1.0000
  H   H108      1.0  0.41424  0.98491  0.20713  1.0000
  C   C1        1.0  0.70574  0.86721  0.19243  1.0000
  C   C2        1.0  0.99251  0.45871  0.08331  1.0000
  C   C3        1.0  0.08240000000000001  0.09558  0.48267000000000004  1.0000
  C   C4        1.0  0.53872  0.7099899999999998  0.09425  1.0000
  C   C5        1.0  0.27431  0.71415  0.14125  1.0000
  C   C6        1.0  0.87843  0.37941  0.15746  1.0000
  C   C7        1.0  0.2663  0.64259  0.28538  1.0000
  C   C8        1.0  0.7478599999999999  0.54498  0.63402  1.0000
  C   C9        1.0  0.17929  0.63844  0.32341  1.0000
  C   C10       1.0  0.72225  0.02923999999999999  0.6457000000000002  1.0000
  C   C11       1.0  0.32781  0.13751999999999998  0.32327  1.0000
  C   C12       1.0  0.9434000000000001  0.21452  0.12831000000000004  1.0000
  C   C13       1.0  0.55555  0.04373  0.12496000000000002  1.0000
  C   C14       1.0  0.83748  0.30307  0.18678  1.0000
  C   C15       1.0  0.98165  0.29052  0.09727000000000001  1.0000
  C   C16       1.0  0.79978  0.6492299999999998  0.89311  1.0000
  C   C17       1.0  0.80992  0.10393  0.8269  1.0000
  C   C18       1.0  0.40123000000000003  0.55561  0.4803500000000001  1.0000
  C   C19       1.0  0.83192  0.7864699999999999  0.24088000000000007  1.0000
  C   C20       1.0  0.80789  0.56558  0.6813500000000002  1.0000
  C   C21       1.0  0.9150300000000002  0.66519  0.97811  1.0000
  C   C22       1.0  0.27166  0.51898  0.5405200000000001  1.0000
  C   C23       1.0  0.6421  0.40015  0.18789  1.0000
  C   C24       1.0  0.5967  0.1977  0.9832500000000001  1.0000
  C   C25       1.0  0.19751  0.10538  0.39759000000000005  1.0000
  C   C26       1.0  0.19226  0.61134  0.37816  1.0000
  C   C27       1.0  0.59167  0.95453  0.13791  1.0000
  C   C28       1.0  0.71286  0.38145  0.23859000000000005  1.0000
  C   C29       1.0  0.67309  0.62029  0.81674  1.0000
  C   C30       1.0  0.9809700000000002  0.12566  0.11609  1.0000
  C   C31       1.0  0.8635400000000001  0.60837  0.80145  1.0000
  C   C32       1.0  0.29266  0.58849  0.39675  1.0000
  C   C33       1.0  0.70064  0.16107999999999997  0.8991900000000002  1.0000
  C   C34       1.0  0.66183  0.79049  0.16447  1.0000
  C   C35       1.0  0.90476  0.80074  0.29215  1.0000
  C   C36       1.0  0.77514  0.22818  0.98904  1.0000
  C   C37       1.0  0.7500800000000001  0.7065299999999999  0.9874700000000001  1.0000
  C   C38       1.0  0.8706700000000003  0.22046  0.1724  1.0000
  C   C39       1.0  0.6252100000000002  0.13098  0.80655  1.0000
  C   C40       1.0  0.9496100000000002  0.37306  0.11237000000000003  1.0000
  C   C41       1.0  0.5843100000000001  0.79591  0.12228000000000003  1.0000
  C   C42       1.0  0.54989  0.87803  0.10833000000000002  1.0000
  C   C43       1.0  0.37125  0.20605  0.20993  1.0000
  C   C44       1.0  0.3668  0.62039  0.30381  1.0000
  C   C45       1.0  0.69423  0.6436799999999999  0.87204  1.0000
  C   C46       1.0  0.22283  0.53815  0.4913  1.0000
  C   C47       1.0  0.13756  0.1475  0.30564  1.0000
  C   C48       1.0  0.66941  0.94942  0.17972  1.0000
  C   C49       1.0  0.32859000000000005  0.70011  0.19  1.0000
  C   C50       1.0  0.63378  0.565  0.7013200000000002  1.0000
  C   C51       1.0  0.72426  0.1048  0.7887300000000003  1.0000
  C   C52       1.0  0.19801  0.18507  0.18644  1.0000
  C   C53       1.0  0.19056  0.04003  0.5422500000000001  1.0000
  C   C54       1.0  0.61357  0.15904  0.8614100000000001  1.0000
  C   C55       1.0  0.79851  0.1321  0.8815900000000001  1.0000
  C   C56       1.0  0.64424  0.36632  0.29138  1.0000
  C   C57       1.0  0.25858  0.20866999999999994  0.13978  1.0000
  C   C58       1.0  0.30432000000000003  0.11301999999999998  0.37818  1.0000
  C   C59       1.0  0.24462000000000006  0.1558  0.28634000000000004  1.0000
  C   C60       1.0  0.83666  0.09961  0.7044  1.0000
  C   C61       1.0  0.7578900000000001  0.60251  0.7804800000000002  1.0000
  C   C62       1.0  0.11395  0.12179  0.3604400000000001  1.0000
  C   C63       1.0  0.24359000000000006  0.04693999999999999  0.492  1.0000
  C   C64       1.0  0.3798900000000001  0.5934  0.35881  1.0000
  C   C65       1.0  0.8847  0.63175  0.8569200000000002  1.0000
  C   C66       1.0  0.72862  0.25368  0.03758  1.0000
  C   C67       1.0  0.15296  0.66398  0.20292  1.0000
  C   C68       1.0  0.80402  0.71849  0.0373  1.0000
  C   C69       1.0  0.6676500000000001  0.03752  0.69499  1.0000
  C   C70       1.0  0.8960100000000001  0.76153  0.18892  1.0000
  C   C71       1.0  0.29426  0.13279  0.69242  1.0000
  C   C72       1.0  0.007490000000000003  0.54129  0.58331  1.0000
  C   C73       1.0  0.9176  0.90442  0.9826700000000002  1.0000
  C   C74       1.0  0.46128000000000013  0.2900099999999999  0.59425  1.0000
  C   C75       1.0  0.72569  0.28585  0.64125  1.0000
  C   C76       1.0  0.12158000000000001  0.62059  0.65746  1.0000
  C   C77       1.0  0.7337  0.35741  0.7853800000000002  1.0000
  C   C78       1.0  0.25214  0.45502  0.13403  1.0000
  C   C79       1.0  0.82072  0.36156  0.8234100000000001  1.0000
  C   C80       1.0  0.27775000000000005  0.97076  0.1457  1.0000
  C   C81       1.0  0.67219  0.86248  0.82327  1.0000
  C   C82       1.0  0.056600000000000004  0.78548  0.62831  1.0000
  C   C83       1.0  0.44446  0.9562699999999997  0.62496  1.0000
  C   C84       1.0  0.16253  0.69693  0.68678  1.0000
  C   C85       1.0  0.01835000000000002  0.70948  0.59727  1.0000
  C   C86       1.0  0.20023  0.35077  0.3931100000000001  1.0000
  C   C87       1.0  0.19008000000000003  0.89607  0.32691  1.0000
  C   C88       1.0  0.5987699999999999  0.4443899999999999  0.98035  1.0000
  C   C89       1.0  0.16808  0.21353  0.74088  1.0000
  C   C90       1.0  0.19211  0.43442  0.18135  1.0000
  C   C91       1.0  0.08497000000000003  0.33480999999999994  0.47811000000000003  1.0000
  C   C92       1.0  0.7283400000000002  0.48102  0.04052  1.0000
  C   C93       1.0  0.3579  0.59985  0.68789  1.0000
  C   C94       1.0  0.40331  0.8023  0.48325  1.0000
  C   C95       1.0  0.8024900000000003  0.89462  0.89759  1.0000
  C   C96       1.0  0.80775  0.38865999999999995  0.87816  1.0000
  C   C97       1.0  0.40834  0.04546999999999998  0.6379100000000001  1.0000
  C   C98       1.0  0.28715  0.61855  0.7385900000000001  1.0000
  C   C99       1.0  0.32691  0.37970999999999994  0.31674  1.0000
  C   C100      1.0  0.019030000000000002  0.87434  0.61609  1.0000
  C   C101      1.0  0.13646  0.39163  0.30145000000000005  1.0000
  C   C102      1.0  0.70734  0.41151  0.89675  1.0000
  C   C103      1.0  0.29936  0.8389199999999998  0.39919  1.0000
  C   C104      1.0  0.33817  0.20951  0.66447  1.0000
  C   C105      1.0  0.09524  0.19926  0.7921500000000002  1.0000
  C   C106      1.0  0.22487000000000001  0.77182  0.4890500000000001  1.0000
  C   C107      1.0  0.24992  0.29347  0.48747  1.0000
  C   C108      1.0  0.12934  0.7795399999999999  0.6724000000000001  1.0000
  C   C109      1.0  0.3748  0.86902  0.30655  1.0000
  C   C110      1.0  0.05039999999999999  0.62694  0.61237  1.0000
  C   C111      1.0  0.41569  0.20409  0.6222800000000002  1.0000
  C   C112      1.0  0.45011000000000007  0.12197  0.60832  1.0000
  C   C113      1.0  0.62876  0.79395  0.7099300000000001  1.0000
  C   C114      1.0  0.63321  0.37961  0.80381  1.0000
  C   C115      1.0  0.30577000000000004  0.35632  0.3720400000000001  1.0000
  C   C116      1.0  0.7771700000000001  0.46185  0.9913000000000001  1.0000
  C   C117      1.0  0.86244  0.8525  0.8056400000000001  1.0000
  C   C118      1.0  0.33059  0.050579999999999986  0.67972  1.0000
  C   C119      1.0  0.67141  0.29989  0.6900000000000001  1.0000
  C   C120      1.0  0.36622000000000005  0.435  0.20132  1.0000
  C   C121      1.0  0.27574  0.8952  0.28873  1.0000
  C   C122      1.0  0.8019899999999999  0.8149299999999998  0.68644  1.0000
  C   C123      1.0  0.80944  0.95997  0.04225000000000001  1.0000
  C   C124      1.0  0.38644  0.84096  0.36141  1.0000
  C   C125      1.0  0.2015  0.8679  0.38159  1.0000
  C   C126      1.0  0.35576  0.63368  0.79138  1.0000
  C   C127      1.0  0.74142  0.79133  0.63978  1.0000
  C   C128      1.0  0.69568  0.88698  0.87818  1.0000
  C   C129      1.0  0.75538  0.8441999999999997  0.78634  1.0000
  C   C130      1.0  0.16333999999999996  0.9003899999999998  0.20441000000000004  1.0000
  C   C131      1.0  0.24211  0.3974899999999999  0.28048  1.0000
  C   C132      1.0  0.8860500000000002  0.87821  0.8604400000000002  1.0000
  C   C133      1.0  0.75642  0.95306  0.9920000000000001  1.0000
  C   C134      1.0  0.62011  0.4066  0.85881  1.0000
  C   C135      1.0  0.1153  0.36825  0.35692000000000007  1.0000
  C   C136      1.0  0.27139  0.74632  0.53757  1.0000
  C   C137      1.0  0.8470400000000002  0.3360199999999999  0.70292  1.0000
  C   C138      1.0  0.19599  0.28151  0.5373  1.0000
  C   C139      1.0  0.33235  0.96248  0.19499  1.0000
  C   C140      1.0  0.10399  0.23847  0.68892  1.0000
  N   N1        1.0  0.90647  0.69311  0.03128  1.0000
  N   N2        1.0  0.36605  0.22163  0.15456  1.0000
  N   N3        1.0  0.8272700000000001  0.06851  0.6518900000000001  1.0000
  N   N4        1.0  0.38231  0.53041  0.53361  1.0000
  N   N5        1.0  0.63975  0.54524  0.64665  1.0000
  N   N6        1.0  0.09067000000000001  0.0706  0.53618  1.0000
  N   N7        1.0  0.61811  0.23498999999999998  0.03352000000000001  1.0000
  N   N8        1.0  0.16511  0.69204  0.14981  1.0000
  N   N9        1.0  0.74117  0.08172999999999998  0.7321800000000002  1.0000
  N   N10       1.0  0.1745  0.0822  0.45398000000000005  1.0000
  N   N11       1.0  0.8209400000000002  0.67289  0.94964  1.0000
  N   N12       1.0  0.26992  0.18265  0.23096  1.0000
  N   N13       1.0  0.6907800000000001  0.19296  0.9543600000000002  1.0000
  N   N14       1.0  0.25074  0.6681399999999998  0.22919  1.0000
  N   N15       1.0  0.7349  0.5786  0.7242000000000001  1.0000
  N   N16       1.0  0.3055  0.56161  0.45287000000000005  1.0000
  N   N17       1.0  0.09354000000000001  0.30689  0.53128  1.0000
  N   N18       1.0  0.6339500000000001  0.77837  0.65456  1.0000
  N   N19       1.0  0.17273  0.93149  0.15189  1.0000
  N   N20       1.0  0.6177  0.4695899999999999  0.03361  1.0000
  N   N21       1.0  0.36025  0.45476  0.14665  1.0000
  N   N22       1.0  0.9093300000000002  0.9294  0.03618  1.0000
  N   N23       1.0  0.3819000000000001  0.76501  0.53352  1.0000
  N   N24       1.0  0.83489  0.3079599999999999  0.6498100000000001  1.0000
  N   N25       1.0  0.25884  0.91827  0.23218  1.0000
  N   N26       1.0  0.8255100000000001  0.9178  0.95398  1.0000
  N   N27       1.0  0.17907  0.32711  0.44964  1.0000
  N   N28       1.0  0.73009  0.81735  0.73096  1.0000
  N   N29       1.0  0.30922  0.80704  0.4543600000000001  1.0000
  N   N30       1.0  0.74926  0.33186  0.72919  1.0000
  N   N31       1.0  0.26510000000000006  0.4214  0.22420000000000004  1.0000
  N   N32       1.0  0.6945000000000002  0.43839  0.95287  1.0000
  O   O1        1.0  0.90518  0.67874  0.18356000000000003  1.0000
  O   O2        1.0  0.61365  0.47855  0.18607  1.0000
  O   O3        1.0  0.94665  0.0617  0.14997  1.0000
  O   O4        1.0  0.9943400000000002  0.52639  0.11687  1.0000
  O   O5        1.0  0.58772  0.10794  0.15871  1.0000
  O   O6        1.0  0.49621  0.05346  0.08274  1.0000
  O   O7        1.0  0.7836000000000001  0.8677199999999998  0.23335000000000006  1.0000
  O   O8        1.0  0.48627  0.70997  0.04982  1.0000
  O   O9        1.0  0.021730000000000006  0.45959  0.03327  1.0000
  O   O10       1.0  0.04487  0.11583  0.07595  1.0000
  O   O11       1.0  0.76659  0.30294  0.23089000000000007  1.0000
  O   O12       1.0  0.56079  0.6409199999999998  0.12266  1.0000
  O   O13       1.0  0.61711  0.33931  0.15234  1.0000
  O   O14       1.0  0.93694  0.82125  0.15544000000000002  1.0000
  O   O15       1.0  0.09483000000000003  0.32126  0.6835600000000001  1.0000
  O   O16       1.0  0.38635  0.52145  0.6860700000000001  1.0000
  O   O17       1.0  0.05335000000000003  0.9383  0.64997  1.0000
  O   O18       1.0  0.005669999999999986  0.47360999999999986  0.61687  1.0000
  O   O19       1.0  0.41229  0.89206  0.65871  1.0000
  O   O20       1.0  0.50379  0.94654  0.58274  1.0000
  O   O21       1.0  0.2164  0.13228  0.73335  1.0000
  O   O22       1.0  0.51374  0.29003  0.54982  1.0000
  O   O23       1.0  0.97827  0.54041  0.53327  1.0000
  O   O24       1.0  0.9551299999999999  0.8841699999999998  0.57595  1.0000
  O   O25       1.0  0.23341  0.69706  0.73089  1.0000
  O   O26       1.0  0.43921  0.35908  0.62266  1.0000
  O   O27       1.0  0.38289  0.66069  0.65233  1.0000
  O   O28       1.0  0.06306  0.17875  0.6554400000000001  1.0000
