data_image0
_chemical_formula_structural       Cu28H108C168I16N16O48
_chemical_formula_sum              "Cu28 H108 C168 I16 N16 O48"
_cell_length_a       20.15382
_cell_length_b       27.67935
_cell_length_c       27.680120000000002
_cell_angle_alpha    120.15509999999999
_cell_angle_beta     89.99677999999999
_cell_angle_gamma    90.00322

_space_group_name_H-M_alt    "P 1"
_space_group_IT_number       1

loop_
  _space_group_symop_operation_xyz
  'x, y, z'

loop_
  _atom_site_type_symbol
  _atom_site_label
  _atom_site_symmetry_multiplicity
  _atom_site_fract_x
  _atom_site_fract_y
  _atom_site_fract_z
  _atom_site_occupancy
  Cu  Cu1       1.0  0.52314  0.7118399999999998  0.31933  1.0000
  Cu  Cu2       1.0  0.52336  0.60751  0.28812999999999994  1.0000
  Cu  Cu3       1.0  0.52314  0.68061  0.39252  1.0000
  Cu  Cu4       1.0  0.02398  0.2881799999999998  0.6804399999999998  1.0000
  Cu  Cu5       1.0  0.024370000000000003  0.3922599999999999  0.71173  1.0000
  Cu  Cu6       1.0  0.023820000000000004  0.3194899999999999  0.6076299999999999  1.0000
  Cu  Cu7       1.0  0.4768200000000001  0.28817999999999994  0.6806899999999999  1.0000
  Cu  Cu8       1.0  0.47669  0.39247999999999994  0.7118399999999999  1.0000
  Cu  Cu9       1.0  0.47687000000000007  0.31934999999999986  0.6074499999999999  1.0000
  Cu  Cu10      1.0  0.97597  0.71178  0.31952  1.0000
  Cu  Cu11      1.0  0.97568  0.60773  0.2882799999999999  1.0000
  Cu  Cu12      1.0  0.97625  0.68051  0.39241  1.0000
  Cu  Cu13      1.0  0.41771  0.6667399999999998  0.3334  1.0000
  Cu  Cu14      1.0  0.91787  0.3332799999999999  0.6666599999999999  1.0000
  Cu  Cu15      1.0  0.58228  0.3332499999999999  0.66663  1.0000
  Cu  Cu16      1.0  0.08213  0.6667299999999999  0.33331999999999995  1.0000
  Cu  Cu17      1.0  0.75051  0.76025  0.09954  1.0000
  Cu  Cu18      1.0  0.7496  0.67314  0.10219  1.0000
  Cu  Cu19      1.0  0.75047  0.33899  0.23976  1.0000
  Cu  Cu20      1.0  0.74956  0.42918999999999996  0.32706  1.0000
  Cu  Cu21      1.0  0.75052  0.9006399999999998  0.66098  1.0000
  Cu  Cu22      1.0  0.74959  0.89733  0.57081  1.0000
  Cu  Cu23      1.0  0.24949  0.23973999999999998  0.9004499999999999  1.0000
  Cu  Cu24      1.0  0.25041  0.3268599999999999  0.8978  1.0000
  Cu  Cu25      1.0  0.24954000000000004  0.66101  0.76024  1.0000
  Cu  Cu26      1.0  0.25044  0.5708099999999999  0.6729299999999999  1.0000
  Cu  Cu27      1.0  0.24948  0.09934999999999992  0.33900999999999987  1.0000
  Cu  Cu28      1.0  0.25041  0.10266999999999998  0.42919  1.0000
  H   H1        1.0  0.62312  0.7076399999999999  0.23779999999999996  1.0000
  H   H2        1.0  0.58264  0.8482499999999997  0.21574  1.0000
  H   H3        1.0  0.47341000000000005  0.81675  0.33191  1.0000
  H   H4        1.0  0.47274  0.8828599999999998  0.21356  1.0000
  H   H5        1.0  0.39451  0.9628699999999998  0.24469999999999995  1.0000
  H   H6        1.0  0.39787  0.98882  0.41111  1.0000
  H   H7        1.0  0.47742  0.9103299999999998  0.38120999999999994  1.0000
  H   H8        1.0  0.30881  0.5820199999999998  0.30972  1.0000
  H   H9        1.0  0.30891  0.59555  0.25358  1.0000
  H   H10       1.0  0.62337  0.53008  0.29258  1.0000
  H   H11       1.0  0.58297  0.3669899999999999  0.15163  1.0000
  H   H12       1.0  0.47402  0.5149799999999999  0.18334999999999996  1.0000
  H   H13       1.0  0.47267000000000003  0.33015  0.11665999999999997  1.0000
  H   H14       1.0  0.39424  0.28154  0.03668999999999999  1.0000
  H   H15       1.0  0.39837  0.42243999999999987  0.011679999999999996  1.0000
  H   H16       1.0  0.47817  0.4707499999999999  0.09005  1.0000
  H   H17       1.0  0.30881  0.7280099999999998  0.418  1.0000
  H   H18       1.0  0.30892  0.6582499999999998  0.40437  1.0000
  H   H19       1.0  0.62281  0.7622699999999998  0.47024  1.0000
  H   H20       1.0  0.58263  0.7844399999999998  0.63306  1.0000
  H   H21       1.0  0.47331000000000006  0.6680799999999997  0.48498999999999987  1.0000
  H   H22       1.0  0.47248  0.7865799999999997  0.6699099999999999  1.0000
  H   H23       1.0  0.3942300000000001  0.7553599999999998  0.71855  1.0000
  H   H24       1.0  0.39801000000000003  0.58889  0.57737  1.0000
  H   H25       1.0  0.47761000000000003  0.61885  0.52901  1.0000
  H   H26       1.0  0.30883  0.6900399999999998  0.2721799999999999  1.0000
  H   H27       1.0  0.30893  0.7463299999999998  0.34203  1.0000
  H   H28       1.0  0.12321000000000001  0.29255  0.76239  1.0000
  H   H29       1.0  0.08225  0.15194000000000005  0.78427  1.0000
  H   H30       1.0  0.97373  0.18339  0.66778  1.0000
  H   H31       1.0  0.97279  0.11706999999999983  0.7860199999999998  1.0000
  H   H32       1.0  0.89468  0.03697999999999998  0.75472  1.0000
  H   H33       1.0  0.8977900000000001  0.011379999999999939  0.58844  1.0000
  H   H34       1.0  0.97742  0.08989999999999992  0.6184499999999999  1.0000
  H   H35       1.0  0.80885  0.41799  0.69027  1.0000
  H   H36       1.0  0.80896  0.4044699999999999  0.7464299999999999  1.0000
  H   H37       1.0  0.12366000000000002  0.47  0.70732  1.0000
  H   H38       1.0  0.08259  0.6329399999999997  0.8482099999999998  1.0000
  H   H39       1.0  0.97451  0.4845899999999999  0.81654  1.0000
  H   H40       1.0  0.97279  0.6695199999999998  0.88335  1.0000
  H   H41       1.0  0.8944500000000001  0.7180599999999999  0.9633899999999997  1.0000
  H   H42       1.0  0.8982700000000001  0.57698  0.9881  1.0000
  H   H43       1.0  0.9781600000000001  0.52874  0.9097399999999999  1.0000
  H   H44       1.0  0.80884  0.27197  0.58198  1.0000
  H   H45       1.0  0.80897  0.34176999999999996  0.59562  1.0000
  H   H46       1.0  0.12300000000000003  0.23753999999999995  0.52969  1.0000
  H   H47       1.0  0.0822  0.21554999999999996  0.36705999999999994  1.0000
  H   H48       1.0  0.9736800000000001  0.33222  0.51549  1.0000
  H   H49       1.0  0.97255  0.21379999999999988  0.33046  1.0000
  H   H50       1.0  0.8944400000000001  0.24513999999999994  0.28185  1.0000
  H   H51       1.0  0.89791  0.4115099999999999  0.42321  1.0000
  H   H52       1.0  0.9775500000000001  0.38147999999999993  0.4715399999999999  1.0000
  H   H53       1.0  0.80887  0.30995  0.72782  1.0000
  H   H54       1.0  0.80895  0.25366  0.65795  1.0000
  H   H55       1.0  0.37693000000000004  0.29235  0.7622  1.0000
  H   H56       1.0  0.41734000000000004  0.15174000000000004  0.78425  1.0000
  H   H57       1.0  0.52661  0.18321999999999994  0.6680899999999999  1.0000
  H   H58       1.0  0.52727  0.11711999999999993  0.78644  1.0000
  H   H59       1.0  0.60551  0.03710999999999996  0.7552999999999999  1.0000
  H   H60       1.0  0.60212  0.011160000000000003  0.58889  1.0000
  H   H61       1.0  0.52255  0.08964  0.61879  1.0000
  H   H62       1.0  0.69118  0.4179799999999999  0.69027  1.0000
  H   H63       1.0  0.69108  0.4044599999999998  0.7464299999999999  1.0000
  H   H64       1.0  0.3766  0.46991  0.70743  1.0000
  H   H65       1.0  0.41705000000000003  0.6330099999999997  0.8483599999999998  1.0000
  H   H66       1.0  0.52594  0.4849999999999999  0.81667  1.0000
  H   H67       1.0  0.52734  0.6698299999999998  0.88332  1.0000
  H   H68       1.0  0.60577  0.7184399999999996  0.9632999999999998  1.0000
  H   H69       1.0  0.60163  0.5775499999999999  0.9883199999999999  1.0000
  H   H70       1.0  0.52182  0.52924  0.90994  1.0000
  H   H71       1.0  0.6911700000000001  0.27198999999999995  0.5819899999999999  1.0000
  H   H72       1.0  0.6910700000000001  0.34176999999999996  0.59564  1.0000
  H   H73       1.0  0.37719  0.23768999999999996  0.52975  1.0000
  H   H74       1.0  0.41739000000000004  0.21556999999999996  0.36694  1.0000
  H   H75       1.0  0.52668  0.3319099999999999  0.51503  1.0000
  H   H76       1.0  0.5275200000000001  0.21341999999999997  0.33009999999999995  1.0000
  H   H77       1.0  0.60577  0.2446299999999999  0.2814499999999999  1.0000
  H   H78       1.0  0.60199  0.41110999999999975  0.4226199999999999  1.0000
  H   H79       1.0  0.52239  0.3811499999999999  0.47099  1.0000
  H   H80       1.0  0.69118  0.3099599999999999  0.72782  1.0000
  H   H81       1.0  0.6910700000000001  0.25367999999999996  0.65797  1.0000
  H   H82       1.0  0.8768  0.70746  0.23760999999999993  1.0000
  H   H83       1.0  0.91774  0.84805  0.21571999999999997  1.0000
  H   H84       1.0  0.02626  0.8166299999999997  0.33222999999999997  1.0000
  H   H85       1.0  0.027210000000000005  0.8829299999999998  0.21397  1.0000
  H   H86       1.0  0.10534  0.9630199999999998  0.24526999999999993  1.0000
  H   H87       1.0  0.10221  0.9886199999999998  0.4115499999999999  1.0000
  H   H88       1.0  0.02257  0.9101099999999999  0.38154999999999994  1.0000
  H   H89       1.0  0.19114  0.58201  0.30974  1.0000
  H   H90       1.0  0.19103  0.5955299999999999  0.25357  1.0000
  H   H91       1.0  0.87635  0.5300099999999999  0.29267999999999994  1.0000
  H   H92       1.0  0.91742  0.3670599999999999  0.1518  1.0000
  H   H93       1.0  0.025480000000000003  0.5154199999999999  0.18344999999999997  1.0000
  H   H94       1.0  0.02722  0.33048  0.11665  1.0000
  H   H95       1.0  0.10556  0.28193  0.03662  1.0000
  H   H96       1.0  0.10173  0.4229999999999999  0.011889999999999996  1.0000
  H   H97       1.0  0.02183  0.47124999999999995  0.09025  1.0000
  H   H98       1.0  0.19114  0.7280199999999998  0.41802  1.0000
  H   H99       1.0  0.19103  0.65822  0.40437  1.0000
  H   H100      1.0  0.877  0.76249  0.47032  1.0000
  H   H101      1.0  0.91781  0.7844399999999998  0.63293  1.0000
  H   H102      1.0  0.02632  0.66778  0.48448  1.0000
  H   H103      1.0  0.02746  0.7861999999999998  0.6695299999999998  1.0000
  H   H104      1.0  0.10556  0.7548599999999998  0.71814  1.0000
  H   H105      1.0  0.10208  0.5884899999999996  0.5767899999999999  1.0000
  H   H106      1.0  0.02244  0.6185199999999997  0.52846  1.0000
  H   H107      1.0  0.19114  0.69005  0.2721799999999999  1.0000
  H   H108      1.0  0.19105  0.7463399999999998  0.34205  1.0000
  C   C1        1.0  0.59521  0.74523  0.24804999999999994  1.0000
  C   C2        1.0  0.60807  0.77558  0.22109  1.0000
  C   C3        1.0  0.57167  0.8240699999999996  0.23594999999999997  1.0000
  C   C4        1.0  0.52222  0.8406599999999999  0.27691999999999994  1.0000
  C   C5        1.0  0.51226  0.8071  0.30100999999999994  1.0000
  C   C6        1.0  0.6603600000000001  0.7548599999999998  0.17674999999999993  1.0000
  C   C7        1.0  0.47981  0.89034  0.29496999999999995  1.0000
  C   C8        1.0  0.4572300000000001  0.9064999999999998  0.25705  1.0000
  C   C9        1.0  0.41307  0.95099  0.27414999999999995  1.0000
  C   C10       1.0  0.39064  0.9801399999999998  0.32964  1.0000
  C   C11       1.0  0.41470000000000007  0.9653299999999998  0.3680399999999999  1.0000
  C   C12       1.0  0.45881000000000005  0.9211499999999996  0.35097  1.0000
  C   C13       1.0  0.33994  0.02542000000000001  0.34873  1.0000
  C   C14       1.0  0.28847  0.60928  0.29522  1.0000
  C   C15       1.0  0.59549  0.5027  0.25493  1.0000
  C   C16       1.0  0.60829  0.44526  0.22445  1.0000
  C   C17       1.0  0.572  0.41148  0.17587  1.0000
  C   C18       1.0  0.5226500000000001  0.4358999999999999  0.15932  1.0000
  C   C19       1.0  0.51275  0.49369  0.19299  1.0000
  C   C20       1.0  0.66045  0.4216499999999999  0.24517  1.0000
  C   C21       1.0  0.48021  0.40427999999999986  0.10961  1.0000
  C   C22       1.0  0.45733000000000007  0.35014  0.09322  1.0000
  C   C23       1.0  0.41305000000000003  0.3229099999999999  0.048769999999999994  1.0000
  C   C24       1.0  0.39077000000000006  0.34945  0.019909999999999997  1.0000
  C   C25       1.0  0.41511000000000003  0.4026999999999999  0.03493  1.0000
  C   C26       1.0  0.45936  0.4296399999999998  0.07906  1.0000
  C   C27       1.0  0.33995  0.32340999999999975  0.97473  1.0000
  C   C28       1.0  0.28846  0.6861399999999999  0.3907  1.0000
  C   C29       1.0  0.59494  0.7519799999999998  0.4975099999999999  1.0000
  C   C30       1.0  0.60794  0.77892  0.55491  1.0000
  C   C31       1.0  0.57161  0.76418  0.58859  1.0000
  C   C32       1.0  0.52215  0.7231999999999998  0.56408  1.0000
  C   C33       1.0  0.51211  0.69905  0.50632  1.0000
  C   C34       1.0  0.6603600000000001  0.8231499999999998  0.5784299999999999  1.0000
  C   C35       1.0  0.47978  0.7051399999999998  0.59564  1.0000
  C   C36       1.0  0.45708  0.7430599999999999  0.6498699999999998  1.0000
  C   C37       1.0  0.41290000000000004  0.7258999999999998  0.6771199999999998  1.0000
  C   C38       1.0  0.39061  0.67037  0.6505  1.0000
  C   C39       1.0  0.41478  0.6319699999999997  0.5971599999999999  1.0000
  C   C40       1.0  0.45890000000000003  0.6490899999999997  0.5701899999999999  1.0000
  C   C41       1.0  0.33993  0.6511999999999998  0.6765099999999997  1.0000
  C   C42       1.0  0.28848  0.70466  0.31403  1.0000
  C   C43       1.0  0.09525000000000002  0.2549599999999999  0.7520299999999998  1.0000
  C   C44       1.0  0.10790000000000001  0.22455999999999993  0.77895  1.0000
  C   C45       1.0  0.0714  0.17609999999999995  0.76403  1.0000
  C   C46       1.0  0.02215  0.1594899999999999  0.7228999999999998  1.0000
  C   C47       1.0  0.012380000000000002  0.19308  0.69884  1.0000
  C   C48       1.0  0.16028  0.24496999999999985  0.8231899999999998  1.0000
  C   C49       1.0  0.9798200000000001  0.10972999999999986  0.7046599999999997  1.0000
  C   C50       1.0  0.95728  0.09347999999999997  0.74253  1.0000
  C   C51       1.0  0.91318  0.04896000000000002  0.72533  1.0000
  C   C52       1.0  0.89071  0.019879999999999943  0.6698499999999998  1.0000
  C   C53       1.0  0.9146600000000001  0.03479999999999995  0.6314999999999998  1.0000
  C   C54       1.0  0.9588000000000002  0.07900000000000006  0.64865  1.0000
  C   C55       1.0  0.83999  0.97464  0.65105  1.0000
  C   C56       1.0  0.78854  0.39072999999999997  0.7047799999999999  1.0000
  C   C57       1.0  0.09569  0.49725999999999987  0.74495  1.0000
  C   C58       1.0  0.10819  0.55473  0.77538  1.0000
  C   C59       1.0  0.07182  0.58842  0.8239699999999999  1.0000
  C   C60       1.0  0.02271  0.5638299999999998  0.8405599999999998  1.0000
  C   C61       1.0  0.013060000000000002  0.50601  0.80689  1.0000
  C   C62       1.0  0.16034  0.5784699999999998  0.7548099999999999  1.0000
  C   C63       1.0  0.98027  0.5953199999999998  0.8903  1.0000
  C   C64       1.0  0.9574200000000002  0.6494699999999998  0.9067399999999999  1.0000
  C   C65       1.0  0.91318  0.67666  0.95121  1.0000
  C   C66       1.0  0.8908300000000001  0.6500699999999998  0.98002  1.0000
  C   C67       1.0  0.91504  0.59677  0.9648899999999999  1.0000
  C   C68       1.0  0.95935  0.56986  0.92077  1.0000
  C   C69       1.0  0.84001  0.6763899999999998  0.02519  1.0000
  C   C70       1.0  0.78854  0.3138599999999998  0.6092899999999999  1.0000
  C   C71       1.0  0.09503000000000002  0.24793999999999994  0.50254  1.0000
  C   C72       1.0  0.10777  0.2210199999999999  0.44512999999999997  1.0000
  C   C73       1.0  0.07134  0.2358399999999999  0.4115599999999999  1.0000
  C   C74       1.0  0.02209  0.27698  0.43623  1.0000
  C   C75       1.0  0.01228  0.30111  0.49400999999999995  1.0000
  C   C76       1.0  0.16027  0.17690999999999993  0.4214599999999999  1.0000
  C   C77       1.0  0.97977  0.29521  0.4047899999999999  1.0000
  C   C78       1.0  0.9571300000000001  0.25731999999999994  0.35053999999999996  1.0000
  C   C79       1.0  0.91303  0.27454  0.32333  1.0000
  C   C80       1.0  0.8906700000000001  0.33006  0.34999  1.0000
  C   C81       1.0  0.91471  0.36842  0.40339  1.0000
  C   C82       1.0  0.95886  0.35126  0.43033  1.0000
  C   C83       1.0  0.8399400000000001  0.3488999999999999  0.32371  1.0000
  C   C84       1.0  0.78855  0.2953399999999999  0.6859699999999997  1.0000
  C   C85       1.0  0.4048300000000001  0.25476  0.75195  1.0000
  C   C86       1.0  0.39194000000000007  0.22440999999999983  0.7788999999999998  1.0000
  C   C87       1.0  0.42832  0.17591  0.76405  1.0000
  C   C88       1.0  0.47778  0.15932000000000004  0.72308  1.0000
  C   C89       1.0  0.48777000000000004  0.19288000000000002  0.69899  1.0000
  C   C90       1.0  0.33964  0.24513999999999994  0.82324  1.0000
  C   C91       1.0  0.52018  0.10962999999999982  0.7050399999999998  1.0000
  C   C92       1.0  0.54278  0.09347000000000001  0.74296  1.0000
  C   C93       1.0  0.5869500000000001  0.048989999999999964  0.7258499999999999  1.0000
  C   C94       1.0  0.60936  0.01983999999999994  0.6703599999999998  1.0000
  C   C95       1.0  0.5853  0.03465000000000003  0.63196  1.0000
  C   C96       1.0  0.54118  0.07881999999999999  0.64903  1.0000
  C   C97       1.0  0.66007  0.9745699999999999  0.6512699999999999  1.0000
  C   C98       1.0  0.71152  0.39072  0.7047799999999999  1.0000
  C   C99       1.0  0.40447  0.4972799999999999  0.74508  1.0000
  C   C100      1.0  0.39170000000000005  0.55473  0.77555  1.0000
  C   C101      1.0  0.42801  0.5885099999999998  0.8241199999999999  1.0000
  C   C102      1.0  0.47734  0.56409  0.84067  1.0000
  C   C103      1.0  0.48721  0.5062899999999998  0.80702  1.0000
  C   C104      1.0  0.33955  0.5783399999999997  0.7548299999999999  1.0000
  C   C105      1.0  0.51979  0.5957099999999997  0.8903799999999997  1.0000
  C   C106      1.0  0.54268  0.6498499999999998  0.9067699999999997  1.0000
  C   C107      1.0  0.58696  0.67707  0.9512199999999998  1.0000
  C   C108      1.0  0.60923  0.6505299999999996  0.9800799999999997  1.0000
  C   C109      1.0  0.58489  0.5972799999999999  0.9650599999999999  1.0000
  C   C110      1.0  0.54064  0.5703399999999998  0.92094  1.0000
  C   C111      1.0  0.66005  0.67658  0.025259999999999998  1.0000
  C   C112      1.0  0.71152  0.31385999999999986  0.6093  1.0000
  C   C113      1.0  0.40506  0.24798999999999993  0.50248  1.0000
  C   C114      1.0  0.3920600000000001  0.22105999999999998  0.44508999999999993  1.0000
  C   C115      1.0  0.4284  0.23580999999999994  0.41140999999999994  1.0000
  C   C116      1.0  0.47787  0.27678999999999987  0.4359299999999999  1.0000
  C   C117      1.0  0.48790000000000006  0.3009399999999999  0.49368999999999996  1.0000
  C   C118      1.0  0.33964  0.17684  0.42156  1.0000
  C   C119      1.0  0.52023  0.29486  0.40436  1.0000
  C   C120      1.0  0.54293  0.2569299999999999  0.35014  1.0000
  C   C121      1.0  0.5871  0.2740899999999999  0.32289  1.0000
  C   C122      1.0  0.6094  0.32961999999999986  0.3494999999999999  1.0000
  C   C123      1.0  0.58522  0.36802  0.40284  1.0000
  C   C124      1.0  0.5411  0.3508999999999999  0.42982  1.0000
  C   C125      1.0  0.66008  0.34878999999999993  0.32349  1.0000
  C   C126      1.0  0.71152  0.2953499999999998  0.6859699999999997  1.0000
  C   C127      1.0  0.90476  0.7450499999999999  0.24796999999999994  1.0000
  C   C128      1.0  0.8920900000000002  0.77545  0.22105  1.0000
  C   C129      1.0  0.92859  0.82391  0.23596999999999999  1.0000
  C   C130      1.0  0.9778500000000001  0.8405199999999998  0.27708999999999995  1.0000
  C   C131      1.0  0.9876200000000002  0.8069299999999998  0.30116  1.0000
  C   C132      1.0  0.83972  0.7550299999999999  0.17679999999999998  1.0000
  C   C133      1.0  0.02018  0.89027  0.29533  1.0000
  C   C134      1.0  0.04273  0.9065200000000001  0.25747  1.0000
  C   C135      1.0  0.08683  0.9510399999999998  0.27465999999999996  1.0000
  C   C136      1.0  0.1093  0.9801199999999999  0.33015  1.0000
  C   C137      1.0  0.08534  0.9652  0.36849  1.0000
  C   C138      1.0  0.04119  0.9209999999999997  0.3513499999999999  1.0000
  C   C139      1.0  0.16002000000000002  0.02534999999999999  0.34894  1.0000
  C   C140      1.0  0.21145000000000003  0.60927  0.29522  1.0000
  C   C141      1.0  0.90431  0.50274  0.25505  1.0000
  C   C142      1.0  0.8918100000000001  0.4452799999999999  0.22461999999999993  1.0000
  C   C143      1.0  0.92819  0.4115899999999999  0.17602999999999996  1.0000
  C   C144      1.0  0.9772900000000001  0.43617  0.15942999999999996  1.0000
  C   C145      1.0  0.98693  0.49399  0.19310999999999995  1.0000
  C   C146      1.0  0.8396600000000001  0.4215299999999999  0.24518  1.0000
  C   C147      1.0  0.01974  0.4046799999999999  0.1097  1.0000
  C   C148      1.0  0.04259  0.35052  0.09326  1.0000
  C   C149      1.0  0.08683  0.32334  0.04878999999999999  1.0000
  C   C150      1.0  0.10918000000000001  0.3499199999999999  0.01998  1.0000
  C   C151      1.0  0.08496  0.40321999999999997  0.03509999999999999  1.0000
  C   C152      1.0  0.04065  0.43013  0.07922  1.0000
  C   C153      1.0  0.16  0.3235999999999999  0.97481  1.0000
  C   C154      1.0  0.21144  0.6861399999999999  0.3907  1.0000
  C   C155      1.0  0.9049700000000002  0.75207  0.49746  1.0000
  C   C156      1.0  0.8922300000000001  0.7789799999999998  0.5548599999999999  1.0000
  C   C157      1.0  0.92867  0.76415  0.58843  1.0000
  C   C158      1.0  0.97792  0.72301  0.56376  1.0000
  C   C159      1.0  0.9877200000000002  0.6988899999999998  0.50598  1.0000
  C   C160      1.0  0.83973  0.8230899999999998  0.57855  1.0000
  C   C161      1.0  0.02023  0.7047799999999997  0.59519  1.0000
  C   C162      1.0  0.04287  0.7426799999999998  0.64945  1.0000
  C   C163      1.0  0.08697  0.7254599999999998  0.67666  1.0000
  C   C164      1.0  0.10933000000000001  0.6699399999999998  0.65  1.0000
  C   C165      1.0  0.08529  0.6315699999999997  0.5966099999999999  1.0000
  C   C166      1.0  0.04114  0.6487299999999999  0.56966  1.0000
  C   C167      1.0  0.16005  0.6510999999999997  0.6762899999999998  1.0000
  C   C168      1.0  0.21146  0.70466  0.31403  1.0000
  I   I1        1.0  0.44642  0.7751799999999998  0.40972  1.0000
  I   I2        1.0  0.44665000000000005  0.6343199999999998  0.22497999999999996  1.0000
  I   I3        1.0  0.4462400000000001  0.5905199999999998  0.3653299999999999  1.0000
  I   I4        1.0  0.9466900000000001  0.225  0.59038  1.0000
  I   I5        1.0  0.9468800000000002  0.3655999999999999  0.7748399999999998  1.0000
  I   I6        1.0  0.9466100000000001  0.4094399999999999  0.63485  1.0000
  I   I7        1.0  0.55363  0.22481  0.59029  1.0000
  I   I8        1.0  0.5533600000000001  0.3656599999999998  0.7750499999999999  1.0000
  I   I9        1.0  0.55364  0.40946999999999983  0.6347  1.0000
  I   I10       1.0  0.05333  0.7749999999999998  0.4096  1.0000
  I   I11       1.0  0.053100000000000015  0.6344  0.22514999999999996  1.0000
  I   I12       1.0  0.053340000000000005  0.5905499999999998  0.36514  1.0000
  I   I13       1.0  0.6358900000000001  0.6671199999999998  0.33371  1.0000
  I   I14       1.0  0.13692  0.33286999999999994  0.6662999999999999  1.0000
  I   I15       1.0  0.36411000000000004  0.33285  0.6662799999999999  1.0000
  I   I16       1.0  0.8631000000000001  0.6671199999999998  0.33369  1.0000
  N   N1        1.0  0.54803  0.7609399999999997  0.28761999999999993  1.0000
  N   N2        1.0  0.54843  0.52658  0.23922999999999994  1.0000
  N   N3        1.0  0.54774  0.7124299999999998  0.4735499999999999  1.0000
  N   N4        1.0  0.04816  0.23927999999999988  0.7124  1.0000
  N   N5        1.0  0.048780000000000004  0.4732499999999998  0.7606399999999998  1.0000
  N   N6        1.0  0.04795  0.28756  0.52663  1.0000
  N   N7        1.0  0.45202000000000003  0.23904999999999998  0.71239  1.0000
  N   N8        1.0  0.45152  0.4733999999999998  0.7607899999999997  1.0000
  N   N9        1.0  0.45226000000000005  0.28754  0.52645  1.0000
  N   N10       1.0  0.95185  0.7607299999999998  0.2876  1.0000
  N   N11       1.0  0.9512200000000001  0.5267499999999999  0.23935  1.0000
  N   N12       1.0  0.95205  0.71245  0.4733699999999999  1.0000
  N   N13       1.0  0.31419  0.66668  0.33331999999999995  1.0000
  N   N14       1.0  0.81431  0.3333199999999999  0.66668  1.0000
  N   N15       1.0  0.6858  0.33331  0.66668  1.0000
  N   N16       1.0  0.18568  0.66669  0.33331999999999995  1.0000
  O   O1        1.0  0.6799500000000002  0.78752  0.15958  1.0000
  O   O2        1.0  0.68052  0.7050899999999999  0.15996  1.0000
  O   O3        1.0  0.32001  0.040459999999999934  0.31434999999999996  1.0000
  O   O4        1.0  0.31966  0.04523999999999998  0.39914  1.0000
  O   O5        1.0  0.68003  0.3717099999999999  0.21238  1.0000
  O   O6        1.0  0.6804900000000002  0.45475  0.295  1.0000
  O   O7        1.0  0.31992000000000004  0.27388  0.9595  1.0000
  O   O8        1.0  0.31972  0.3541099999999998  0.9551399999999998  1.0000
  O   O9        1.0  0.68002  0.8405299999999997  0.6283399999999999  1.0000
  O   O10       1.0  0.68053  0.8396  0.54526  1.0000
  O   O11       1.0  0.32  0.6855899999999998  0.7261099999999998  1.0000
  O   O12       1.0  0.31969  0.60077  0.64568  1.0000
  O   O13       1.0  0.1786  0.21232  0.84072  1.0000
  O   O14       1.0  0.18184  0.29428  0.83949  1.0000
  O   O15       1.0  0.82134  0.9593599999999995  0.6855599999999998  1.0000
  O   O16       1.0  0.81842  0.9550999999999998  0.60101  1.0000
  O   O17       1.0  0.17861  0.6288099999999998  0.7874499999999998  1.0000
  O   O18       1.0  0.18181000000000003  0.5452599999999999  0.7054599999999999  1.0000
  O   O19       1.0  0.8213700000000002  0.72632  0.040819999999999995  1.0000
  O   O20       1.0  0.8183500000000001  0.6456499999999997  0.04431  1.0000
  O   O21       1.0  0.17858  0.15897999999999995  0.37112999999999996  1.0000
  O   O22       1.0  0.18197000000000002  0.16119  0.45479  1.0000
  O   O23       1.0  0.82132  0.31443  0.27375  1.0000
  O   O24       1.0  0.8183500000000001  0.39892  0.35449  1.0000
  O   O25       1.0  0.32005  0.21248999999999996  0.84042  1.0000
  O   O26       1.0  0.31948000000000004  0.2949099999999999  0.84003  1.0000
  O   O27       1.0  0.6800000000000002  0.9595199999999998  0.6856499999999998  1.0000
  O   O28       1.0  0.68034  0.9547499999999999  0.60086  1.0000
  O   O29       1.0  0.31996  0.62829  0.7876099999999999  1.0000
  O   O30       1.0  0.31951  0.5452399999999998  0.7049899999999999  1.0000
  O   O31       1.0  0.68008  0.7261099999999999  0.04049  1.0000
  O   O32       1.0  0.68028  0.64588  0.04486  1.0000
  O   O33       1.0  0.31998  0.15947  0.37165  1.0000
  O   O34       1.0  0.31946  0.1604  0.45472999999999997  1.0000
  O   O35       1.0  0.6800000000000002  0.3143999999999999  0.27389  1.0000
  O   O36       1.0  0.68031  0.39921999999999996  0.35432  1.0000
  O   O37       1.0  0.8214000000000001  0.7876699999999999  0.15926999999999997  1.0000
  O   O38       1.0  0.8181600000000001  0.7057199999999999  0.16050999999999999  1.0000
  O   O39       1.0  0.17866  0.04063000000000003  0.31444  1.0000
  O   O40       1.0  0.18158000000000002  0.044900000000000016  0.39898  1.0000
  O   O41       1.0  0.82138  0.37119  0.21254  1.0000
  O   O42       1.0  0.8182  0.4547499999999998  0.29453999999999997  1.0000
  O   O43       1.0  0.17863  0.2736599999999999  0.9591699999999999  1.0000
  O   O44       1.0  0.18165000000000003  0.3543399999999998  0.9556899999999998  1.0000
  O   O45       1.0  0.82142  0.8410199999999998  0.62888  1.0000
  O   O46       1.0  0.81802  0.8388099999999996  0.5452099999999999  1.0000
  O   O47       1.0  0.17868  0.68557  0.72625  1.0000
  O   O48       1.0  0.18165000000000003  0.6010799999999997  0.6454999999999999  1.0000
