data_image0
_chemical_formula_structural       Zn20H124C144N36O64
_chemical_formula_sum              "Zn20 H124 C144 N36 O64"
_cell_length_a       15.76914
_cell_length_b       19.45623
_cell_length_c       25.35608
_cell_angle_alpha    89.99775
_cell_angle_beta     89.97559
_cell_angle_gamma    90.0175

_symmetry_space_group_name_H-M    'P 1'
_symmetry_Int_Tables_number       1

loop_
  _symmetry_equiv_pos_as_xyz
  'x,y,z'

loop_
  _atom_site_type_symbol
  _atom_site_label
  _atom_site_symmetry_multiplicity
  _atom_site_fract_x
  _atom_site_fract_y
  _atom_site_fract_z
  _atom_site_occupancy
  Zn  Zn1       1.0  0.5506699999999998  0.33922  0.22929  1.0000
  Zn  Zn2       1.0  0.52713  0.46445  0.45139  1.0000
  Zn  Zn3       1.0  0.9492299999999998  0.66079  0.72925  1.0000
  Zn  Zn4       1.0  0.9728599999999997  0.5355299999999998  0.9513700000000002  1.0000
  Zn  Zn5       1.0  0.44929999999999987  0.8392099999999999  0.7706999999999999  1.0000
  Zn  Zn6       1.0  0.47286  0.9644499999999998  0.54864  1.0000
  Zn  Zn7       1.0  0.050799999999999984  0.16081  0.27073  1.0000
  Zn  Zn8       1.0  0.02715  0.035579999999999994  0.04865  1.0000
  Zn  Zn9       1.0  0.4493299999999999  0.66078  0.77071  1.0000
  Zn  Zn10      1.0  0.47286  0.53554  0.54861  1.0000
  Zn  Zn11      1.0  0.05077  0.33921  0.27074  1.0000
  Zn  Zn12      1.0  0.02714  0.46447  0.04862999999999999  1.0000
  Zn  Zn13      1.0  0.5507  0.16079  0.2293  1.0000
  Zn  Zn14      1.0  0.52714  0.03555  0.45136  1.0000
  Zn  Zn15      1.0  0.9492  0.8391899999999999  0.72926  1.0000
  Zn  Zn16      1.0  0.9728399999999998  0.96441  0.95135  1.0000
  Zn  Zn17      1.0  0.68327  0.25040999999999997  0.3041  1.0000
  Zn  Zn18      1.0  0.81659  0.74958  0.8043499999999999  1.0000
  Zn  Zn19      1.0  0.3167299999999999  0.74958  0.6959  1.0000
  Zn  Zn20      1.0  0.18340999999999993  0.25042  0.19565  1.0000
  H   H1        1.0  0.4957399999999999  0.56476  0.0286  1.0000
  H   H2        1.0  0.64534  0.31284  0.45627  1.0000
  H   H3        1.0  0.7358799999999998  0.31109  0.41335  1.0000
  H   H4        1.0  0.70501  0.38826999999999995  0.44712  1.0000
  H   H5        1.0  0.40539  0.44477  0.32299  1.0000
  H   H6        1.0  0.4727499999999999  0.51332  0.34174  1.0000
  H   H7        1.0  0.47807  0.4796899999999999  0.27585  1.0000
  H   H8        1.0  0.4638799999999999  0.36062  0.65065  1.0000
  H   H9        1.0  0.7097299999999997  0.55716  0.9896299999999999  1.0000
  H   H10       1.0  0.51986  0.49373999999999996  0.10184999999999998  1.0000
  H   H11       1.0  0.7790099999999998  0.42835999999999996  0.12067  1.0000
  H   H12       1.0  0.79671  0.38817  0.3277  1.0000
  H   H13       1.0  0.8873399999999998  0.41303999999999996  0.29072  1.0000
  H   H14       1.0  0.7901099999999998  0.39099  0.25778  1.0000
  H   H15       1.0  0.004119999999999999  0.43513  0.52865  1.0000
  H   H16       1.0  0.8545999999999998  0.6872  0.95628  1.0000
  H   H17       1.0  0.76409  0.6888899999999999  0.91339  1.0000
  H   H18       1.0  0.7949699999999997  0.61174  0.94718  1.0000
  H   H19       1.0  0.09462999999999998  0.55521  0.82297  1.0000
  H   H20       1.0  0.02719999999999999  0.48669999999999997  0.84174  1.0000
  H   H21       1.0  0.02203  0.52028  0.77584  1.0000
  H   H22       1.0  0.03612999999999999  0.6393899999999999  0.1505  1.0000
  H   H23       1.0  0.7902299999999998  0.4427499999999999  0.48972000000000004  1.0000
  H   H24       1.0  0.9800099999999998  0.50612  0.60187  1.0000
  H   H25       1.0  0.7209599999999998  0.5717499999999999  0.62071  1.0000
  H   H26       1.0  0.70328  0.61184  0.82767  1.0000
  H   H27       1.0  0.61265  0.58697  0.79073  1.0000
  H   H28       1.0  0.7098999999999998  0.60898  0.75774  1.0000
  H   H29       1.0  0.50429  0.06465999999999998  0.9714  1.0000
  H   H30       1.0  0.3545999999999999  0.81278  0.5437  1.0000
  H   H31       1.0  0.26403  0.81099  0.58659  1.0000
  H   H32       1.0  0.295  0.8881999999999999  0.5529  1.0000
  H   H33       1.0  0.5945399999999997  0.9447599999999999  0.67701  1.0000
  H   H34       1.0  0.52716  0.01326  0.65826  1.0000
  H   H35       1.0  0.52188  0.97964  0.72414  1.0000
  H   H36       1.0  0.5361  0.86058  0.34929999999999994  1.0000
  H   H37       1.0  0.29027999999999987  0.05708999999999999  0.01039  1.0000
  H   H38       1.0  0.48010999999999987  0.9936699999999999  0.89812  1.0000
  H   H39       1.0  0.22098  0.92837  0.8792600000000002  1.0000
  H   H40       1.0  0.2034  0.8881999999999999  0.67229  1.0000
  H   H41       1.0  0.11276999999999997  0.9130199999999999  0.70927  1.0000
  H   H42       1.0  0.20999  0.89101  0.74221  1.0000
  H   H43       1.0  0.9958399999999997  0.93523  0.4713300000000001  1.0000
  H   H44       1.0  0.14545999999999995  0.18725999999999998  0.04369  1.0000
  H   H45       1.0  0.23599999999999993  0.189  0.08656  1.0000
  H   H46       1.0  0.20502999999999993  0.11181  0.05284  1.0000
  H   H47       1.0  0.9054299999999997  0.055229999999999994  0.17702  1.0000
  H   H48       1.0  0.9728799999999997  0.98676  0.15825  1.0000
  H   H49       1.0  0.97802  0.02032  0.22415  1.0000
  H   H50       1.0  0.9638699999999998  0.13937999999999998  0.84949  1.0000
  H   H51       1.0  0.20974  0.9428099999999999  0.5103  1.0000
  H   H52       1.0  0.02002  0.006189999999999999  0.39810000000000006  1.0000
  H   H53       1.0  0.27905999999999986  0.07175  0.37924  1.0000
  H   H54       1.0  0.2966099999999999  0.11182  0.17231999999999997  1.0000
  H   H55       1.0  0.3872299999999999  0.08699  0.20926  1.0000
  H   H56       1.0  0.28999999999999987  0.10896  0.24224  1.0000
  H   H57       1.0  0.50425  0.43523999999999996  0.9714  1.0000
  H   H58       1.0  0.35465  0.68716  0.54373  1.0000
  H   H59       1.0  0.26411  0.68891  0.58664  1.0000
  H   H60       1.0  0.29499  0.61173  0.55288  1.0000
  H   H61       1.0  0.5946  0.55523  0.677  1.0000
  H   H62       1.0  0.52724  0.48668  0.65825  1.0000
  H   H63       1.0  0.52193  0.5203  0.72414  1.0000
  H   H64       1.0  0.5361099999999998  0.63938  0.34935000000000005  1.0000
  H   H65       1.0  0.29026  0.44283999999999996  0.01037  1.0000
  H   H66       1.0  0.48014  0.50626  0.89815  1.0000
  H   H67       1.0  0.22099  0.57164  0.8793200000000001  1.0000
  H   H68       1.0  0.20328999999999994  0.61183  0.6723  1.0000
  H   H69       1.0  0.11264999999999997  0.5869599999999999  0.70928  1.0000
  H   H70       1.0  0.20988  0.60901  0.74222  1.0000
  H   H71       1.0  0.9958799999999998  0.5648699999999999  0.47134  1.0000
  H   H72       1.0  0.1454  0.31279999999999997  0.04372  1.0000
  H   H73       1.0  0.23590999999999995  0.31111  0.08661  1.0000
  H   H74       1.0  0.20502999999999993  0.38826  0.05282  1.0000
  H   H75       1.0  0.90537  0.44478999999999996  0.17702  1.0000
  H   H76       1.0  0.9727999999999998  0.5132899999999999  0.15825  1.0000
  H   H77       1.0  0.9779699999999998  0.47971  0.22416  1.0000
  H   H78       1.0  0.9638699999999998  0.36060999999999993  0.84949  1.0000
  H   H79       1.0  0.20976999999999996  0.55725  0.51027  1.0000
  H   H80       1.0  0.01999  0.4938699999999999  0.39812999999999993  1.0000
  H   H81       1.0  0.2790299999999999  0.42825  0.37929  1.0000
  H   H82       1.0  0.29672  0.38816  0.17233000000000004  1.0000
  H   H83       1.0  0.38734  0.41302999999999995  0.20926  1.0000
  H   H84       1.0  0.2901  0.3910199999999999  0.24225  1.0000
  H   H85       1.0  0.4957099999999999  0.9353399999999998  0.0286  1.0000
  H   H86       1.0  0.6454  0.18722  0.4563  1.0000
  H   H87       1.0  0.7359699999999998  0.18901  0.41341  1.0000
  H   H88       1.0  0.705  0.11178999999999999  0.4471  1.0000
  H   H89       1.0  0.40544999999999987  0.05524  0.32299  1.0000
  H   H90       1.0  0.47284  0.9867399999999997  0.34174  1.0000
  H   H91       1.0  0.4781199999999999  0.020349999999999997  0.27586  1.0000
  H   H92       1.0  0.46389999999999987  0.13941  0.6507  1.0000
  H   H93       1.0  0.70972  0.9429099999999999  0.98961  1.0000
  H   H94       1.0  0.5198899999999997  0.00633  0.10187  1.0000
  H   H95       1.0  0.77902  0.07162  0.12073999999999999  1.0000
  H   H96       1.0  0.7965999999999998  0.1118  0.32771000000000006  1.0000
  H   H97       1.0  0.88723  0.08696999999999999  0.29072  1.0000
  H   H98       1.0  0.7899999999999998  0.10898999999999999  0.25779  1.0000
  H   H99       1.0  0.00416  0.06477  0.52867  1.0000
  H   H100      1.0  0.85454  0.81273  0.95631  1.0000
  H   H101      1.0  0.7639999999999998  0.8109999999999999  0.91344  1.0000
  H   H102      1.0  0.7949699999999997  0.88819  0.94716  1.0000
  H   H103      1.0  0.09455999999999998  0.94477  0.82297  1.0000
  H   H104      1.0  0.02711  0.01324  0.84174  1.0000
  H   H105      1.0  0.02197  0.9796799999999999  0.77585  1.0000
  H   H106      1.0  0.03612  0.8606099999999999  0.1505  1.0000
  H   H107      1.0  0.7902599999999997  0.05718999999999999  0.4897  1.0000
  H   H108      1.0  0.9799699999999998  0.9938099999999999  0.6019  1.0000
  H   H109      1.0  0.7209399999999998  0.9282499999999999  0.62076  1.0000
  H   H110      1.0  0.7033899999999997  0.88817  0.82768  1.0000
  H   H111      1.0  0.61276  0.91301  0.79074  1.0000
  H   H112      1.0  0.71  0.89103  0.75775  1.0000
  H   H113      1.0  0.66368  0.25004  0.205  1.0000
  H   H114      1.0  0.4985  0.2501999999999999  0.73056  1.0000
  H   H115      1.0  0.50644  0.24996999999999997  0.50594  1.0000
  H   H116      1.0  0.8362199999999997  0.74996  0.7051000000000001  1.0000
  H   H117      1.0  0.0015  0.7498099999999998  0.23039000000000004  1.0000
  H   H118      1.0  0.99354  0.7499999999999998  0.00579  1.0000
  H   H119      1.0  0.33632  0.7499499999999998  0.795  1.0000
  H   H120      1.0  0.5014999999999998  0.7497999999999999  0.26943  1.0000
  H   H121      1.0  0.4935599999999999  0.75003  0.49406  1.0000
  H   H122      1.0  0.16378  0.25004  0.2949  1.0000
  H   H123      1.0  0.9984999999999999  0.25019  0.76961  1.0000
  H   H124      1.0  0.00645  0.24999  0.9942  1.0000
  C   C1        1.0  0.6821  0.34197  0.4269800000000001  1.0000
  C   C2        1.0  0.6271599999999998  0.36285  0.38236  1.0000
  C   C3        1.0  0.53504  0.41714999999999997  0.33507  1.0000
  C   C4        1.0  0.4690899999999999  0.46664  0.31759  1.0000
  C   C5        1.0  0.49315  0.37984  0.54634  1.0000
  C   C6        1.0  0.4867499999999999  0.31244  0.57517  1.0000
  C   C7        1.0  0.4711899999999999  0.31226  0.62969  1.0000
  C   C8        1.0  0.8440499999999997  0.49047  0.03364  1.0000
  C   C9        1.0  0.75415  0.49282  0.053290000000000004  1.0000
  C   C10       1.0  0.69267  0.52977  0.02537  1.0000
  C   C11       1.0  0.60868  0.53149  0.04307  1.0000
  C   C12       1.0  0.58535  0.49499  0.08827  1.0000
  C   C13       1.0  0.64726  0.45811999999999997  0.11629000000000002  1.0000
  C   C14       1.0  0.7315899999999997  0.45752999999999994  0.09922  1.0000
  C   C15       1.0  0.6225299999999998  0.41584  0.16267  1.0000
  C   C16       1.0  0.8321999999999998  0.37873999999999997  0.29115  1.0000
  C   C17       1.0  0.8600899999999998  0.30594999999999994  0.2885  1.0000
  C   C18       1.0  0.8178799999999998  0.6580299999999998  0.92702  1.0000
  C   C19       1.0  0.87284  0.63715  0.8823900000000001  1.0000
  C   C20       1.0  0.9649699999999998  0.58287  0.83504  1.0000
  C   C21       1.0  0.03093  0.53337  0.81757  1.0000
  C   C22       1.0  0.006829999999999998  0.62017  0.04624  1.0000
  C   C23       1.0  0.013269999999999997  0.6875599999999998  0.07503  1.0000
  C   C24       1.0  0.02884  0.6877499999999999  0.12954  1.0000
  C   C25       1.0  0.6559  0.50953  0.53366  1.0000
  C   C26       1.0  0.74576  0.50714  0.55334  1.0000
  C   C27       1.0  0.80728  0.47018999999999994  0.52542  1.0000
  C   C28       1.0  0.8912699999999998  0.46855  0.54304  1.0000
  C   C29       1.0  0.9145399999999998  0.50491  0.58831  1.0000
  C   C30       1.0  0.8525899999999997  0.5417799999999999  0.61634  1.0000
  C   C31       1.0  0.7682899999999998  0.5424499999999999  0.59925  1.0000
  C   C32       1.0  0.8770499999999998  0.58418  0.6627000000000001  1.0000
  C   C33       1.0  0.6678099999999998  0.62125  0.7911300000000001  1.0000
  C   C34       1.0  0.63992  0.69405  0.7884700000000001  1.0000
  C   C35       1.0  0.31785999999999986  0.84187  0.573  1.0000
  C   C36       1.0  0.3727899999999999  0.8626599999999999  0.61766  1.0000
  C   C37       1.0  0.4648899999999999  0.91703  0.66494  1.0000
  C   C38       1.0  0.5308399999999998  0.96658  0.68241  1.0000
  C   C39       1.0  0.50685  0.87992  0.45347  1.0000
  C   C40       1.0  0.5132699999999998  0.81245  0.42477  1.0000
  C   C41       1.0  0.5288299999999998  0.81221  0.37026  1.0000
  C   C42       1.0  0.15592999999999996  0.99046  0.96635  1.0000
  C   C43       1.0  0.24583999999999995  0.9927699999999999  0.9467  1.0000
  C   C44       1.0  0.30733  0.02975  0.9746200000000002  1.0000
  C   C45       1.0  0.39131  0.03149  0.9569  1.0000
  C   C46       1.0  0.4146399999999999  0.9949599999999998  0.91172  1.0000
  C   C47       1.0  0.35273999999999994  0.95807  0.8837  1.0000
  C   C48       1.0  0.2684  0.95749  0.90076  1.0000
  C   C49       1.0  0.37746  0.9157899999999999  0.83734  1.0000
  C   C50       1.0  0.16791  0.87875  0.7088399999999999  1.0000
  C   C51       1.0  0.13998  0.80595  0.71148  1.0000
  C   C52       1.0  0.18217  0.15814  0.07296  1.0000
  C   C53       1.0  0.12722  0.13732999999999998  0.11763  1.0000
  C   C54       1.0  0.03511  0.08299  0.16496999999999998  1.0000
  C   C55       1.0  0.96914  0.03343  0.18243  1.0000
  C   C56       1.0  0.9931799999999997  0.12015  0.95374  1.0000
  C   C57       1.0  0.9867199999999998  0.18755  0.92495  1.0000
  C   C58       1.0  0.9711399999999998  0.18776  0.87045  1.0000
  C   C59       1.0  0.3441299999999999  0.00956  0.46632  1.0000
  C   C60       1.0  0.25424  0.00719  0.44666  1.0000
  C   C61       1.0  0.19271  0.97023  0.47458  1.0000
  C   C62       1.0  0.10871999999999997  0.9685399999999998  0.45694000000000007  1.0000
  C   C63       1.0  0.08547999999999997  0.00494  0.41169  1.0000
  C   C64       1.0  0.14742  0.04181  0.38366000000000006  1.0000
  C   C65       1.0  0.23171999999999995  0.04249  0.40074000000000004  1.0000
  C   C66       1.0  0.12295999999999999  0.08421999999999999  0.3373  1.0000
  C   C67       1.0  0.3320799999999999  0.12125  0.20885999999999996  1.0000
  C   C68       1.0  0.3599999999999999  0.19405  0.21151  1.0000
  C   C69       1.0  0.3179  0.6580299999999998  0.57301  1.0000
  C   C70       1.0  0.3728399999999999  0.63715  0.61764  1.0000
  C   C71       1.0  0.46496  0.58285  0.66493  1.0000
  C   C72       1.0  0.53091  0.53336  0.68241  1.0000
  C   C73       1.0  0.50685  0.6201499999999999  0.45364000000000004  1.0000
  C   C74       1.0  0.5132499999999998  0.6875599999999998  0.42483  1.0000
  C   C75       1.0  0.5288099999999998  0.68774  0.37031  1.0000
  C   C76       1.0  0.15595  0.50952  0.96637  1.0000
  C   C77       1.0  0.24585  0.5071799999999999  0.9467  1.0000
  C   C78       1.0  0.30733  0.47021999999999997  0.9746200000000002  1.0000
  C   C79       1.0  0.39131  0.46851  0.95692  1.0000
  C   C80       1.0  0.4146499999999999  0.50501  0.91172  1.0000
  C   C81       1.0  0.35273999999999994  0.5418799999999999  0.8837  1.0000
  C   C82       1.0  0.26840999999999987  0.54246  0.90078  1.0000
  C   C83       1.0  0.37747  0.58416  0.83733  1.0000
  C   C84       1.0  0.16779999999999995  0.62125  0.70885  1.0000
  C   C85       1.0  0.13990999999999995  0.69405  0.71149  1.0000
  C   C86       1.0  0.18211999999999995  0.34196  0.07297  1.0000
  C   C87       1.0  0.12715  0.36285  0.1176  1.0000
  C   C88       1.0  0.03503  0.41713  0.16495  1.0000
  C   C89       1.0  0.9690699999999998  0.4666299999999999  0.18243  1.0000
  C   C90       1.0  0.9931699999999998  0.37982  0.95377  1.0000
  C   C91       1.0  0.98673  0.31244  0.92496  1.0000
  C   C92       1.0  0.9711499999999997  0.31224  0.8704600000000001  1.0000
  C   C93       1.0  0.34411  0.49046  0.46633  1.0000
  C   C94       1.0  0.25424  0.49286  0.44666  1.0000
  C   C95       1.0  0.19272  0.52981  0.47457  1.0000
  C   C96       1.0  0.10871999999999997  0.5314499999999999  0.45695  1.0000
  C   C97       1.0  0.08546  0.49509  0.41169  1.0000
  C   C98       1.0  0.14741  0.45821999999999996  0.38366000000000006  1.0000
  C   C99       1.0  0.23170999999999994  0.45754  0.40075  1.0000
  C   C100      1.0  0.12294999999999998  0.41582  0.33729000000000003  1.0000
  C   C101      1.0  0.33219  0.37875  0.20887000000000003  1.0000
  C   C102      1.0  0.36008  0.30594999999999994  0.21151999999999999  1.0000
  C   C103      1.0  0.6821299999999998  0.15812999999999997  0.427  1.0000
  C   C104      1.0  0.62721  0.13732999999999998  0.38234  1.0000
  C   C105      1.0  0.5351099999999998  0.08296999999999999  0.33505999999999997  1.0000
  C   C106      1.0  0.4691599999999999  0.03341999999999999  0.31759  1.0000
  C   C107      1.0  0.49315  0.12007999999999999  0.54651  1.0000
  C   C108      1.0  0.4867299999999999  0.18754  0.57522  1.0000
  C   C109      1.0  0.47116999999999987  0.18779  0.62973  1.0000
  C   C110      1.0  0.84408  0.00955  0.03365  1.0000
  C   C111      1.0  0.75415  0.00722  0.0533  1.0000
  C   C112      1.0  0.69267  0.97025  0.02538  1.0000
  C   C113      1.0  0.60869  0.96851  0.0431  1.0000
  C   C114      1.0  0.5853599999999998  0.00504  0.08828  1.0000
  C   C115      1.0  0.64726  0.04193  0.11629000000000002  1.0000
  C   C116      1.0  0.7315899999999997  0.04250999999999999  0.09923  1.0000
  C   C117      1.0  0.62254  0.08420999999999997  0.16266  1.0000
  C   C118      1.0  0.83209  0.12125  0.29116  1.0000
  C   C119      1.0  0.8600199999999998  0.19405  0.28851  1.0000
  C   C120      1.0  0.81783  0.8418599999999999  0.92703  1.0000
  C   C121      1.0  0.8727799999999999  0.86267  0.88237  1.0000
  C   C122      1.0  0.96489  0.917  0.83503  1.0000
  C   C123      1.0  0.03086  0.96657  0.81757  1.0000
  C   C124      1.0  0.006819999999999998  0.87985  0.04626  1.0000
  C   C125      1.0  0.013269999999999997  0.81245  0.07505  1.0000
  C   C126      1.0  0.02886  0.8122299999999999  0.12955  1.0000
  C   C127      1.0  0.6558699999999997  0.9904499999999999  0.53367  1.0000
  C   C128      1.0  0.74576  0.9928099999999999  0.55334  1.0000
  C   C129      1.0  0.8072899999999997  0.02977  0.52542  1.0000
  C   C130      1.0  0.89128  0.03146  0.54306  1.0000
  C   C131      1.0  0.9145199999999998  0.9950599999999998  0.5883  1.0000
  C   C132      1.0  0.85258  0.95818  0.61634  1.0000
  C   C133      1.0  0.76828  0.9575099999999999  0.59926  1.0000
  C   C134      1.0  0.8770399999999998  0.91578  0.6627000000000001  1.0000
  C   C135      1.0  0.66792  0.87875  0.7911399999999998  1.0000
  C   C136      1.0  0.64  0.80595  0.7884799999999998  1.0000
  C   C137      1.0  0.4950799999999999  0.24998  0.54818  1.0000
  C   C138      1.0  0.46461  0.25003  0.65677  1.0000
  C   C139      1.0  0.004909999999999999  0.7499999999999998  0.04804  1.0000
  C   C140      1.0  0.03542  0.7499899999999999  0.15659  1.0000
  C   C141      1.0  0.50491  0.75002  0.45181  1.0000
  C   C142      1.0  0.53538  0.74997  0.34323000000000004  1.0000
  C   C143      1.0  0.9950899999999998  0.24999  0.95196  1.0000
  C   C144      1.0  0.9645799999999998  0.25000999999999995  0.84341  1.0000
  N   N1        1.0  0.6282099999999998  0.3341  0.33437000000000006  1.0000
  N   N2        1.0  0.5691999999999998  0.3687399999999999  0.30421  1.0000
  N   N3        1.0  0.5697099999999999  0.41478  0.3841200000000001  1.0000
  N   N4        1.0  0.9394099999999997  0.28546  0.27951  1.0000
  N   N5        1.0  0.87177  0.66589  0.8344100000000001  1.0000
  N   N6        1.0  0.93078  0.63127  0.8042  1.0000
  N   N7        1.0  0.9303199999999998  0.58524  0.88412  1.0000
  N   N8        1.0  0.5606399999999998  0.7145399999999998  0.7794  1.0000
  N   N9        1.0  0.3717499999999999  0.83383  0.66563  1.0000
  N   N10       1.0  0.43075  0.86856  0.69579  1.0000
  N   N11       1.0  0.43023  0.91465  0.61589  1.0000
  N   N12       1.0  0.06063  0.78548  0.72048  1.0000
  N   N13       1.0  0.12826999999999994  0.16616  0.16559  1.0000
  N   N14       1.0  0.06927  0.13145  0.19579999999999997  1.0000
  N   N15       1.0  0.06977  0.08536  0.11590000000000002  1.0000
  N   N16       1.0  0.4393199999999999  0.21451999999999996  0.22059  1.0000
  N   N17       1.0  0.37179  0.6659  0.6656199999999999  1.0000
  N   N18       1.0  0.4307999999999999  0.63126  0.69579  1.0000
  N   N19       1.0  0.4302899999999999  0.58522  0.61588  1.0000
  N   N20       1.0  0.06059  0.7145399999999998  0.72049  1.0000
  N   N21       1.0  0.12822  0.33411  0.16559  1.0000
  N   N22       1.0  0.06922  0.36873  0.19579999999999997  1.0000
  N   N23       1.0  0.06967999999999998  0.41476  0.11588  1.0000
  N   N24       1.0  0.43935999999999986  0.28546  0.22059999999999996  1.0000
  N   N25       1.0  0.6282499999999998  0.16616  0.33437000000000006  1.0000
  N   N26       1.0  0.56924  0.13143999999999997  0.30421  1.0000
  N   N27       1.0  0.56977  0.08535  0.38411  1.0000
  N   N28       1.0  0.9393699999999998  0.21451999999999996  0.27952  1.0000
  N   N29       1.0  0.87173  0.83384  0.8344000000000001  1.0000
  N   N30       1.0  0.93073  0.8685499999999999  0.8042  1.0000
  N   N31       1.0  0.9302299999999998  0.9146399999999999  0.8841  1.0000
  N   N32       1.0  0.56068  0.78548  0.77941  1.0000
  N   N33       1.0  0.8082  0.25002  0.29436  1.0000
  N   N34       1.0  0.6917799999999997  0.74998  0.79439  1.0000
  N   N35       1.0  0.19179999999999994  0.74998  0.70564  1.0000
  N   N36       1.0  0.30821999999999994  0.25002  0.2056  1.0000
  O   O1        1.0  0.51599  0.37794  0.49808  1.0000
  O   O2        1.0  0.4751799999999999  0.43377  0.57276  1.0000
  O   O3        1.0  0.8985099999999998  0.46177999999999997  0.06346  1.0000
  O   O4        1.0  0.85807  0.51755  0.98873  1.0000
  O   O5        1.0  0.67736  0.38505  0.19033  1.0000
  O   O6        1.0  0.54169  0.40947999999999996  0.1724  1.0000
  O   O7        1.0  0.5522099999999998  0.56941  0.01345  1.0000
  O   O8        1.0  0.98393  0.6220899999999999  0.99799  1.0000
  O   O9        1.0  0.02484  0.56624  0.0726  1.0000
  O   O10       1.0  0.6013699999999997  0.53826  0.56347  1.0000
  O   O11       1.0  0.6419099999999998  0.48244999999999993  0.48878  1.0000
  O   O12       1.0  0.8220599999999998  0.615  0.69024  1.0000
  O   O13       1.0  0.95791  0.59057  0.67249  1.0000
  O   O14       1.0  0.94777  0.43072999999999995  0.51334  1.0000
  O   O15       1.0  0.4840599999999999  0.87803  0.50176  1.0000
  O   O16       1.0  0.52476  0.9337699999999999  0.42691  1.0000
  O   O17       1.0  0.10143999999999997  0.96176  0.93651  1.0000
  O   O18       1.0  0.14189999999999994  0.01758  0.011230000000000002  1.0000
  O   O19       1.0  0.3225899999999999  0.8849999999999998  0.8096799999999998  1.0000
  O   O20       1.0  0.4583  0.9094699999999999  0.8275900000000002  1.0000
  O   O21       1.0  0.44781  0.06945  0.9865000000000002  1.0000
  O   O22       1.0  0.01608  0.12210999999999998  0.00198  1.0000
  O   O23       1.0  0.97516  0.06621  0.9273500000000001  1.0000
  O   O24       1.0  0.3986599999999999  0.03828  0.43652  1.0000
  O   O25       1.0  0.35813  0.98244  0.51121  1.0000
  O   O26       1.0  0.17797  0.11505  0.30977  1.0000
  O   O27       1.0  0.0421  0.09057999999999997  0.3275  1.0000
  O   O28       1.0  0.0522  0.93066  0.4866  1.0000
  O   O29       1.0  0.4840099999999999  0.62206  0.50192  1.0000
  O   O30       1.0  0.5248199999999997  0.56623  0.42724000000000006  1.0000
  O   O31       1.0  0.10147999999999997  0.5382299999999999  0.93653  1.0000
  O   O32       1.0  0.14193  0.48244999999999993  0.01126  1.0000
  O   O33       1.0  0.32264  0.61495  0.80966  1.0000
  O   O34       1.0  0.45831  0.59052  0.8275999999999999  1.0000
  O   O35       1.0  0.4477899999999999  0.4305899999999999  0.9865500000000001  1.0000
  O   O36       1.0  0.01607  0.37790999999999997  0.002  1.0000
  O   O37       1.0  0.97516  0.4337599999999999  0.92739  1.0000
  O   O38       1.0  0.39861999999999986  0.46173999999999993  0.43653  1.0000
  O   O39       1.0  0.3580899999999999  0.51755  0.51123  1.0000
  O   O40       1.0  0.17793999999999993  0.38499999999999995  0.30975  1.0000
  O   O41       1.0  0.04208999999999999  0.40943  0.32751  1.0000
  O   O42       1.0  0.052229999999999985  0.56927  0.48666  1.0000
  O   O43       1.0  0.51593  0.12196  0.49825  1.0000
  O   O44       1.0  0.47524  0.06622  0.57309  1.0000
  O   O45       1.0  0.8985499999999997  0.03824  0.06348  1.0000
  O   O46       1.0  0.8580999999999998  0.98242  0.9887600000000001  1.0000
  O   O47       1.0  0.6774099999999997  0.11499  0.19031  1.0000
  O   O48       1.0  0.5417  0.09053  0.17241  1.0000
  O   O49       1.0  0.55218  0.9305499999999999  0.0135  1.0000
  O   O50       1.0  0.9839199999999998  0.87789  0.99801  1.0000
  O   O51       1.0  0.02483  0.93378  0.07265  1.0000
  O   O52       1.0  0.6013299999999998  0.96172  0.56348  1.0000
  O   O53       1.0  0.6418699999999998  0.01756  0.4888  1.0000
  O   O54       1.0  0.8220199999999998  0.8849499999999998  0.69023  1.0000
  O   O55       1.0  0.9578999999999998  0.9094199999999999  0.67249  1.0000
  O   O56       1.0  0.9477999999999998  0.06934  0.5134  1.0000
  O   O57       1.0  0.6216099999999998  0.25003  0.23311  1.0000
  O   O58       1.0  0.44579  0.25002  0.71078  1.0000
  O   O59       1.0  0.8783099999999998  0.74997  0.73318  1.0000
  O   O60       1.0  0.05422  0.7499899999999999  0.21059  1.0000
  O   O61       1.0  0.3783899999999999  0.74997  0.76689  1.0000
  O   O62       1.0  0.55421  0.74998  0.28922  1.0000
  O   O63       1.0  0.12168999999999998  0.25003  0.26682  1.0000
  O   O64       1.0  0.9457799999999997  0.25000999999999995  0.78941  1.0000
