data_image0
_chemical_formula_structural       Cu12H96C168N8O48
_chemical_formula_sum              "Cu12 H96 C168 N8 O48"
_cell_length_a       23.40413
_cell_length_b       23.40413
_cell_length_c       23.40413
_cell_angle_alpha    90.0
_cell_angle_beta     90.0
_cell_angle_gamma    90.0

_space_group_name_H-M_alt    "P 1"
_space_group_IT_number       1

loop_
  _space_group_symop_operation_xyz
  'x, y, z'

loop_
  _atom_site_type_symbol
  _atom_site_label
  _atom_site_symmetry_multiplicity
  _atom_site_fract_x
  _atom_site_fract_y
  _atom_site_fract_z
  _atom_site_occupancy
  Cu  Cu1       1.0  0.69795  0.5  0.0  1.0000
  Cu  Cu2       1.0  0.30206  0.5  0.0  1.0000
  Cu  Cu3       1.0  0.0  0.69795  0.5  1.0000
  Cu  Cu4       1.0  0.0  0.30206  0.5  1.0000
  Cu  Cu5       1.0  0.5  0.0  0.69795  1.0000
  Cu  Cu6       1.0  0.5  0.0  0.30206  1.0000
  Cu  Cu7       1.0  0.0  0.19795  0.5  1.0000
  Cu  Cu8       1.0  0.0  0.80206  0.5  1.0000
  Cu  Cu9       1.0  0.19795  0.5  0.0  1.0000
  Cu  Cu10      1.0  0.80206  0.5  0.0  1.0000
  Cu  Cu11      1.0  0.5  0.0  0.80206  1.0000
  Cu  Cu12      1.0  0.5  0.0  0.19795  1.0000
  H   H1        1.0  0.6583  0.62532  0.8713299999999999  1.0000
  H   H2        1.0  0.65802  0.69993  0.79538  1.0000
  H   H3        1.0  0.3417  0.37468  0.87132  1.0000
  H   H4        1.0  0.34198  0.30006  0.79538  1.0000
  H   H5        1.0  0.3417  0.62532  0.12869  1.0000
  H   H6        1.0  0.34197  0.6999400000000001  0.20462  1.0000
  H   H7        1.0  0.6583  0.37468  0.12867  1.0000
  H   H8        1.0  0.65801  0.30007  0.20462  1.0000
  H   H9        1.0  0.8713299999999999  0.6583  0.62532  1.0000
  H   H10       1.0  0.79538  0.65801  0.69993  1.0000
  H   H11       1.0  0.8713299999999999  0.3417  0.37468  1.0000
  H   H12       1.0  0.79538  0.34198999999999996  0.30007  1.0000
  H   H13       1.0  0.12868  0.3417  0.62532  1.0000
  H   H14       1.0  0.20462  0.34198  0.6999400000000001  1.0000
  H   H15       1.0  0.12869  0.6583  0.37468  1.0000
  H   H16       1.0  0.20462  0.65803  0.30006  1.0000
  H   H17       1.0  0.62532  0.8713299999999999  0.6583  1.0000
  H   H18       1.0  0.69993  0.79538  0.65801  1.0000
  H   H19       1.0  0.37468  0.87132  0.3417  1.0000
  H   H20       1.0  0.30006  0.79538  0.34197  1.0000
  H   H21       1.0  0.62532  0.12867  0.3417  1.0000
  H   H22       1.0  0.69993  0.20462  0.34198999999999996  1.0000
  H   H23       1.0  0.37468  0.12868  0.6583  1.0000
  H   H24       1.0  0.30006  0.20462  0.65802  1.0000
  H   H25       1.0  0.12532  0.1583  0.62868  1.0000
  H   H26       1.0  0.19993  0.15801  0.7046299999999999  1.0000
  H   H27       1.0  0.8746899999999999  0.8417  0.62868  1.0000
  H   H28       1.0  0.80006  0.84198  0.70462  1.0000
  H   H29       1.0  0.12532  0.8417  0.37133  1.0000
  H   H30       1.0  0.19993  0.84199  0.29538  1.0000
  H   H31       1.0  0.8746899999999999  0.1583  0.37131999999999993  1.0000
  H   H32       1.0  0.80006  0.15802  0.29538  1.0000
  H   H33       1.0  0.1583  0.37133  0.8746899999999999  1.0000
  H   H34       1.0  0.15801  0.29538  0.8000699999999998  1.0000
  H   H35       1.0  0.8417  0.37131999999999993  0.12532  1.0000
  H   H36       1.0  0.84198  0.29538  0.19994  1.0000
  H   H37       1.0  0.8417  0.62868  0.8746899999999999  1.0000
  H   H38       1.0  0.84198  0.70462  0.80006  1.0000
  H   H39       1.0  0.1583  0.62867  0.12532  1.0000
  H   H40       1.0  0.15801  0.7046299999999999  0.19993  1.0000
  H   H41       1.0  0.37133  0.12532  0.8417  1.0000
  H   H42       1.0  0.29538  0.19993  0.84199  1.0000
  H   H43       1.0  0.37133  0.8746899999999999  0.1583  1.0000
  H   H44       1.0  0.29538  0.80008  0.15801  1.0000
  H   H45       1.0  0.62868  0.12532  0.1583  1.0000
  H   H46       1.0  0.70462  0.19994  0.15802  1.0000
  H   H47       1.0  0.62868  0.8746899999999999  0.8417  1.0000
  H   H48       1.0  0.70462  0.80006  0.84198  1.0000
  H   H49       1.0  0.3417  0.37468  0.12868  1.0000
  H   H50       1.0  0.34198  0.30007  0.20462  1.0000
  H   H51       1.0  0.6583  0.62532  0.12868  1.0000
  H   H52       1.0  0.65802  0.69993  0.20462  1.0000
  H   H53       1.0  0.6583  0.37468  0.87132  1.0000
  H   H54       1.0  0.65802  0.30006  0.79538  1.0000
  H   H55       1.0  0.3417  0.62532  0.87132  1.0000
  H   H56       1.0  0.34198  0.6999400000000001  0.79538  1.0000
  H   H57       1.0  0.12868  0.3417  0.37468  1.0000
  H   H58       1.0  0.20462  0.34198  0.30007  1.0000
  H   H59       1.0  0.12868  0.6583  0.62532  1.0000
  H   H60       1.0  0.20462  0.65802  0.6999400000000001  1.0000
  H   H61       1.0  0.87132  0.6583  0.37468  1.0000
  H   H62       1.0  0.79538  0.65802  0.30007  1.0000
  H   H63       1.0  0.87132  0.3417  0.62532  1.0000
  H   H64       1.0  0.79538  0.34198  0.6999400000000001  1.0000
  H   H65       1.0  0.37468  0.12868  0.3417  1.0000
  H   H66       1.0  0.30007  0.20462  0.34198  1.0000
  H   H67       1.0  0.62532  0.12868  0.6583  1.0000
  H   H68       1.0  0.6999400000000001  0.20462  0.65802  1.0000
  H   H69       1.0  0.37468  0.87132  0.6583  1.0000
  H   H70       1.0  0.30007  0.79538  0.65802  1.0000
  H   H71       1.0  0.62532  0.87132  0.3417  1.0000
  H   H72       1.0  0.69993  0.79538  0.34198999999999996  1.0000
  H   H73       1.0  0.8746899999999999  0.8417  0.37131999999999993  1.0000
  H   H74       1.0  0.8000699999999998  0.84198  0.29538  1.0000
  H   H75       1.0  0.12532  0.1583  0.37131999999999993  1.0000
  H   H76       1.0  0.19993  0.15802  0.29538  1.0000
  H   H77       1.0  0.8746899999999999  0.1583  0.62867  1.0000
  H   H78       1.0  0.8000699999999998  0.15801  0.7046299999999999  1.0000
  H   H79       1.0  0.12532  0.8417  0.62868  1.0000
  H   H80       1.0  0.19993  0.84198  0.70462  1.0000
  H   H81       1.0  0.8417  0.62868  0.12532  1.0000
  H   H82       1.0  0.84198  0.70462  0.19994  1.0000
  H   H83       1.0  0.1583  0.62868  0.8746899999999999  1.0000
  H   H84       1.0  0.15802  0.70462  0.8000699999999998  1.0000
  H   H85       1.0  0.1583  0.37131999999999993  0.12532  1.0000
  H   H86       1.0  0.15802  0.29538  0.19993  1.0000
  H   H87       1.0  0.8417  0.37133  0.8746899999999999  1.0000
  H   H88       1.0  0.84199  0.29538  0.8000699999999998  1.0000
  H   H89       1.0  0.62868  0.8746899999999999  0.1583  1.0000
  H   H90       1.0  0.70462  0.8000699999999998  0.15802  1.0000
  H   H91       1.0  0.62867  0.12532  0.8417  1.0000
  H   H92       1.0  0.7046299999999999  0.19993  0.84199  1.0000
  H   H93       1.0  0.37131999999999993  0.8746899999999999  0.8417  1.0000
  H   H94       1.0  0.29538  0.8000699999999998  0.84198  1.0000
  H   H95       1.0  0.37131999999999993  0.12532  0.1583  1.0000
  H   H96       1.0  0.29538  0.19993  0.15802  1.0000
  C   C1        1.0  0.69825  0.64293  0.85545  1.0000
  C   C2        1.0  0.6981099999999999  0.6845699999999999  0.81314  1.0000
  C   C3        1.0  0.30175  0.35706999999999994  0.85545  1.0000
  C   C4        1.0  0.30189  0.31542  0.81314  1.0000
  C   C5        1.0  0.30175  0.64293  0.14455  1.0000
  C   C6        1.0  0.30188  0.68458  0.18686  1.0000
  C   C7        1.0  0.69825  0.35706999999999994  0.14455  1.0000
  C   C8        1.0  0.6981099999999999  0.31543  0.18686  1.0000
  C   C9        1.0  0.85545  0.69825  0.64293  1.0000
  C   C10       1.0  0.81314  0.6981099999999999  0.6845699999999999  1.0000
  C   C11       1.0  0.85545  0.30175  0.35706999999999994  1.0000
  C   C12       1.0  0.81314  0.30189  0.31543  1.0000
  C   C13       1.0  0.14455  0.30175  0.64293  1.0000
  C   C14       1.0  0.18686  0.30189  0.68458  1.0000
  C   C15       1.0  0.14455  0.69825  0.35706999999999994  1.0000
  C   C16       1.0  0.18686  0.69812  0.31542  1.0000
  C   C17       1.0  0.64293  0.85545  0.69825  1.0000
  C   C18       1.0  0.6845699999999999  0.81314  0.6981099999999999  1.0000
  C   C19       1.0  0.35706999999999994  0.85545  0.30175  1.0000
  C   C20       1.0  0.31542  0.81314  0.30188  1.0000
  C   C21       1.0  0.64293  0.14455  0.30175  1.0000
  C   C22       1.0  0.6845699999999999  0.18686  0.30189  1.0000
  C   C23       1.0  0.35706999999999994  0.14455  0.69825  1.0000
  C   C24       1.0  0.31542  0.18686  0.6981099999999999  1.0000
  C   C25       1.0  0.14293  0.19825  0.64455  1.0000
  C   C26       1.0  0.18456999999999998  0.19810999999999998  0.68686  1.0000
  C   C27       1.0  0.85707  0.80175  0.64455  1.0000
  C   C28       1.0  0.81543  0.80189  0.68686  1.0000
  C   C29       1.0  0.14293  0.80175  0.35545  1.0000
  C   C30       1.0  0.18456999999999998  0.8019  0.31314  1.0000
  C   C31       1.0  0.85707  0.19825  0.35545  1.0000
  C   C32       1.0  0.81543  0.19810999999999998  0.31314  1.0000
  C   C33       1.0  0.19825  0.35545  0.85707  1.0000
  C   C34       1.0  0.19810999999999998  0.31314  0.81543  1.0000
  C   C35       1.0  0.80175  0.35545  0.14293  1.0000
  C   C36       1.0  0.80189  0.31314  0.18458  1.0000
  C   C37       1.0  0.80175  0.64455  0.85707  1.0000
  C   C38       1.0  0.80189  0.68686  0.81543  1.0000
  C   C39       1.0  0.19825  0.64455  0.14293  1.0000
  C   C40       1.0  0.1981  0.68686  0.18456999999999998  1.0000
  C   C41       1.0  0.35545  0.14293  0.80175  1.0000
  C   C42       1.0  0.31314  0.18456999999999998  0.80189  1.0000
  C   C43       1.0  0.35545  0.85708  0.19825  1.0000
  C   C44       1.0  0.31314  0.81543  0.1981  1.0000
  C   C45       1.0  0.64455  0.14293  0.19825  1.0000
  C   C46       1.0  0.68686  0.18458  0.19810999999999998  1.0000
  C   C47       1.0  0.64455  0.85707  0.80175  1.0000
  C   C48       1.0  0.68686  0.81543  0.80189  1.0000
  C   C49       1.0  0.30175  0.35706999999999994  0.14455  1.0000
  C   C50       1.0  0.30189  0.31543  0.18686  1.0000
  C   C51       1.0  0.69825  0.64293  0.14455  1.0000
  C   C52       1.0  0.6981099999999999  0.6845699999999999  0.18686  1.0000
  C   C53       1.0  0.69825  0.35706999999999994  0.85545  1.0000
  C   C54       1.0  0.69812  0.31542  0.81314  1.0000
  C   C55       1.0  0.30175  0.64293  0.85545  1.0000
  C   C56       1.0  0.30189  0.6845699999999999  0.81314  1.0000
  C   C57       1.0  0.14455  0.30175  0.35706999999999994  1.0000
  C   C58       1.0  0.18686  0.30189  0.31543  1.0000
  C   C59       1.0  0.14455  0.69825  0.64293  1.0000
  C   C60       1.0  0.18686  0.6981099999999999  0.6845699999999999  1.0000
  C   C61       1.0  0.85545  0.69825  0.35706999999999994  1.0000
  C   C62       1.0  0.81314  0.6981099999999999  0.31543  1.0000
  C   C63       1.0  0.85545  0.30175  0.64293  1.0000
  C   C64       1.0  0.81314  0.30189  0.68458  1.0000
  C   C65       1.0  0.35706999999999994  0.14455  0.30175  1.0000
  C   C66       1.0  0.31543  0.18686  0.30189  1.0000
  C   C67       1.0  0.64293  0.14455  0.69825  1.0000
  C   C68       1.0  0.68458  0.18686  0.69812  1.0000
  C   C69       1.0  0.35706999999999994  0.85545  0.69825  1.0000
  C   C70       1.0  0.31543  0.81314  0.6981099999999999  1.0000
  C   C71       1.0  0.64293  0.85545  0.30175  1.0000
  C   C72       1.0  0.6845699999999999  0.81314  0.30189  1.0000
  C   C73       1.0  0.85707  0.80175  0.35545  1.0000
  C   C74       1.0  0.81543  0.80189  0.31314  1.0000
  C   C75       1.0  0.14293  0.19825  0.35545  1.0000
  C   C76       1.0  0.18456999999999998  0.19810999999999998  0.31314  1.0000
  C   C77       1.0  0.85707  0.19825  0.64455  1.0000
  C   C78       1.0  0.81543  0.19810999999999998  0.68686  1.0000
  C   C79       1.0  0.14293  0.80175  0.64455  1.0000
  C   C80       1.0  0.18456999999999998  0.80189  0.68686  1.0000
  C   C81       1.0  0.80175  0.64455  0.14293  1.0000
  C   C82       1.0  0.80189  0.68686  0.18456999999999998  1.0000
  C   C83       1.0  0.19825  0.64455  0.85707  1.0000
  C   C84       1.0  0.19810999999999998  0.68686  0.81543  1.0000
  C   C85       1.0  0.19825  0.35545  0.14293  1.0000
  C   C86       1.0  0.19810999999999998  0.31314  0.18456999999999998  1.0000
  C   C87       1.0  0.80175  0.35545  0.85707  1.0000
  C   C88       1.0  0.8019  0.31314  0.81543  1.0000
  C   C89       1.0  0.64455  0.85707  0.19825  1.0000
  C   C90       1.0  0.68686  0.81543  0.19810999999999998  1.0000
  C   C91       1.0  0.64455  0.14293  0.80175  1.0000
  C   C92       1.0  0.68686  0.18456999999999998  0.8019  1.0000
  C   C93       1.0  0.35545  0.85707  0.80175  1.0000
  C   C94       1.0  0.31314  0.81543  0.80189  1.0000
  C   C95       1.0  0.35545  0.14293  0.19825  1.0000
  C   C96       1.0  0.31314  0.18456999999999998  0.19810999999999998  1.0000
  C   C97       1.0  0.75  0.57733  0.92267  1.0000
  C   C98       1.0  0.75  0.62224  0.87776  1.0000
  C   C99       1.0  0.75  0.70718  0.79282  1.0000
  C   C100      1.0  0.25  0.42267000000000005  0.92267  1.0000
  C   C101      1.0  0.25  0.37776  0.87776  1.0000
  C   C102      1.0  0.25  0.29282  0.79282  1.0000
  C   C103      1.0  0.25  0.57733  0.07733  1.0000
  C   C104      1.0  0.25  0.62224  0.12224  1.0000
  C   C105      1.0  0.24998999999999996  0.7071899999999999  0.20718000000000003  1.0000
  C   C106      1.0  0.75  0.42267000000000005  0.07733  1.0000
  C   C107      1.0  0.75  0.37776  0.12224  1.0000
  C   C108      1.0  0.75  0.29282  0.20719  1.0000
  C   C109      1.0  0.92267  0.75  0.57733  1.0000
  C   C110      1.0  0.87776  0.75  0.62224  1.0000
  C   C111      1.0  0.79282  0.75  0.70718  1.0000
  C   C112      1.0  0.92267  0.25  0.42267000000000005  1.0000
  C   C113      1.0  0.87776  0.25  0.37776  1.0000
  C   C114      1.0  0.79282  0.25001  0.29282  1.0000
  C   C115      1.0  0.07733  0.25  0.57733  1.0000
  C   C116      1.0  0.12224  0.25  0.62224  1.0000
  C   C117      1.0  0.20718000000000003  0.25  0.7071899999999999  1.0000
  C   C118      1.0  0.07733  0.75  0.42267000000000005  1.0000
  C   C119      1.0  0.12224  0.75  0.37776  1.0000
  C   C120      1.0  0.20718000000000003  0.75001  0.29281  1.0000
  C   C121      1.0  0.57733  0.92267  0.75  1.0000
  C   C122      1.0  0.62225  0.87776  0.75  1.0000
  C   C123      1.0  0.70718  0.79282  0.75  1.0000
  C   C124      1.0  0.42267000000000005  0.92267  0.25  1.0000
  C   C125      1.0  0.37776  0.87776  0.25  1.0000
  C   C126      1.0  0.29281  0.79282  0.24998999999999996  1.0000
  C   C127      1.0  0.57733  0.07733  0.25  1.0000
  C   C128      1.0  0.62225  0.12224  0.25  1.0000
  C   C129      1.0  0.70718  0.20719  0.25001  1.0000
  C   C130      1.0  0.42267000000000005  0.07733  0.75  1.0000
  C   C131      1.0  0.37776  0.12224  0.75  1.0000
  C   C132      1.0  0.29282  0.20718000000000003  0.75001  1.0000
  C   C133      1.0  0.25  0.42267000000000005  0.07733  1.0000
  C   C134      1.0  0.25  0.37776  0.12224  1.0000
  C   C135      1.0  0.25  0.29282  0.20718000000000003  1.0000
  C   C136      1.0  0.75  0.57733  0.07733  1.0000
  C   C137      1.0  0.75  0.62224  0.12224  1.0000
  C   C138      1.0  0.75  0.70718  0.20718000000000003  1.0000
  C   C139      1.0  0.75  0.42267000000000005  0.92267  1.0000
  C   C140      1.0  0.75  0.37776  0.87776  1.0000
  C   C141      1.0  0.75001  0.29282  0.79282  1.0000
  C   C142      1.0  0.25  0.57733  0.92267  1.0000
  C   C143      1.0  0.25  0.62224  0.87776  1.0000
  C   C144      1.0  0.25  0.70718  0.79282  1.0000
  C   C145      1.0  0.07733  0.25  0.42267000000000005  1.0000
  C   C146      1.0  0.12224  0.25  0.37776  1.0000
  C   C147      1.0  0.20718000000000003  0.25  0.29282  1.0000
  C   C148      1.0  0.07733  0.75  0.57733  1.0000
  C   C149      1.0  0.12224  0.75  0.62224  1.0000
  C   C150      1.0  0.20718000000000003  0.75  0.70718  1.0000
  C   C151      1.0  0.92267  0.75  0.42267000000000005  1.0000
  C   C152      1.0  0.87776  0.75  0.37776  1.0000
  C   C153      1.0  0.79282  0.75  0.29282  1.0000
  C   C154      1.0  0.92267  0.25  0.57733  1.0000
  C   C155      1.0  0.87776  0.25  0.62224  1.0000
  C   C156      1.0  0.79282  0.25  0.7071899999999999  1.0000
  C   C157      1.0  0.42267000000000005  0.07733  0.25  1.0000
  C   C158      1.0  0.37776  0.12224  0.25  1.0000
  C   C159      1.0  0.29282  0.20718000000000003  0.25  1.0000
  C   C160      1.0  0.57733  0.07733  0.75  1.0000
  C   C161      1.0  0.62224  0.12224  0.75  1.0000
  C   C162      1.0  0.7071899999999999  0.20718000000000003  0.75001  1.0000
  C   C163      1.0  0.42267000000000005  0.92267  0.75  1.0000
  C   C164      1.0  0.37776  0.87776  0.75  1.0000
  C   C165      1.0  0.29282  0.79282  0.75  1.0000
  C   C166      1.0  0.57733  0.92267  0.25  1.0000
  C   C167      1.0  0.62224  0.87776  0.25  1.0000
  C   C168      1.0  0.70718  0.79282  0.25  1.0000
  N   N1        1.0  0.75  0.75  0.75  1.0000
  N   N2        1.0  0.25  0.25  0.75  1.0000
  N   N3        1.0  0.25  0.75001  0.25  1.0000
  N   N4        1.0  0.75  0.25  0.25  1.0000
  N   N5        1.0  0.25  0.25  0.25  1.0000
  N   N6        1.0  0.75  0.75  0.25  1.0000
  N   N7        1.0  0.75  0.25  0.75  1.0000
  N   N8        1.0  0.25  0.75  0.75  1.0000
  O   O1        1.0  0.7011700000000001  0.5597  0.94031  1.0000
  O   O2        1.0  0.29883  0.44029999999999997  0.94031  1.0000
  O   O3        1.0  0.29884  0.55971  0.05969  1.0000
  O   O4        1.0  0.7011700000000001  0.44029999999999997  0.05969  1.0000
  O   O5        1.0  0.94031  0.7011700000000001  0.5597  1.0000
  O   O6        1.0  0.94031  0.29883  0.44029999999999997  1.0000
  O   O7        1.0  0.05969  0.29883  0.55971  1.0000
  O   O8        1.0  0.05969  0.7011700000000001  0.44029999999999997  1.0000
  O   O9        1.0  0.55971  0.94031  0.7011700000000001  1.0000
  O   O10       1.0  0.44029999999999997  0.94031  0.29884  1.0000
  O   O11       1.0  0.5597  0.05969  0.29883  1.0000
  O   O12       1.0  0.44029999999999997  0.05969  0.7011700000000001  1.0000
  O   O13       1.0  0.05970000000000001  0.20117  0.55969  1.0000
  O   O14       1.0  0.9403  0.79883  0.55969  1.0000
  O   O15       1.0  0.05970000000000001  0.79883  0.4403099999999999  1.0000
  O   O16       1.0  0.9403  0.20117  0.4403099999999999  1.0000
  O   O17       1.0  0.20117  0.4403099999999999  0.9403  1.0000
  O   O18       1.0  0.79883  0.4403099999999999  0.05970000000000001  1.0000
  O   O19       1.0  0.79883  0.55969  0.9403  1.0000
  O   O20       1.0  0.20117  0.55969  0.05970000000000001  1.0000
  O   O21       1.0  0.4403099999999999  0.05970000000000001  0.79883  1.0000
  O   O22       1.0  0.4403099999999999  0.9403  0.20117  1.0000
  O   O23       1.0  0.55969  0.05970000000000001  0.20117  1.0000
  O   O24       1.0  0.55969  0.9403  0.79883  1.0000
  O   O25       1.0  0.29883  0.44029999999999997  0.05969  1.0000
  O   O26       1.0  0.7011700000000001  0.5597  0.05969  1.0000
  O   O27       1.0  0.7011700000000001  0.44029999999999997  0.94031  1.0000
  O   O28       1.0  0.29883  0.5597  0.94031  1.0000
  O   O29       1.0  0.05969  0.29883  0.44029999999999997  1.0000
  O   O30       1.0  0.05969  0.7011700000000001  0.5597  1.0000
  O   O31       1.0  0.94031  0.7011700000000001  0.44029999999999997  1.0000
  O   O32       1.0  0.94031  0.29883  0.55971  1.0000
  O   O33       1.0  0.44029999999999997  0.05969  0.29883  1.0000
  O   O34       1.0  0.55971  0.05969  0.7011700000000001  1.0000
  O   O35       1.0  0.44029999999999997  0.94031  0.7011700000000001  1.0000
  O   O36       1.0  0.5597  0.94031  0.29883  1.0000
  O   O37       1.0  0.9403  0.79883  0.4403099999999999  1.0000
  O   O38       1.0  0.05970000000000001  0.20117  0.4403099999999999  1.0000
  O   O39       1.0  0.9403  0.20117  0.55969  1.0000
  O   O40       1.0  0.05970000000000001  0.79883  0.55969  1.0000
  O   O41       1.0  0.79883  0.55969  0.05970000000000001  1.0000
  O   O42       1.0  0.20117  0.55969  0.9403  1.0000
  O   O43       1.0  0.20117  0.4403099999999999  0.05970000000000001  1.0000
  O   O44       1.0  0.79883  0.4403099999999999  0.9403  1.0000
  O   O45       1.0  0.55969  0.9403  0.20117  1.0000
  O   O46       1.0  0.55969  0.05970000000000001  0.79883  1.0000
  O   O47       1.0  0.4403099999999999  0.9403  0.79883  1.0000
  O   O48       1.0  0.4403099999999999  0.05970000000000001  0.20117  1.0000
