data_image0
_chemical_formula_structural       Cd12H48C120O48
_chemical_formula_sum              "Cd12 H48 C120 O48"
_cell_length_a       20.24055
_cell_length_b       20.38168
_cell_length_c       20.40784
_cell_angle_alpha    70.8704
_cell_angle_beta     70.1207
_cell_angle_gamma    70.12529

_space_group_name_H-M_alt    "P 1"
_space_group_IT_number       1

loop_
  _space_group_symop_operation_xyz
  'x, y, z'

loop_
  _atom_site_type_symbol
  _atom_site_label
  _atom_site_symmetry_multiplicity
  _atom_site_fract_x
  _atom_site_fract_y
  _atom_site_fract_z
  _atom_site_occupancy
  Cd  Cd1       1.0  0.13809999999999995  0.7097100000000003  0.96539  1.0000
  Cd  Cd2       1.0  0.03600999999999994  0.80469  0.85857  1.0000
  Cd  Cd3       1.0  0.29938999999999993  0.5330200000000002  0.36202  1.0000
  Cd  Cd4       1.0  0.36038  0.03511000000000001  0.29116  1.0000
  Cd  Cd5       1.0  0.46372  0.14075  0.19615  1.0000
  Cd  Cd6       1.0  0.20108000000000004  0.63889  0.46736  1.0000
  Cd  Cd7       1.0  0.8619099999999998  0.29029000000000005  0.03461  1.0000
  Cd  Cd8       1.0  0.96399  0.19531000000000007  0.14143  1.0000
  Cd  Cd9       1.0  0.70062  0.4669800000000001  0.63797  1.0000
  Cd  Cd10      1.0  0.63962  0.96489  0.70883  1.0000
  Cd  Cd11      1.0  0.53628  0.8592500000000001  0.80385  1.0000
  Cd  Cd12      1.0  0.7989199999999999  0.36110999999999993  0.53263  1.0000
  H   H1        1.0  0.3036399999999999  0.8331300000000003  0.85178  1.0000
  H   H2        1.0  0.33611  0.03685000000000001  0.71511  1.0000
  H   H3        1.0  0.1268899999999999  0.9917700000000003  0.77314  1.0000
  H   H4        1.0  0.28826  0.09516999999999999  0.60502  1.0000
  H   H5        1.0  0.11068000000000003  0.28511999999999993  0.59  1.0000
  H   H6        1.0  0.09718999999999996  0.11395999999999999  0.78173  1.0000
  H   H7        1.0  0.2751199999999999  0.12636000000000006  0.48017999999999994  1.0000
  H   H8        1.0  0.34630999999999995  0.3051400000000001  0.32123  1.0000
  H   H9        1.0  0.22060999999999997  0.33045  0.53259  1.0000
  H   H10       1.0  0.9869599999999997  0.2784000000000001  0.6226  1.0000
  H   H11       1.0  0.82444  0.35036000000000006  0.80259  1.0000
  H   H12       1.0  0.035759999999999986  0.22088000000000002  0.82775  1.0000
  H   H13       1.0  0.19695  0.14785000000000004  0.16744  1.0000
  H   H14       1.0  0.16370999999999997  0.2835600000000001  0.9639200000000001  1.0000
  H   H15       1.0  0.37293  0.22742000000000004  0.00841  1.0000
  H   H16       1.0  0.21118000000000006  0.39502000000000004  0.9052299999999999  1.0000
  H   H17       1.0  0.38856999999999997  0.40956  0.71533  1.0000
  H   H18       1.0  0.4023  0.21801  0.8867  1.0000
  H   H19       1.0  0.2249399999999999  0.5202000000000001  0.8738  1.0000
  H   H20       1.0  0.15360999999999983  0.6792800000000002  0.69539  1.0000
  H   H21       1.0  0.27786999999999995  0.46729000000000004  0.67028  1.0000
  H   H22       1.0  0.51202  0.37720000000000015  0.72192  1.0000
  H   H23       1.0  0.67493  0.19729000000000008  0.64993  1.0000
  H   H24       1.0  0.46419999999999995  0.17123  0.78059  1.0000
  H   H25       1.0  0.6963599999999999  0.16686999999999996  0.14822  1.0000
  H   H26       1.0  0.6638899999999999  0.96315  0.28489  1.0000
  H   H27       1.0  0.87311  0.00823  0.22685  1.0000
  H   H28       1.0  0.7117399999999999  0.9048300000000001  0.39498  1.0000
  H   H29       1.0  0.88932  0.7148800000000001  0.40999  1.0000
  H   H30       1.0  0.90281  0.88604  0.21827000000000002  1.0000
  H   H31       1.0  0.72488  0.8736400000000001  0.51982  1.0000
  H   H32       1.0  0.65369  0.6948600000000001  0.67877  1.0000
  H   H33       1.0  0.7793899999999999  0.6695500000000002  0.46740000000000004  1.0000
  H   H34       1.0  0.013040000000000005  0.7216000000000002  0.3774  1.0000
  H   H35       1.0  0.17557000000000003  0.6496400000000001  0.19741  1.0000
  H   H36       1.0  0.96424  0.77912  0.17225  1.0000
  H   H37       1.0  0.8030500000000007  0.85216  0.83256  1.0000
  H   H38       1.0  0.8363  0.71645  0.03608  1.0000
  H   H39       1.0  0.6270699999999997  0.7725800000000004  0.99159  1.0000
  H   H40       1.0  0.7888199999999999  0.60498  0.09477  1.0000
  H   H41       1.0  0.6114399999999999  0.59044  0.28467  1.0000
  H   H42       1.0  0.5977  0.78199  0.1133  1.0000
  H   H43       1.0  0.77506  0.4798  0.1262  1.0000
  H   H44       1.0  0.84639  0.32072  0.30461  1.0000
  H   H45       1.0  0.7221300000000002  0.53271  0.32971  1.0000
  H   H46       1.0  0.48797999999999986  0.6228000000000001  0.27807  1.0000
  H   H47       1.0  0.32506999999999997  0.80271  0.35007  1.0000
  H   H48       1.0  0.5357999999999999  0.8287700000000001  0.21941000000000002  1.0000
  C   C1        1.0  0.16238999999999992  0.8568800000000001  0.85303  1.0000
  C   C2        1.0  0.20997000000000002  0.9075700000000001  0.81619  1.0000
  C   C3        1.0  0.28206  0.8860300000000001  0.8205  1.0000
  C   C4        1.0  0.3270399999999997  0.93284  0.78376  1.0000
  C   C5        1.0  0.30010999999999993  0.0012900000000000123  0.74284  1.0000
  C   C6        1.0  0.2273399999999999  0.02393000000000002  0.73934  1.0000
  C   C7        1.0  0.18294999999999995  0.9762800000000003  0.77615  1.0000
  C   C8        1.0  0.40350999999999987  0.9088600000000001  0.78958  1.0000
  C   C9        1.0  0.1964499999999999  0.09654000000000001  0.69818  1.0000
  C   C10       1.0  0.23457000000000003  0.12577  0.62887  1.0000
  C   C11       1.0  0.20395  0.19373  0.58964  1.0000
  C   C12       1.0  0.13453000000000004  0.23254000000000002  0.62052  1.0000
  C   C13       1.0  0.09540999999999993  0.2043500000000001  0.68969  1.0000
  C   C14       1.0  0.12709  0.13643999999999998  0.72806  1.0000
  C   C15       1.0  0.24334999999999996  0.22427  0.5159  1.0000
  C   C16       1.0  0.27753999999999995  0.18197  0.46559999999999996  1.0000
  C   C17       1.0  0.31389  0.21095  0.39542  1.0000
  C   C18       1.0  0.31767  0.28243  0.37526  1.0000
  C   C19       1.0  0.28395  0.3250000000000001  0.42513  1.0000
  C   C20       1.0  0.24626000000000003  0.2963  0.49476000000000003  1.0000
  C   C21       1.0  0.3483100000000001  0.16561  0.34199  1.0000
  C   C22       1.0  0.28955000000000003  0.40053  0.40401  1.0000
  C   C23       1.0  0.02118999999999998  0.24488000000000001  0.72094  1.0000
  C   C24       1.0  0.9715899999999998  0.28074000000000005  0.67846  1.0000
  C   C25       1.0  0.9009  0.31851  0.70748  1.0000
  C   C26       1.0  0.87909  0.32119  0.77964  1.0000
  C   C27       1.0  0.9279499999999999  0.2854499999999999  0.82256  1.0000
  C   C28       1.0  0.9985399999999998  0.24740000000000004  0.79339  1.0000
  C   C29       1.0  0.9047799999999999  0.28780000000000006  0.89951  1.0000
  C   C30       1.0  0.84806  0.35466999999999993  0.66208  1.0000
  C   C31       1.0  0.33762999999999993  0.14704  0.14332  1.0000
  C   C32       1.0  0.29017  0.18382000000000007  0.09261  1.0000
  C   C33       1.0  0.21816999999999998  0.17919000000000002  0.11448  1.0000
  C   C34       1.0  0.17303  0.21555999999999997  0.0679  1.0000
  C   C35       1.0  0.19976999999999998  0.25643  0.99939  1.0000
  C   C36       1.0  0.2723699999999999  0.2604700000000001  0.9765100000000001  1.0000
  C   C37       1.0  0.31697  0.22401000000000004  0.02397  1.0000
  C   C38       1.0  0.09675999999999996  0.20919000000000004  0.0922  1.0000
  C   C39       1.0  0.30297000000000013  0.30168  0.90389  1.0000
  C   C40       1.0  0.26484  0.3710700000000002  0.87467  1.0000
  C   C41       1.0  0.2953799999999999  0.41026  0.80667  1.0000
  C   C42       1.0  0.36476  0.37914  0.76795  1.0000
  C   C43       1.0  0.4039299999999999  0.3099200000000001  0.79623  1.0000
  C   C44       1.0  0.37231000000000003  0.27165  0.8641199999999999  1.0000
  C   C45       1.0  0.25600000000000006  0.48421  0.77614  1.0000
  C   C46       1.0  0.22211000000000003  0.53468  0.81837  1.0000
  C   C47       1.0  0.18569  0.60496  0.78947  1.0000
  C   C48       1.0  0.18219  0.62516  0.71799  1.0000
  C   C49       1.0  0.21558000000000002  0.57526  0.67545  1.0000
  C   C50       1.0  0.2528  0.50534  0.70424  1.0000
  C   C51       1.0  0.15035000000000004  0.6586700000000001  0.83457  1.0000
  C   C52       1.0  0.20980000000000013  0.59664  0.60002  1.0000
  C   C53       1.0  0.4781499999999999  0.27854000000000007  0.75585  1.0000
  C   C54       1.0  0.52755  0.3212200000000001  0.71975  1.0000
  C   C55       1.0  0.5981900000000002  0.29230999999999996  0.68183  1.0000
  C   C56       1.0  0.6202999999999999  0.22003  0.67931  1.0000
  C   C57       1.0  0.57175  0.17678  0.71563  1.0000
  C   C58       1.0  0.5011499999999999  0.20586000000000004  0.7537  1.0000
  C   C59       1.0  0.59555  0.09965  0.71339  1.0000
  C   C60       1.0  0.65066  0.33807  0.64533  1.0000
  C   C61       1.0  0.8376099999999997  0.14312000000000005  0.14697  1.0000
  C   C62       1.0  0.7900399999999999  0.09244000000000002  0.18381  1.0000
  C   C63       1.0  0.71794  0.11397000000000002  0.17949  1.0000
  C   C64       1.0  0.67296  0.06716000000000003  0.21623999999999996  1.0000
  C   C65       1.0  0.69989  0.9987200000000002  0.25716  1.0000
  C   C66       1.0  0.7726599999999998  0.97607  0.26066  1.0000
  C   C67       1.0  0.8170500000000002  0.023720000000000022  0.22384999999999997  1.0000
  C   C68       1.0  0.59649  0.09113999999999998  0.21042  1.0000
  C   C69       1.0  0.8035499999999999  0.9034600000000003  0.30182  1.0000
  C   C70       1.0  0.7654300000000002  0.8742399999999998  0.37113  1.0000
  C   C71       1.0  0.79605  0.80627  0.41036  1.0000
  C   C72       1.0  0.86547  0.76747  0.37948  1.0000
  C   C73       1.0  0.9045899999999999  0.7956500000000003  0.31031  1.0000
  C   C74       1.0  0.8729199999999998  0.8635600000000001  0.27194  1.0000
  C   C75       1.0  0.7566499999999998  0.7757400000000003  0.4840999999999999  1.0000
  C   C76       1.0  0.7224600000000002  0.8180300000000001  0.5344  1.0000
  C   C77       1.0  0.6861100000000002  0.78905  0.60458  1.0000
  C   C78       1.0  0.6823399999999997  0.71757  0.62474  1.0000
  C   C79       1.0  0.7160499999999999  0.6750100000000002  0.57487  1.0000
  C   C80       1.0  0.7537400000000001  0.7037  0.50524  1.0000
  C   C81       1.0  0.65169  0.8343900000000002  0.65801  1.0000
  C   C82       1.0  0.71045  0.5994700000000001  0.59599  1.0000
  C   C83       1.0  0.97881  0.75512  0.27905  1.0000
  C   C84       1.0  0.028410000000000043  0.71926  0.32154  1.0000
  C   C85       1.0  0.0991  0.68149  0.29251  1.0000
  C   C86       1.0  0.12091999999999997  0.6788100000000001  0.22034999999999996  1.0000
  C   C87       1.0  0.07205000000000003  0.71455  0.17744  1.0000
  C   C88       1.0  0.0014599999999999355  0.7526000000000003  0.2066  1.0000
  C   C89       1.0  0.09521999999999999  0.7122  0.10048  1.0000
  C   C90       1.0  0.15194  0.64533  0.33792  1.0000
  C   C91       1.0  0.6623799999999999  0.8529600000000002  0.85668  1.0000
  C   C92       1.0  0.70984  0.8161800000000001  0.9073799999999999  1.0000
  C   C93       1.0  0.7818300000000001  0.82081  0.88552  1.0000
  C   C94       1.0  0.82697  0.78444  0.9320999999999999  1.0000
  C   C95       1.0  0.8002299999999999  0.74357  0.0006  1.0000
  C   C96       1.0  0.72763  0.73953  0.02349  1.0000
  C   C97       1.0  0.6830299999999997  0.7759900000000001  0.9760300000000001  1.0000
  C   C98       1.0  0.9032399999999999  0.7908100000000001  0.9078  1.0000
  C   C99       1.0  0.6970299999999998  0.6983200000000003  0.0961  1.0000
  C   C100      1.0  0.7351700000000001  0.6289300000000001  0.12533  1.0000
  C   C101      1.0  0.7046300000000001  0.58974  0.19333  1.0000
  C   C102      1.0  0.63524  0.62086  0.23204  1.0000
  C   C103      1.0  0.5960800000000002  0.69008  0.20377  1.0000
  C   C104      1.0  0.62769  0.72835  0.13587  1.0000
  C   C105      1.0  0.7440000000000001  0.51579  0.22384999999999997  1.0000
  C   C106      1.0  0.7778900000000001  0.46532  0.18162  1.0000
  C   C107      1.0  0.8143099999999999  0.39504  0.21053  1.0000
  C   C108      1.0  0.8178199999999998  0.3748500000000002  0.282  1.0000
  C   C109      1.0  0.78442  0.4247400000000001  0.32455  1.0000
  C   C110      1.0  0.7471999999999999  0.49466000000000004  0.29576  1.0000
  C   C111      1.0  0.8496500000000001  0.34133  0.16543  1.0000
  C   C112      1.0  0.7902  0.40337  0.39998  1.0000
  C   C113      1.0  0.52185  0.72146  0.24415000000000003  1.0000
  C   C114      1.0  0.4724499999999998  0.6787800000000002  0.28025  1.0000
  C   C115      1.0  0.40182  0.70769  0.31817  1.0000
  C   C116      1.0  0.37969999999999987  0.7799700000000004  0.32069  1.0000
  C   C117      1.0  0.42825999999999975  0.8232300000000002  0.28437  1.0000
  C   C118      1.0  0.49885  0.79414  0.24629  1.0000
  C   C119      1.0  0.40445  0.90035  0.2866  1.0000
  C   C120      1.0  0.34933999999999993  0.6619300000000001  0.35467  1.0000
  O   O1        1.0  0.09766999999999991  0.8792100000000002  0.8443  1.0000
  O   O2        1.0  0.18974999999999992  0.7956800000000004  0.88964  1.0000
  O   O3        1.0  0.42373000000000005  0.84727  0.83152  1.0000
  O   O4        1.0  0.4471899999999999  0.9487100000000003  0.75378  1.0000
  O   O5        1.0  0.34112  0.10106000000000001  0.3637  1.0000
  O   O6        1.0  0.38174  0.19434  0.27942  1.0000
  O   O7        1.0  0.32986  0.4230300000000001  0.34184  1.0000
  O   O8        1.0  0.25462  0.44132  0.44769999999999993  1.0000
  O   O9        1.0  0.9494100000000001  0.2528699999999999  0.9387400000000001  1.0000
  O   O10       1.0  0.8406299999999999  0.32457  0.9249700000000001  1.0000
  O   O11       1.0  0.7851900000000002  0.3893400000000001  0.69116  1.0000
  O   O12       1.0  0.8705  0.34758999999999995  0.59716  1.0000
  O   O13       1.0  0.4023999999999999  0.15566  0.12109  1.0000
  O   O14       1.0  0.3101199999999999  0.11050000000000001  0.2044  1.0000
  O   O15       1.0  0.07610999999999998  0.16886000000000007  0.15467  1.0000
  O   O16       1.0  0.05358000000000001  0.24315  0.05151  1.0000
  O   O17       1.0  0.15597  0.63714  0.89958  1.0000
  O   O18       1.0  0.11746999999999992  0.7212300000000004  0.80514  1.0000
  O   O19       1.0  0.17034999999999995  0.6592900000000004  0.57732  1.0000
  O   O20       1.0  0.2437299999999999  0.5525500000000001  0.55951  1.0000
  O   O21       1.0  0.5522700000000001  0.05916999999999999  0.74947  1.0000
  O   O22       1.0  0.65929  0.07517999999999998  0.67526  1.0000
  O   O23       1.0  0.71351  0.30914  0.61049  1.0000
  O   O24       1.0  0.6278900000000001  0.40308000000000005  0.65243  1.0000
  O   O25       1.0  0.90233  0.12078999999999998  0.1557  1.0000
  O   O26       1.0  0.8102499999999999  0.20432000000000006  0.11036  1.0000
  O   O27       1.0  0.57627  0.15273  0.16848  1.0000
  O   O28       1.0  0.55281  0.05129000000000001  0.24622  1.0000
  O   O29       1.0  0.6588800000000002  0.89894  0.63629  1.0000
  O   O30       1.0  0.61826  0.8056600000000002  0.72058  1.0000
  O   O31       1.0  0.6701399999999998  0.57697  0.65816  1.0000
  O   O32       1.0  0.74538  0.55868  0.5523  1.0000
  O   O33       1.0  0.05058999999999999  0.74713  0.06125  1.0000
  O   O34       1.0  0.15936999999999998  0.67543  0.07502  1.0000
  O   O35       1.0  0.21482  0.61066  0.30884  1.0000
  O   O36       1.0  0.12950000000000006  0.65241  0.40284  1.0000
  O   O37       1.0  0.5976100000000001  0.8443399999999998  0.8789  1.0000
  O   O38       1.0  0.68988  0.8894999999999998  0.7956  1.0000
  O   O39       1.0  0.9239  0.8311400000000001  0.84532  1.0000
  O   O40       1.0  0.94643  0.75685  0.94849  1.0000
  O   O41       1.0  0.84403  0.36287  0.10042  1.0000
  O   O42       1.0  0.88253  0.27877  0.19485  1.0000
  O   O43       1.0  0.8296599999999998  0.3407200000000001  0.42267  1.0000
  O   O44       1.0  0.7562699999999999  0.4474500000000001  0.44048999999999994  1.0000
  O   O45       1.0  0.44773999999999997  0.94083  0.25052  1.0000
  O   O46       1.0  0.34071000000000007  0.92482  0.32474  1.0000
  O   O47       1.0  0.28648999999999997  0.6908600000000003  0.3895  1.0000
  O   O48       1.0  0.3721099999999999  0.5969200000000002  0.34757  1.0000
