data_image0
_chemical_formula_structural       Mn4H100C156N4O24
_chemical_formula_sum              "Mn4 H100 C156 N4 O24"
_cell_length_a       10.37328
_cell_length_b       10.30525
_cell_length_c       36.78637
_cell_angle_alpha    89.98867
_cell_angle_beta     89.96328000000001
_cell_angle_gamma    98.90782

_space_group_name_H-M_alt    "P 1"
_space_group_IT_number       1

loop_
  _space_group_symop_operation_xyz
  'x, y, z'

loop_
  _atom_site_type_symbol
  _atom_site_label
  _atom_site_symmetry_multiplicity
  _atom_site_fract_x
  _atom_site_fract_y
  _atom_site_fract_z
  _atom_site_occupancy
  Mn  Mn1       1.0  0.71655  0.0016599999999999998  0.03199  1.0000
  Mn  Mn2       1.0  0.0031500000000000018  0.26842  0.9692199999999999  1.0000
  Mn  Mn3       1.0  0.50258  0.76878  0.53127  1.0000
  Mn  Mn4       1.0  0.21751999999999996  0.49841  0.46787999999999996  1.0000
  H   H1        1.0  0.08784000000000002  0.86833  0.24478000000000003  1.0000
  H   H2        1.0  0.402  0.1558  0.32248  1.0000
  H   H3        1.0  0.38102  0.15158  0.20442  1.0000
  H   H4        1.0  0.68972  0.72975  0.12993  1.0000
  H   H5        1.0  0.30972  0.24735999999999997  0.26896  1.0000
  H   H6        1.0  0.35825  0.71093  0.05865  1.0000
  H   H7        1.0  0.30257  0.77035  0.21908000000000002  1.0000
  H   H8        1.0  0.53277  0.83395  0.23900999999999997  1.0000
  H   H9        1.0  0.17417  0.77709  0.29913  1.0000
  H   H10       1.0  0.69818  0.00776  0.25701  1.0000
  H   H11       1.0  0.5692  0.55501  0.16822  1.0000
  H   H12       1.0  0.23517999999999997  0.53605  0.09748  1.0000
  H   H13       1.0  0.45128999999999997  0.9961799999999998  0.4361300000000001  1.0000
  H   H14       1.0  0.13423  0.48881  0.15491  1.0000
  H   H15       1.0  0.0218  0.30911  0.1925  1.0000
  H   H16       1.0  0.61805  0.04352  0.13821  1.0000
  H   H17       1.0  0.49381  0.33247  0.16663  1.0000
  H   H18       1.0  0.40149  0.09276  0.3772  1.0000
  H   H19       1.0  0.38908999999999994  0.98152  0.11898  1.0000
  H   H20       1.0  0.03275  0.03083  0.15945  1.0000
  H   H21       1.0  0.8007099999999999  0.94605  0.14543  1.0000
  H   H22       1.0  0.3193599999999999  0.60961  0.39416  1.0000
  H   H23       1.0  0.9302799999999999  0.08156  0.27127  1.0000
  H   H24       1.0  0.277  0.70359  0.33511  1.0000
  H   H25       1.0  0.07745  0.83786  0.11785000000000001  1.0000
  H   H26       1.0  0.13348  0.91115  0.75335  1.0000
  H   H27       1.0  0.83882  0.59559  0.67765  1.0000
  H   H28       1.0  0.85576  0.6209  0.7968  1.0000
  H   H29       1.0  0.28571  0.30325  0.86976  1.0000
  H   H30       1.0  0.75275  0.6921  0.73144  1.0000
  H   H31       1.0  0.27084  0.64694  0.93468  1.0000
  H   H32       1.0  0.23048999999999997  0.70183  0.78288  1.0000
  H   H33       1.0  0.16656  0.47039000000000003  0.76279  1.0000
  H   H34       1.0  0.2194  0.8186700000000001  0.69889  1.0000
  H   H35       1.0  0.99431  0.3073  0.74406  1.0000
  H   H36       1.0  0.45964  0.42677  0.83196  1.0000
  H   H37       1.0  0.45247  0.77035  0.8982900000000001  1.0000
  H   H38       1.0  0.98518  0.55966  0.56178  1.0000
  H   H39       1.0  0.51037  0.8656  0.84177  1.0000
  H   H40       1.0  0.69032  0.97853  0.8044  1.0000
  H   H41       1.0  0.95254  0.38531  0.86266  1.0000
  H   H42       1.0  0.67549  0.50783  0.83458  1.0000
  H   H43       1.0  0.8956899999999999  0.60818  0.62185  1.0000
  H   H44       1.0  0.017019999999999987  0.61501  0.88253  1.0000
  H   H45       1.0  0.9684899999999999  0.96637  0.84043  1.0000
  H   H46       1.0  0.04971  0.19979  0.85563  1.0000
  H   H47       1.0  0.37436  0.65468  0.60399  1.0000
  H   H48       1.0  0.9235299999999999  0.074  0.72869  1.0000
  H   H49       1.0  0.28698  0.70113  0.66368  1.0000
  H   H50       1.0  0.16243  0.92899  0.8839  1.0000
  H   H51       1.0  0.63309  0.4102  0.74635  1.0000
  H   H52       1.0  0.33927  0.09544  0.82257  1.0000
  H   H53       1.0  0.35492  0.12048000000000002  0.70328  1.0000
  H   H54       1.0  0.7862299999999999  0.80293  0.63055  1.0000
  H   H55       1.0  0.25262  0.19151  0.76878  1.0000
  H   H56       1.0  0.77091  0.14653  0.56539  1.0000
  H   H57       1.0  0.72778  0.20124  0.7174  1.0000
  H   H58       1.0  0.6649199999999998  0.9692599999999999  0.73731  1.0000
  H   H59       1.0  0.71957  0.31838  0.80081  1.0000
  H   H60       1.0  0.49473  0.8063999999999999  0.75601  1.0000
  H   H61       1.0  0.9594999999999998  0.9273699999999999  0.66831  1.0000
  H   H62       1.0  0.95356  0.26969  0.60162  1.0000
  H   H63       1.0  0.48527  0.06037  0.9382600000000001  1.0000
  H   H64       1.0  0.01016  0.36585  0.65828  1.0000
  H   H65       1.0  0.19025  0.47851000000000005  0.69561  1.0000
  H   H66       1.0  0.45230999999999993  0.88456  0.63726  1.0000
  H   H67       1.0  0.17446  0.00778  0.66556  1.0000
  H   H68       1.0  0.3959599999999999  0.10922000000000001  0.8782800000000001  1.0000
  H   H69       1.0  0.51662  0.11437000000000001  0.61746  1.0000
  H   H70       1.0  0.46706  0.46584  0.65954  1.0000
  H   H71       1.0  0.54853  0.69925  0.64432  1.0000
  H   H72       1.0  0.8747  0.15389  0.89587  1.0000
  H   H73       1.0  0.42429999999999995  0.57303  0.77141  1.0000
  H   H74       1.0  0.7873799999999999  0.20103  0.83622  1.0000
  H   H75       1.0  0.66171  0.42957  0.6167  1.0000
  H   H76       1.0  0.58814  0.36752  0.25516  1.0000
  H   H77       1.0  0.90227  0.65502  0.17731  1.0000
  H   H78       1.0  0.88004  0.65085  0.29551  1.0000
  H   H79       1.0  0.18881  0.2264  0.37032  1.0000
  H   H80       1.0  0.81012  0.74664  0.23087  1.0000
  H   H81       1.0  0.8569  0.20808000000000001  0.44157  1.0000
  H   H82       1.0  0.8019  0.27063  0.28108  1.0000
  H   H83       1.0  0.03209  0.33403  0.26111  1.0000
  H   H84       1.0  0.67476  0.2764  0.20086  1.0000
  H   H85       1.0  0.19744  0.50741  0.24308  1.0000
  H   H86       1.0  0.06727  0.05380999999999999  0.33165  1.0000
  H   H87       1.0  0.73334  0.0346  0.40243000000000007  1.0000
  H   H88       1.0  0.94967  0.49364  0.06342  1.0000
  H   H89       1.0  0.6325  0.9880800000000001  0.34479  1.0000
  H   H90       1.0  0.52063  0.80842  0.30712  1.0000
  H   H91       1.0  0.11767999999999999  0.54221  0.36205  1.0000
  H   H92       1.0  0.9923  0.8318200000000001  0.33336  1.0000
  H   H93       1.0  0.9008  0.5917  0.12234000000000002  1.0000
  H   H94       1.0  0.88853  0.48039  0.38135  1.0000
  H   H95       1.0  0.53238  0.52992  0.34039  1.0000
  H   H96       1.0  0.30041  0.44535  0.3546  1.0000
  H   H97       1.0  0.819  0.10796999999999998  0.10601  1.0000
  H   H98       1.0  0.42951999999999996  0.58088  0.22864000000000004  1.0000
  H   H99       1.0  0.77602  0.20309  0.16496000000000002  1.0000
  H   H100      1.0  0.57467  0.33705  0.38194  1.0000
  C   C1        1.0  0.18923  0.06516  0.25353  1.0000
  C   C2        1.0  0.29188  0.9595  0.31665  1.0000
  C   C3        1.0  0.59293  0.9410899999999999  0.1897  1.0000
  C   C4        1.0  0.32363000000000003  0.42548  0.1581  1.0000
  C   C5        1.0  0.7315100000000001  0.97508  0.19975  1.0000
  C   C6        1.0  0.15524  0.9314100000000001  0.26222  1.0000
  C   C7        1.0  0.33083  0.09178  0.30635  1.0000
  C   C8        1.0  0.32786  0.22693  0.19414  1.0000
  C   C9        1.0  0.59073  0.6865  0.12274  1.0000
  C   C10       1.0  0.39326  0.53228  0.13562  1.0000
  C   C11       1.0  0.38531999999999994  0.7959999999999999  0.41965  1.0000
  C   C12       1.0  0.33105  0.90626  0.35137  1.0000
  C   C13       1.0  0.53193  0.73099  0.0916  1.0000
  C   C14       1.0  0.2805  0.14416  0.27557  1.0000
  C   C15       1.0  0.19392  0.21884  0.20171  1.0000
  C   C16       1.0  0.40282  0.67628  0.08282  1.0000
  C   C17       1.0  0.3727599999999999  0.8306000000000001  0.20176  1.0000
  C   C18       1.0  0.50131  0.86684  0.21282  1.0000
  C   C19       1.0  0.20562999999999998  0.88037  0.29304  1.0000
  C   C20       1.0  0.77073  0.01024  0.23552  1.0000
  C   C21       1.0  0.52258  0.58823  0.1442  1.0000
  C   C22       1.0  0.33424  0.57943  0.10476  1.0000
  C   C23       1.0  0.41165  0.933  0.41385  1.0000
  C   C24       1.0  0.18901  0.41480000000000006  0.16525  1.0000
  C   C25       1.0  0.99608  0.06458  0.21599  1.0000
  C   C26       1.0  0.12532  0.3139  0.18686  1.0000
  C   C27       1.0  0.41058999999999996  0.73701  0.45482  1.0000
  C   C28       1.0  0.60292  0.8337800000000001  0.06873  1.0000
  C   C29       1.0  0.54978  0.9831799999999999  0.15602  1.0000
  C   C30       1.0  0.33183  0.87006  0.16764  1.0000
  C   C31       1.0  0.39091999999999993  0.32902  0.17291  1.0000
  C   C32       1.0  0.38415999999999995  0.98662  0.38053  1.0000
  C   C33       1.0  0.42094  0.94885  0.1451  1.0000
  C   C34       1.0  0.9589499999999999  0.02424  0.18065  1.0000
  C   C35       1.0  0.82873  0.97834  0.17289  1.0000
  C   C36       1.0  0.33639  0.71543  0.39041  1.0000
  C   C37       1.0  0.19682  0.8240199999999999  0.15598  1.0000
  C   C38       1.0  0.90142  0.05342  0.24362  1.0000
  C   C39       1.0  0.3112  0.76939  0.35724  1.0000
  C   C40       1.0  0.93634  0.8111  0.74578  1.0000
  C   C41       1.0  0.03524  0.70271  0.68265  1.0000
  C   C42       1.0  0.05696  0.41063  0.81161  1.0000
  C   C43       1.0  0.5783  0.67731  0.8408  1.0000
  C   C44       1.0  0.0233  0.27146  0.80132  1.0000
  C   C45       1.0  0.06902000000000003  0.8429900000000001  0.73643  1.0000
  C   C46       1.0  0.9041499999999999  0.66662  0.69347  1.0000
  C   C47       1.0  0.77893  0.67351  0.8062400000000001  1.0000
  C   C48       1.0  0.32313  0.40514  0.8760300000000001  1.0000
  C   C49       1.0  0.4705099999999998  0.60711  0.86271  1.0000
  C   C50       1.0  0.18606  0.60672  0.57863  1.0000
  C   C51       1.0  0.08420000000000002  0.66205  0.64753  1.0000
  C   C52       1.0  0.26854  0.46657  0.90499  1.0000
  C   C53       1.0  0.8551299999999998  0.71946  0.72433  1.0000
  C   C54       1.0  0.78449  0.80703  0.79755  1.0000
  C   C55       1.0  0.31443  0.59954  0.91242  1.0000
  C   C56       1.0  0.16915  0.63159  0.7999800000000001  1.0000
  C   C57       1.0  0.13267  0.50245  0.7888  1.0000
  C   C58       1.0  0.11692999999999998  0.7892299999999999  0.70561  1.0000
  C   C59       1.0  0.99108  0.23327  0.76528  1.0000
  C   C60       1.0  0.42141  0.4748  0.85499  1.0000
  C   C61       1.0  0.4147199999999999  0.66854  0.8917300000000001  1.0000
  C   C62       1.0  0.05041  0.5907  0.58435  1.0000
  C   C63       1.0  0.58638  0.8115700000000001  0.83247  1.0000
  C   C64       1.0  0.93845  0.005570000000000001  0.78385  1.0000
  C   C65       1.0  0.68737  0.8753400000000001  0.8110400000000001  1.0000
  C   C66       1.0  0.24518999999999996  0.58656  0.54297  1.0000
  C   C67       1.0  0.16322  0.39316000000000006  0.9271699999999999  1.0000
  C   C68       1.0  0.014150000000000001  0.45403  0.84517  1.0000
  C   C69       1.0  0.12882  0.67286  0.83399  1.0000
  C   C70       1.0  0.67712  0.61039  0.82739  1.0000
  C   C71       1.0  0.0007299999999999964  0.61775  0.61823  1.0000
  C   C72       1.0  0.04914  0.58345  0.85631  1.0000
  C   C73       1.0  0.9755999999999999  0.04171  0.81952  1.0000
  C   C74       1.0  0.01896  0.17269  0.82797  1.0000
  C   C75       1.0  0.2695699999999999  0.64623  0.60798  1.0000
  C   C76       1.0  0.17542  0.80849  0.84579  1.0000
  C   C77       1.0  0.9499799999999999  0.10196000000000001  0.75653  1.0000
  C   C78       1.0  0.21953  0.67298  0.64152  1.0000
  C   C79       1.0  0.43598999999999993  0.31054  0.75425  1.0000
  C   C80       1.0  0.5355  0.20283  0.81736  1.0000
  C   C81       1.0  0.55601  0.90981  0.68839  1.0000
  C   C82       1.0  0.07761999999999998  0.17734  0.65938  1.0000
  C   C83       1.0  0.5226399999999999  0.77069  0.69868  1.0000
  C   C84       1.0  0.56875  0.34244  0.76342  1.0000
  C   C85       1.0  0.40437  0.16645  0.80666  1.0000
  C   C86       1.0  0.27817  0.17318  0.69387  1.0000
  C   C87       1.0  0.8229  0.905  0.62426  1.0000
  C   C88       1.0  0.9701899999999999  0.10704  0.63744  1.0000
  C   C89       1.0  0.6862999999999999  0.10671  0.92136  1.0000
  C   C90       1.0  0.58456  0.16229  0.85246  1.0000
  C   C91       1.0  0.76797  0.96657  0.59537  1.0000
  C   C92       1.0  0.3550199999999999  0.21899000000000002  0.7758  1.0000
  C   C93       1.0  0.28395  0.3067  0.70255  1.0000
  C   C94       1.0  0.81403  0.09943  0.58781  1.0000
  C   C95       1.0  0.66696  0.13086  0.70026  1.0000
  C   C96       1.0  0.63113  0.0015200000000000005  0.71132  1.0000
  C   C97       1.0  0.617  0.28902  0.79423  1.0000
  C   C98       1.0  0.49107999999999996  0.73244  0.73476  1.0000
  C   C99       1.0  0.92112  0.9748400000000002  0.64523  1.0000
  C   C100      1.0  0.91486  0.16824  0.60833  1.0000
  C   C101      1.0  0.55063  0.09107  0.91567  1.0000
  C   C102      1.0  0.08595  0.31166  0.66764  1.0000
  C   C103      1.0  0.43793  0.50493  0.71617  1.0000
  C   C104      1.0  0.18705999999999995  0.37526  0.68903  1.0000
  C   C105      1.0  0.74526  0.08924  0.95715  1.0000
  C   C106      1.0  0.66271  0.89247  0.57331  1.0000
  C   C107      1.0  0.51351  0.9533  0.65481  1.0000
  C   C108      1.0  0.62683  0.17232  0.66626  1.0000
  C   C109      1.0  0.17629  0.11032000000000002  0.67276  1.0000
  C   C110      1.0  0.5010099999999998  0.11821999999999999  0.88181  1.0000
  C   C111      1.0  0.54821  0.08289  0.64375  1.0000
  C   C112      1.0  0.47457  0.54112  0.68046  1.0000
  C   C113      1.0  0.51798  0.67206  0.672  1.0000
  C   C114      1.0  0.76992  0.14557  0.89191  1.0000
  C   C115      1.0  0.67246  0.30857  0.65488  1.0000
  C   C116      1.0  0.45012  0.60114  0.74353  1.0000
  C   C117      1.0  0.7198999999999999  0.17271  0.85839  1.0000
  C   C118      1.0  0.6891  0.5645  0.24629999999999996  1.0000
  C   C119      1.0  0.792  0.45892  0.18319  1.0000
  C   C120      1.0  0.0924  0.44057  0.31047  1.0000
  C   C121      1.0  0.82188  0.92471  0.34171  1.0000
  C   C122      1.0  0.23096  0.47463  0.30033  1.0000
  C   C123      1.0  0.65537  0.43069999999999997  0.23768  1.0000
  C   C124      1.0  0.83102  0.59113  0.19347  1.0000
  C   C125      1.0  0.82681  0.72626  0.30574  1.0000
  C   C126      1.0  0.08963  0.18353  0.37746  1.0000
  C   C127      1.0  0.8914899999999998  0.03101  0.36432  1.0000
  C   C128      1.0  0.88454  0.29432  0.08045  1.0000
  C   C129      1.0  0.83071  0.40547  0.14845  1.0000
  C   C130      1.0  0.030919999999999993  0.22766999999999998  0.40863  1.0000
  C   C131      1.0  0.7806199999999999  0.64348  0.22427  1.0000
  C   C132      1.0  0.693  0.71822  0.29807  1.0000
  C   C133      1.0  0.90158  0.17363  0.41739  1.0000
  C   C134      1.0  0.8720899999999999  0.33058  0.29844  1.0000
  C   C135      1.0  0.0006900000000000048  0.36669  0.28734  1.0000
  C   C136      1.0  0.70595  0.37973  0.20687  1.0000
  C   C137      1.0  0.27005  0.50974  0.26452  1.0000
  C   C138      1.0  0.02098  0.0864  0.3558  1.0000
  C   C139      1.0  0.8326299999999999  0.07761  0.39529  1.0000
  C   C140      1.0  0.91042  0.43132999999999994  0.08593  1.0000
  C   C141      1.0  0.6873999999999999  0.9140999999999999  0.33447  1.0000
  C   C142      1.0  0.49551999999999996  0.56369  0.28386  1.0000
  C   C143      1.0  0.62408  0.8131900000000001  0.31284  1.0000
  C   C144      1.0  0.91102  0.23618  0.04534  1.0000
  C   C145      1.0  0.10234  0.3308  0.4313  1.0000
  C   C146      1.0  0.049290000000000014  0.48218000000000005  0.34423  1.0000
  C   C147      1.0  0.83104  0.3698  0.3326  1.0000
  C   C148      1.0  0.8895  0.82836  0.32698  1.0000
  C   C149      1.0  0.8834199999999999  0.4855499999999999  0.11918  1.0000
  C   C150      1.0  0.9203299999999999  0.44800000000000006  0.35519  1.0000
  C   C151      1.0  0.45852  0.52339  0.31924  1.0000
  C   C152      1.0  0.3282900000000001  0.47772000000000003  0.32712  1.0000
  C   C153      1.0  0.83557  0.21384  0.10968  1.0000
  C   C154      1.0  0.6956699999999999  0.32392  0.34411  1.0000
  C   C155      1.0  0.40075  0.55266  0.2563  1.0000
  C   C156      1.0  0.81043  0.26851  0.14276  1.0000
  N   N1        1.0  0.12845  0.1167  0.22367999999999996  1.0000
  N   N2        1.0  0.8871  0.8727100000000001  0.77578  1.0000
  N   N3        1.0  0.38663  0.37213  0.72426  1.0000
  N   N4        1.0  0.62788  0.61601  0.2761  1.0000
  O   O1        1.0  0.7142799999999999  0.90196  0.07829  1.0000
  O   O2        1.0  0.56067  0.86407  0.03714  1.0000
  O   O3        1.0  0.37657  0.61115  0.46004000000000006  1.0000
  O   O4        1.0  0.47393  0.81101  0.47909  1.0000
  O   O5        1.0  0.16736999999999994  0.8766299999999999  0.12333  1.0000
  O   O6        1.0  0.11646999999999999  0.74638  0.17271  1.0000
  O   O7        1.0  0.13697  0.26604  0.9254900000000001  1.0000
  O   O8        1.0  0.09666  0.45433  0.94904  1.0000
  O   O9        1.0  0.36971  0.61013  0.54004  1.0000
  O   O10       1.0  0.16901  0.54584  0.51617  1.0000
  O   O11       1.0  0.12326  0.83865  0.87839  1.0000
  O   O12       1.0  0.25326000000000004  0.8889900000000001  0.82912  1.0000
  O   O13       1.0  0.64276  0.76516  0.57349  1.0000
  O   O14       1.0  0.5903599999999998  0.9531899999999999  0.553  1.0000
  O   O15       1.0  0.8698799999999999  0.11045  0.9599300000000001  1.0000
  O   O16       1.0  0.66875  0.0542  0.98445  1.0000
  O   O17       1.0  0.62367  0.33856  0.6218  1.0000
  O   O18       1.0  0.7467899999999997  0.38959  0.67241  1.0000
  O   O19       1.0  0.2146  0.39681  0.42165  1.0000
  O   O20       1.0  0.05895  0.36373  0.46242000000000005  1.0000
  O   O21       1.0  0.8773199999999999  0.11047  0.03989  1.0000
  O   O22       1.0  0.97474  0.31092  0.02139  1.0000
  O   O23       1.0  0.66443  0.37668  0.37659  1.0000
  O   O24       1.0  0.61612  0.24597  0.32725  1.0000
