data_image0
_chemical_formula_structural       Zn8H56C96N40O32
_chemical_formula_sum              "Zn8 H56 C96 N40 O32"
_cell_length_a       10.68913
_cell_length_b       16.18482
_cell_length_c       19.44719
_cell_angle_alpha    90.0
_cell_angle_beta     102.33288
_cell_angle_gamma    90.0

_symmetry_space_group_name_H-M    'P 1'
_symmetry_Int_Tables_number       1

loop_
  _symmetry_equiv_pos_as_xyz
  'x,y,z'

loop_
  _atom_site_type_symbol
  _atom_site_label
  _atom_site_symmetry_multiplicity
  _atom_site_fract_x
  _atom_site_fract_y
  _atom_site_fract_z
  _atom_site_occupancy
  Zn  Zn1       1.0  0.95271  0.3435100000000001  0.9902799999999999  1.0000
  Zn  Zn2       1.0  0.9859600000000001  0.3475600000000001  0.50166  1.0000
  Zn  Zn3       1.0  0.54729  0.84351  0.00972  1.0000
  Zn  Zn4       1.0  0.51403  0.84756  0.49834  1.0000
  Zn  Zn5       1.0  0.04729  0.6564900000000002  0.00972  1.0000
  Zn  Zn6       1.0  0.014039999999999966  0.6524400000000002  0.49834  1.0000
  Zn  Zn7       1.0  0.45270999999999995  0.15649  0.9902799999999999  1.0000
  Zn  Zn8       1.0  0.48596  0.15244  0.50166  1.0000
  H   H1        1.0  0.73275  0.10273  0.0102  1.0000
  H   H2        1.0  0.8781699999999999  0.15188  0.9993799999999999  1.0000
  H   H3        1.0  0.8157799999999998  0.2138  0.85973  1.0000
  H   H4        1.0  0.82848  0.14392000000000005  0.74853  1.0000
  H   H5        1.0  0.73092  0.91387  0.83977  1.0000
  H   H6        1.0  0.72166  0.9907000000000001  0.94696  1.0000
  H   H7        1.0  0.74672  0.08088000000000002  0.6463  1.0000
  H   H8        1.0  0.08682  0.63625  0.27797  1.0000
  H   H9        1.0  0.014139999999999986  0.33716  0.23224999999999998  1.0000
  H   H10       1.0  0.78048  0.00458  0.5432  1.0000
  H   H11       1.0  0.88285  0.78879  0.66047  1.0000
  H   H12       1.0  0.84698  0.85738  0.7695899999999999  1.0000
  H   H13       1.0  0.96604  0.83768  0.5479  1.0000
  H   H14       1.0  0.8441099999999999  0.89872  0.49302  1.0000
  H   H15       1.0  0.7672399999999999  0.60274  0.98979  1.0000
  H   H16       1.0  0.62183  0.6518800000000002  0.00062  1.0000
  H   H17       1.0  0.68421  0.7138  0.14027  1.0000
  H   H18       1.0  0.67151  0.6439200000000003  0.25147  1.0000
  H   H19       1.0  0.7690799999999999  0.41387  0.16023  1.0000
  H   H20       1.0  0.77833  0.4907  0.053029999999999994  1.0000
  H   H21       1.0  0.75327  0.58088  0.3537  1.0000
  H   H22       1.0  0.41317999999999994  0.13624  0.72203  1.0000
  H   H23       1.0  0.48585999999999996  0.83717  0.76775  1.0000
  H   H24       1.0  0.71952  0.50458  0.45680000000000004  1.0000
  H   H25       1.0  0.6171400000000001  0.28879  0.33953  1.0000
  H   H26       1.0  0.65302  0.35738  0.23039999999999997  1.0000
  H   H27       1.0  0.53395  0.33768  0.45208999999999994  1.0000
  H   H28       1.0  0.6558800000000001  0.39871  0.50698  1.0000
  H   H29       1.0  0.26724  0.89727  0.98979  1.0000
  H   H30       1.0  0.12183  0.84812  0.00062  1.0000
  H   H31       1.0  0.18421  0.78621  0.14027  1.0000
  H   H32       1.0  0.17151  0.85608  0.25147  1.0000
  H   H33       1.0  0.26908  0.08613  0.16023  1.0000
  H   H34       1.0  0.27833  0.009310000000000004  0.053029999999999994  1.0000
  H   H35       1.0  0.25327  0.91913  0.3537  1.0000
  H   H36       1.0  0.9131699999999999  0.36376  0.72203  1.0000
  H   H37       1.0  0.98585  0.6628400000000002  0.76775  1.0000
  H   H38       1.0  0.21952000000000002  0.9954300000000001  0.45680000000000004  1.0000
  H   H39       1.0  0.11713999999999998  0.21121000000000006  0.33953  1.0000
  H   H40       1.0  0.15301999999999996  0.14263  0.23039999999999997  1.0000
  H   H41       1.0  0.033949999999999994  0.16232  0.45208999999999994  1.0000
  H   H42       1.0  0.15589000000000003  0.10129  0.50698  1.0000
  H   H43       1.0  0.23275999999999997  0.39727  0.0102  1.0000
  H   H44       1.0  0.37816999999999995  0.3481200000000001  0.9993799999999999  1.0000
  H   H45       1.0  0.31579  0.28621  0.85973  1.0000
  H   H46       1.0  0.32848  0.3560800000000001  0.74853  1.0000
  H   H47       1.0  0.23092000000000001  0.58613  0.83977  1.0000
  H   H48       1.0  0.22167  0.50931  0.94696  1.0000
  H   H49       1.0  0.24672999999999998  0.41913  0.6463  1.0000
  H   H50       1.0  0.5868199999999998  0.8637600000000002  0.27797  1.0000
  H   H51       1.0  0.51414  0.16284  0.23224999999999998  1.0000
  H   H52       1.0  0.28048  0.49542  0.5432  1.0000
  H   H53       1.0  0.38284999999999997  0.71121  0.66047  1.0000
  H   H54       1.0  0.34698  0.64263  0.7695899999999999  1.0000
  H   H55       1.0  0.46604000000000007  0.66232  0.5479  1.0000
  H   H56       1.0  0.34410999999999997  0.60129  0.49302  1.0000
  C   C1        1.0  0.7111999999999999  0.22669000000000006  0.9756599999999999  1.0000
  C   C2        1.0  0.7750899999999998  0.14474  0.977  1.0000
  C   C3        1.0  0.7961400000000001  0.14767  0.85235  1.0000
  C   C4        1.0  0.80311  0.10733  0.79044  1.0000
  C   C5        1.0  0.78313  0.021380000000000007  0.78354  1.0000
  C   C6        1.0  0.75266  0.9795200000000002  0.84106  1.0000
  C   C7        1.0  0.74504  0.02199  0.9018999999999999  1.0000
  C   C8        1.0  0.79703  0.9769  0.71898  1.0000
  C   C9        1.0  0.77975  0.017370000000000007  0.65388  1.0000
  C   C10       1.0  0.0706  0.53975  0.20133  1.0000
  C   C11       1.0  0.07222999999999999  0.57027  0.26884  1.0000
  C   C12       1.0  0.054069999999999986  0.51816  0.32316  1.0000
  C   C13       1.0  0.03019000000000001  0.43358  0.30887  1.0000
  C   C14       1.0  0.03208000000000001  0.40277000000000013  0.24189999999999998  1.0000
  C   C15       1.0  0.05367  0.4544100000000001  0.18806  1.0000
  C   C16       1.0  0.07902  0.6006900000000002  0.14437  1.0000
  C   C17       1.0  0.06745  0.55509  0.39531  1.0000
  C   C18       1.0  0.9985499999999999  0.3759200000000001  0.36294  1.0000
  C   C19       1.0  0.79712  0.9751200000000002  0.59463  1.0000
  C   C20       1.0  0.84953  0.8527000000000002  0.66096  1.0000
  C   C21       1.0  0.83084  0.8925900000000002  0.72087  1.0000
  C   C22       1.0  0.86396  0.85334  0.53591  1.0000
  C   C23       1.0  0.78813  0.777  0.51284  1.0000
  C   C24       1.0  0.05967999999999998  0.41571  0.11844999999999999  1.0000
  C   C25       1.0  0.7887899999999999  0.7266900000000002  0.02433  1.0000
  C   C26       1.0  0.7249  0.6447400000000002  0.02299  1.0000
  C   C27       1.0  0.70385  0.64767  0.14765  1.0000
  C   C28       1.0  0.69689  0.60733  0.20955  1.0000
  C   C29       1.0  0.71687  0.5213800000000002  0.21646000000000004  1.0000
  C   C30       1.0  0.74733  0.47952  0.15893  1.0000
  C   C31       1.0  0.75495  0.52199  0.09809  1.0000
  C   C32       1.0  0.70296  0.4768900000000001  0.28102  1.0000
  C   C33       1.0  0.7202399999999999  0.51737  0.34612  1.0000
  C   C34       1.0  0.4294  0.03975  0.79867  1.0000
  C   C35       1.0  0.42777  0.07027  0.73116  1.0000
  C   C36       1.0  0.44593  0.01815  0.67684  1.0000
  C   C37       1.0  0.46981  0.93358  0.69113  1.0000
  C   C38       1.0  0.46791999999999995  0.90277  0.7581  1.0000
  C   C39       1.0  0.44633  0.95441  0.81194  1.0000
  C   C40       1.0  0.42097  0.10069  0.85562  1.0000
  C   C41       1.0  0.4325499999999999  0.05509  0.6046899999999998  1.0000
  C   C42       1.0  0.50144  0.87592  0.63706  1.0000
  C   C43       1.0  0.70287  0.4751200000000001  0.40537  1.0000
  C   C44       1.0  0.65047  0.3527  0.33904  1.0000
  C   C45       1.0  0.66915  0.39259  0.27912999999999993  1.0000
  C   C46       1.0  0.63603  0.35334  0.46409  1.0000
  C   C47       1.0  0.7118699999999999  0.27700000000000014  0.4871599999999999  1.0000
  C   C48       1.0  0.44032  0.91571  0.88155  1.0000
  C   C49       1.0  0.28879  0.77331  0.02433  1.0000
  C   C50       1.0  0.2249  0.85527  0.02299  1.0000
  C   C51       1.0  0.20385  0.8523300000000003  0.14765  1.0000
  C   C52       1.0  0.19689  0.89267  0.20955  1.0000
  C   C53       1.0  0.21687  0.97862  0.21646000000000004  1.0000
  C   C54       1.0  0.24733  0.020490000000000008  0.15893  1.0000
  C   C55       1.0  0.25495  0.9780100000000003  0.09809  1.0000
  C   C56       1.0  0.20296  0.02311  0.28102  1.0000
  C   C57       1.0  0.22024  0.9826300000000002  0.34612  1.0000
  C   C58       1.0  0.9294  0.46026  0.79867  1.0000
  C   C59       1.0  0.9277699999999999  0.4297400000000001  0.73116  1.0000
  C   C60       1.0  0.9459299999999999  0.4818500000000001  0.67684  1.0000
  C   C61       1.0  0.9698  0.56643  0.69113  1.0000
  C   C62       1.0  0.96791  0.5972300000000003  0.7581  1.0000
  C   C63       1.0  0.94633  0.5456  0.81194  1.0000
  C   C64       1.0  0.92097  0.3993200000000001  0.85562  1.0000
  C   C65       1.0  0.93254  0.44491000000000014  0.6046899999999998  1.0000
  C   C66       1.0  0.001439999999999973  0.6240800000000002  0.63706  1.0000
  C   C67       1.0  0.20287  0.02488  0.40537  1.0000
  C   C68       1.0  0.15047  0.1473  0.33904  1.0000
  C   C69       1.0  0.16914999999999994  0.10742000000000003  0.27912999999999993  1.0000
  C   C70       1.0  0.13603  0.14666  0.46409  1.0000
  C   C71       1.0  0.21187000000000003  0.22300000000000006  0.4871599999999999  1.0000
  C   C72       1.0  0.94032  0.58429  0.88155  1.0000
  C   C73       1.0  0.21119999999999992  0.2733100000000001  0.9756599999999999  1.0000
  C   C74       1.0  0.27509  0.3552700000000001  0.977  1.0000
  C   C75       1.0  0.29614  0.3523300000000001  0.85235  1.0000
  C   C76       1.0  0.30311  0.39267  0.79044  1.0000
  C   C77       1.0  0.28313  0.4786200000000001  0.78354  1.0000
  C   C78       1.0  0.25267  0.52049  0.84106  1.0000
  C   C79       1.0  0.24503999999999998  0.47801  0.9018999999999999  1.0000
  C   C80       1.0  0.29703  0.5231100000000002  0.71898  1.0000
  C   C81       1.0  0.27975  0.48263  0.65388  1.0000
  C   C82       1.0  0.5706000000000001  0.9602600000000002  0.20133  1.0000
  C   C83       1.0  0.57223  0.92974  0.26884  1.0000
  C   C84       1.0  0.55407  0.98185  0.32316  1.0000
  C   C85       1.0  0.53019  0.06642  0.30887  1.0000
  C   C86       1.0  0.53208  0.09723  0.24189999999999998  1.0000
  C   C87       1.0  0.55367  0.04559000000000001  0.18806  1.0000
  C   C88       1.0  0.57902  0.89932  0.14437  1.0000
  C   C89       1.0  0.56745  0.9449100000000002  0.39531  1.0000
  C   C90       1.0  0.49856  0.12408000000000001  0.36294  1.0000
  C   C91       1.0  0.29713  0.52489  0.59463  1.0000
  C   C92       1.0  0.34953  0.6473  0.66096  1.0000
  C   C93       1.0  0.33084  0.60742  0.72087  1.0000
  C   C94       1.0  0.36396  0.64666  0.53591  1.0000
  C   C95       1.0  0.28813  0.7230000000000002  0.51284  1.0000
  C   C96       1.0  0.55968  0.08429  0.11844999999999999  1.0000
  N   N1        1.0  0.5890999999999998  0.23966000000000007  0.98052  1.0000
  N   N2        1.0  0.5733  0.32241  0.98377  1.0000
  N   N3        1.0  0.68216  0.35901  0.9815799999999999  1.0000
  N   N4        1.0  0.76981  0.3002  0.9766  1.0000
  N   N5        1.0  0.66054  0.76846  0.50243  1.0000
  N   N6        1.0  0.6320800000000001  0.69099  0.47698  1.0000
  N   N7        1.0  0.73871  0.6543100000000002  0.47145  1.0000
  N   N8        1.0  0.83816  0.70669  0.49369  1.0000
  N   N9        1.0  0.76752  0.10447000000000002  0.90705  1.0000
  N   N10       1.0  0.83343  0.8946700000000002  0.5989599999999999  1.0000
  N   N11       1.0  0.9109  0.73966  0.01948  1.0000
  N   N12       1.0  0.92669  0.82241  0.01623  1.0000
  N   N13       1.0  0.81783  0.85901  0.01842  1.0000
  N   N14       1.0  0.73018  0.80021  0.0234  1.0000
  N   N15       1.0  0.8394599999999999  0.2684600000000001  0.49757  1.0000
  N   N16       1.0  0.86792  0.19099  0.52302  1.0000
  N   N17       1.0  0.7612799999999998  0.15431  0.52855  1.0000
  N   N18       1.0  0.66184  0.20668  0.50631  1.0000
  N   N19       1.0  0.73247  0.6044800000000002  0.09295  1.0000
  N   N20       1.0  0.66657  0.39466  0.40104  1.0000
  N   N21       1.0  0.4109  0.7603500000000002  0.01948  1.0000
  N   N22       1.0  0.4267  0.6776  0.01623  1.0000
  N   N23       1.0  0.31783  0.64099  0.01842  1.0000
  N   N24       1.0  0.23017999999999997  0.6998  0.0234  1.0000
  N   N25       1.0  0.33945999999999993  0.23154  0.49757  1.0000
  N   N26       1.0  0.36792  0.30901  0.52302  1.0000
  N   N27       1.0  0.26129  0.3457000000000001  0.52855  1.0000
  N   N28       1.0  0.16184  0.29332  0.50631  1.0000
  N   N29       1.0  0.23247  0.89553  0.09295  1.0000
  N   N30       1.0  0.16657  0.10534  0.40104  1.0000
  N   N31       1.0  0.08909999999999992  0.26035  0.98052  1.0000
  N   N32       1.0  0.07330000000000003  0.17759  0.98377  1.0000
  N   N33       1.0  0.18215999999999993  0.14099  0.9815799999999999  1.0000
  N   N34       1.0  0.26982  0.19980000000000006  0.9766  1.0000
  N   N35       1.0  0.16054  0.7315400000000002  0.50243  1.0000
  N   N36       1.0  0.13208  0.8090100000000002  0.47698  1.0000
  N   N37       1.0  0.23871  0.8457  0.47145  1.0000
  N   N38       1.0  0.33816  0.7933200000000002  0.49369  1.0000
  N   N39       1.0  0.26753  0.39553  0.90705  1.0000
  N   N40       1.0  0.33342999999999995  0.60534  0.5989599999999999  1.0000
  O   O1        1.0  0.94994  0.3873800000000001  0.0837  1.0000
  O   O2        1.0  0.164  0.40857  0.10052  1.0000
  O   O3        1.0  0.00042000000000001633  0.29922  0.35447  1.0000
  O   O4        1.0  0.9677099999999998  0.4128500000000001  0.41632  1.0000
  O   O5        1.0  0.16732999999999998  0.54238  0.4409699999999999  1.0000
  O   O6        1.0  0.9753699999999998  0.6041500000000002  0.40302  1.0000
  O   O7        1.0  0.12447  0.67115  0.15979  1.0000
  O   O8        1.0  0.031169999999999993  0.57459  0.08073999999999999  1.0000
  O   O9        1.0  0.55005  0.8873800000000002  0.9163  1.0000
  O   O10       1.0  0.336  0.90857  0.89947  1.0000
  O   O11       1.0  0.49958  0.79923  0.64553  1.0000
  O   O12       1.0  0.53228  0.9128500000000003  0.58368  1.0000
  O   O13       1.0  0.33267  0.04238  0.55902  1.0000
  O   O14       1.0  0.52463  0.10415000000000003  0.5969799999999998  1.0000
  O   O15       1.0  0.37552  0.17115000000000005  0.8402099999999999  1.0000
  O   O16       1.0  0.46883  0.07459  0.91926  1.0000
  O   O17       1.0  0.05004999999999997  0.61262  0.9163  1.0000
  O   O18       1.0  0.8360000000000001  0.59143  0.89947  1.0000
  O   O19       1.0  0.99958  0.70078  0.64553  1.0000
  O   O20       1.0  0.03228000000000001  0.58716  0.58368  1.0000
  O   O21       1.0  0.8326600000000001  0.45762  0.55902  1.0000
  O   O22       1.0  0.02462999999999993  0.3958500000000001  0.5969799999999998  1.0000
  O   O23       1.0  0.87552  0.32885  0.8402099999999999  1.0000
  O   O24       1.0  0.9688300000000001  0.42542000000000013  0.91926  1.0000
  O   O25       1.0  0.44993999999999995  0.11262  0.0837  1.0000
  O   O26       1.0  0.664  0.09143  0.10052  1.0000
  O   O27       1.0  0.50042  0.20078000000000004  0.35447  1.0000
  O   O28       1.0  0.46771000000000007  0.08715  0.41632  1.0000
  O   O29       1.0  0.66733  0.9576200000000002  0.4409699999999999  1.0000
  O   O30       1.0  0.47536999999999996  0.89586  0.40302  1.0000
  O   O31       1.0  0.62447  0.8288500000000002  0.15979  1.0000
  O   O32       1.0  0.53116  0.9254200000000002  0.08073999999999999  1.0000
