data_image0
_chemical_formula_structural       Na8Ag4H136C116S12N8Cl4O28
_chemical_formula_sum              "Na8 Ag4 H136 C116 S12 N8 Cl4 O28"
_cell_length_a       9.2303
_cell_length_b       14.89966
_cell_length_c       30.566860000000002
_cell_angle_alpha    90.04921
_cell_angle_beta     96.32495999999999
_cell_angle_gamma    90.06491

_symmetry_space_group_name_H-M    'P 1'
_symmetry_Int_Tables_number       1

loop_
  _symmetry_equiv_pos_as_xyz
  'x,y,z'

loop_
  _atom_site_type_symbol
  _atom_site_label
  _atom_site_symmetry_multiplicity
  _atom_site_fract_x
  _atom_site_fract_y
  _atom_site_fract_z
  _atom_site_occupancy
  Na  Na1       1.0  0.22171  0.45463  0.52599  1.0000
  Na  Na2       1.0  0.29296  0.69983  0.47843000000000013  1.0000
  Na  Na3       1.0  0.75694  0.9681  0.97829  1.0000
  Na  Na4       1.0  0.71412  0.19542  0.023750000000000007  1.0000
  Na  Na5       1.0  0.77117  0.5318599999999999  0.47401  1.0000
  Na  Na6       1.0  0.70698  0.3046099999999999  0.52805  1.0000
  Na  Na7       1.0  0.21465  0.03643  0.02387  1.0000
  Na  Na8       1.0  0.28585  0.8045799999999997  0.97412  1.0000
  Ag  Ag1       1.0  0.6004700000000001  0.8953199999999998  0.22722000000000006  1.0000
  Ag  Ag2       1.0  0.40104  0.39404  0.27601  1.0000
  Ag  Ag3       1.0  0.3953800000000001  0.10655999999999997  0.7760600000000002  1.0000
  Ag  Ag4       1.0  0.5974500000000003  0.60361  0.7265300000000002  1.0000
  H   H1        1.0  0.9756800000000001  0.13505  0.2856800000000001  1.0000
  H   H2        1.0  0.8913  0.06615  0.3641900000000001  1.0000
  H   H3        1.0  0.831  0.73197  0.40608  1.0000
  H   H4        1.0  0.46401999999999993  0.89828  0.42503000000000013  1.0000
  H   H5        1.0  0.57226  0.07806  0.35231  1.0000
  H   H6        1.0  0.3704200000000001  0.1279  0.3899400000000001  1.0000
  H   H7        1.0  0.32784  0.01778  0.4059600000000001  1.0000
  H   H8        1.0  0.49063999999999997  0.07054  0.4295600000000001  1.0000
  H   H9        1.0  0.33085000000000003  0.06969  0.3093200000000001  1.0000
  H   H10       1.0  0.4445700000000001  0.98351  0.29235  1.0000
  H   H11       1.0  0.30795  0.9572099999999998  0.3267400000000001  1.0000
  H   H12       1.0  0.94016  0.8732499999999999  0.3127000000000001  1.0000
  H   H13       1.0  0.82872  0.72553  0.29337  1.0000
  H   H14       1.0  0.022120000000000042  0.7167099999999997  0.3020000000000001  1.0000
  H   H15       1.0  0.91611  0.67793  0.34272000000000014  1.0000
  H   H16       1.0  0.07341000000000007  0.78444  0.3982900000000001  1.0000
  H   H17       1.0  0.17017  0.8268999999999997  0.35564  1.0000
  H   H18       1.0  0.07547000000000006  0.9020499999999998  0.3875900000000001  1.0000
  H   H19       1.0  0.05922000000000003  0.96333  0.13824000000000006  1.0000
  H   H20       1.0  0.6877  0.13736  0.11756000000000003  1.0000
  H   H21       1.0  0.03674999999999999  0.94178  0.25988  1.0000
  H   H22       1.0  0.23999999999999996  0.93562  0.18681000000000006  1.0000
  H   H23       1.0  0.24509999999999998  0.017609999999999997  0.22892000000000007  1.0000
  H   H24       1.0  0.28402000000000005  0.9032499999999998  0.24206000000000005  1.0000
  H   H25       1.0  0.8976  0.8186799999999997  0.21902  1.0000
  H   H26       1.0  0.02380000000000002  0.8184999999999998  0.17897000000000005  1.0000
  H   H27       1.0  0.08311  0.78628  0.23389  1.0000
  H   H28       1.0  0.61248  0.13026  0.23574000000000006  1.0000
  H   H29       1.0  0.61601  0.26417  0.15969000000000005  1.0000
  H   H30       1.0  0.53365  0.27947  0.20881  1.0000
  H   H31       1.0  0.72618  0.27328999999999987  0.21113  1.0000
  H   H32       1.0  0.46421  0.12055999999999999  0.1408  1.0000
  H   H33       1.0  0.45624999999999993  0.03622  0.18157  1.0000
  H   H34       1.0  0.37626  0.14335999999999993  0.18839  1.0000
  H   H35       1.0  0.027579999999999997  0.63382  0.21794  1.0000
  H   H36       1.0  0.11076  0.56648  0.13902  1.0000
  H   H37       1.0  0.17356000000000005  0.23222  0.09573000000000002  1.0000
  H   H38       1.0  0.5427  0.39805999999999997  0.07826000000000002  1.0000
  H   H39       1.0  0.4301900000000001  0.57841  0.15061000000000005  1.0000
  H   H40       1.0  0.63051  0.6301599999999998  0.11295  1.0000
  H   H41       1.0  0.67408  0.52068  0.09613000000000002  1.0000
  H   H42       1.0  0.51  0.5728699999999998  0.07323  1.0000
  H   H43       1.0  0.67279  0.57037  0.19298000000000007  1.0000
  H   H44       1.0  0.55924  0.48363  0.21000000000000005  1.0000
  H   H45       1.0  0.6953  0.4577199999999999  0.17526000000000005  1.0000
  H   H46       1.0  0.06107  0.37530999999999987  0.18827  1.0000
  H   H47       1.0  0.17347000000000004  0.22896  0.20892000000000005  1.0000
  H   H48       1.0  0.9800599999999999  0.21897  0.19985  1.0000
  H   H49       1.0  0.08824000000000003  0.17921  0.15984000000000007  1.0000
  H   H50       1.0  0.9291400000000001  0.2840099999999999  0.10319  1.0000
  H   H51       1.0  0.83189  0.32639  0.14570000000000005  1.0000
  H   H52       1.0  0.92539  0.40173  0.11352  1.0000
  H   H53       1.0  0.94613  0.46055  0.36506000000000005  1.0000
  H   H54       1.0  0.31552  0.63659  0.38567  1.0000
  H   H55       1.0  0.9681000000000001  0.43996  0.24337000000000006  1.0000
  H   H56       1.0  0.76262  0.4369899999999999  0.3158300000000001  1.0000
  H   H57       1.0  0.7616000000000002  0.51865  0.27372000000000013  1.0000
  H   H58       1.0  0.71864  0.4046299999999999  0.2605  1.0000
  H   H59       1.0  0.10166  0.31545  0.28426  1.0000
  H   H60       1.0  0.9744899999999999  0.31684  0.32406  1.0000
  H   H61       1.0  0.91513  0.28559  0.26901  1.0000
  H   H62       1.0  0.39088  0.62911  0.26758  1.0000
  H   H63       1.0  0.38526000000000005  0.76347  0.3435400000000001  1.0000
  H   H64       1.0  0.46818999999999994  0.7791399999999998  0.29449  1.0000
  H   H65       1.0  0.27548  0.7715999999999998  0.29194  1.0000
  H   H66       1.0  0.53849  0.621  0.3626800000000001  1.0000
  H   H67       1.0  0.54824  0.53645  0.32194  1.0000
  H   H68       1.0  0.62678  0.64427  0.31521  1.0000
  H   H69       1.0  0.019200000000000002  0.8661599999999998  0.71823  1.0000
  H   H70       1.0  0.10675000000000012  0.93168  0.6396500000000003  1.0000
  H   H71       1.0  0.16883  0.26482  0.59621  1.0000
  H   H72       1.0  0.5351600000000001  0.09778  0.5778400000000002  1.0000
  H   H73       1.0  0.42461000000000015  0.9185199999999998  0.6500100000000002  1.0000
  H   H74       1.0  0.62684  0.86898  0.61249  1.0000
  H   H75       1.0  0.67019  0.9792499999999997  0.59687  1.0000
  H   H76       1.0  0.50732  0.9271699999999998  0.57297  1.0000
  H   H77       1.0  0.6661  0.92531  0.6931300000000002  1.0000
  H   H78       1.0  0.5522300000000001  0.01104  0.7106300000000001  1.0000
  H   H79       1.0  0.6894899999999999  0.03841  0.6766  1.0000
  H   H80       1.0  0.05805000000000002  0.12496  0.68964  1.0000
  H   H81       1.0  0.16787000000000005  0.27289999999999986  0.70869  1.0000
  H   H82       1.0  0.97451  0.2810699999999999  0.69943  1.0000
  H   H83       1.0  0.08183  0.31985  0.65902  1.0000
  H   H84       1.0  0.92618  0.21168  0.60347  1.0000
  H   H85       1.0  0.82896  0.17025999999999994  0.6463  1.0000
  H   H86       1.0  0.92406  0.0944  0.61482  1.0000
  H   H87       1.0  0.92904  0.03498  0.86427  1.0000
  H   H88       1.0  0.30354000000000003  0.8634299999999998  0.8859700000000003  1.0000
  H   H89       1.0  0.9584200000000002  0.05798  0.74291  1.0000
  H   H90       1.0  0.75229  0.06798  0.81509  1.0000
  H   H91       1.0  0.7482400000000001  0.9840699999999998  0.7738900000000002  1.0000
  H   H92       1.0  0.71116  0.09805  0.7594  1.0000
  H   H93       1.0  0.09764  0.18173999999999996  0.78291  1.0000
  H   H94       1.0  0.9712099999999999  0.18369  0.8229  1.0000
  H   H95       1.0  0.91235  0.21402  0.76771  1.0000
  H   H96       1.0  0.3812600000000001  0.8718  0.7680100000000002  1.0000
  H   H97       1.0  0.37873  0.73806  0.84417  1.0000
  H   H98       1.0  0.46293000000000006  0.7229199999999998  0.7953500000000002  1.0000
  H   H99       1.0  0.27014  0.72856  0.79244  1.0000
  H   H100      1.0  0.53082  0.8830899999999998  0.86277  1.0000
  H   H101      1.0  0.53723  0.9668199999999999  0.8215800000000002  1.0000
  H   H102      1.0  0.61832  0.8598899999999998  0.81515  1.0000
  H   H103      1.0  0.97226  0.36436  0.7849100000000002  1.0000
  H   H104      1.0  0.8874100000000001  0.43242  0.86338  1.0000
  H   H105      1.0  0.8258700000000001  0.7668799999999998  0.9054100000000003  1.0000
  H   H106      1.0  0.45824999999999994  0.6008299999999999  0.92418  1.0000
  H   H107      1.0  0.5694900000000002  0.4204  0.8519800000000002  1.0000
  H   H108      1.0  0.3680100000000001  0.36924  0.8894600000000003  1.0000
  H   H109      1.0  0.3245400000000001  0.47888999999999987  0.9058800000000002  1.0000
  H   H110      1.0  0.48812  0.42692  0.92915  1.0000
  H   H111      1.0  0.3274200000000001  0.42673999999999995  0.8091100000000002  1.0000
  H   H112      1.0  0.44057000000000013  0.51337  0.7919500000000003  1.0000
  H   H113      1.0  0.30332000000000003  0.53945  0.8262300000000002  1.0000
  H   H114      1.0  0.93519  0.6239599999999997  0.8123100000000002  1.0000
  H   H115      1.0  0.82517  0.77166  0.79306  1.0000
  H   H116      1.0  0.018660000000000055  0.7806699999999998  0.8014900000000003  1.0000
  H   H117      1.0  0.91308  0.8192899999999999  0.8423800000000002  1.0000
  H   H118      1.0  0.06844000000000003  0.7116199999999999  0.89822  1.0000
  H   H119      1.0  0.16626999999999995  0.66971  0.85563  1.0000
  H   H120      1.0  0.06984000000000005  0.5943  0.8870000000000002  1.0000
  H   H121      1.0  0.05671000000000004  0.53749  0.6382000000000002  1.0000
  H   H122      1.0  0.68174  0.3661699999999999  0.61603  1.0000
  H   H123      1.0  0.03377999999999999  0.55726  0.75975  1.0000
  H   H124      1.0  0.23686  0.56347  0.68657  1.0000
  H   H125      1.0  0.24097000000000002  0.4807499999999999  0.72828  1.0000
  H   H126      1.0  0.28201  0.59485  0.74196  1.0000
  H   H127      1.0  0.89604  0.68085  0.7188200000000002  1.0000
  H   H128      1.0  0.0231500000000001  0.6807599999999999  0.6790300000000002  1.0000
  H   H129      1.0  0.08173000000000005  0.7128499999999998  0.7340200000000002  1.0000
  H   H130      1.0  0.60833  0.36962  0.7343500000000002  1.0000
  H   H131      1.0  0.61342  0.23625  0.65795  1.0000
  H   H132      1.0  0.52972  0.22022  0.7068  1.0000
  H   H133      1.0  0.72249  0.22737999999999994  0.7096100000000001  1.0000
  H   H134      1.0  0.45883  0.37941999999999987  0.63954  1.0000
  H   H135      1.0  0.45169  0.46363  0.6805100000000001  1.0000
  H   H136      1.0  0.37192  0.3563199999999999  0.68725  1.0000
  C   C1        1.0  0.73311  0.9714199999999997  0.2738600000000001  1.0000
  C   C2        1.0  0.89972  0.08252  0.29193  1.0000
  C   C3        1.0  0.8584900000000001  0.04905  0.3301500000000001  1.0000
  C   C4        1.0  0.70988  0.9203999999999998  0.35098  1.0000
  C   C5        1.0  0.79833  0.84489  0.36164  1.0000
  C   C6        1.0  0.7620700000000001  0.7891299999999998  0.3957600000000001  1.0000
  C   C7        1.0  0.64119  0.809  0.41755  1.0000
  C   C8        1.0  0.55509  0.88436  0.40642  1.0000
  C   C9        1.0  0.5882  0.94245  0.3730100000000001  1.0000
  C   C10       1.0  0.49728  0.02552  0.36107  1.0000
  C   C11       1.0  0.41779999999999995  0.06197  0.39892  1.0000
  C   C12       1.0  0.38901  0.00789  0.31998  1.0000
  C   C13       1.0  0.93353  0.8245299999999998  0.33925  1.0000
  C   C14       1.0  0.92412  0.7307  0.31813  1.0000
  C   C15       1.0  0.07150000000000004  0.83529  0.3722600000000001  1.0000
  C   C16       1.0  0.8403  0.04215999999999999  0.21209000000000006  1.0000
  C   C17       1.0  0.95493  0.99336  0.1967  1.0000
  C   C18       1.0  0.9728100000000001  0.9998299999999999  0.15195  1.0000
  C   C19       1.0  0.87833  0.05257  0.12436000000000003  1.0000
  C   C20       1.0  0.76349  0.09909  0.14003000000000004  1.0000
  C   C21       1.0  0.7419  0.09488  0.18455  1.0000
  C   C22       1.0  0.053269999999999984  0.9304299999999998  0.22532  1.0000
  C   C23       1.0  0.21450000000000002  0.9481099999999998  0.22046000000000004  1.0000
  C   C24       1.0  0.011450000000000021  0.83248  0.21364000000000005  1.0000
  C   C25       1.0  0.61313  0.1437  0.20052000000000003  1.0000
  C   C26       1.0  0.62392  0.24596  0.19465000000000005  1.0000
  C   C27       1.0  0.46892999999999996  0.1086  0.17635000000000006  1.0000
  C   C28       1.0  0.47758  0.67036  0.67396  1.0000
  C   C29       1.0  0.4714600000000001  0.65414  0.6316100000000002  1.0000
  C   C30       1.0  0.27054  0.47073  0.22880000000000006  1.0000
  C   C31       1.0  0.10376  0.58175  0.21135  1.0000
  C   C32       1.0  0.14474  0.54905  0.17293  1.0000
  C   C33       1.0  0.2933  0.42108  0.15117000000000005  1.0000
  C   C34       1.0  0.20425999999999997  0.3459  0.14007  1.0000
  C   C35       1.0  0.24170000000000003  0.28963  0.10625000000000002  1.0000
  C   C36       1.0  0.36382  0.30852  0.08485  1.0000
  C   C37       1.0  0.44992  0.3840599999999999  0.09616  1.0000
  C   C38       1.0  0.41551  0.44274  0.1293  1.0000
  C   C39       1.0  0.5055  0.52631  0.14147  1.0000
  C   C40       1.0  0.58382  0.56408  0.10365  1.0000
  C   C41       1.0  0.6146  0.50837  0.18236000000000002  1.0000
  C   C42       1.0  0.06840999999999998  0.3257999999999999  0.16212  1.0000
  C   C43       1.0  0.07853999999999998  0.23279  0.18394  1.0000
  C   C44       1.0  0.93046  0.33522  0.12904  1.0000
  C   C45       1.0  0.16366  0.5405599999999998  0.29111  1.0000
  C   C46       1.0  0.04953000000000002  0.49142  0.30664000000000013  1.0000
  C   C47       1.0  0.03219000000000005  0.4976  0.3514800000000001  1.0000
  C   C48       1.0  0.12598  0.5506199999999998  0.37929  1.0000
  C   C49       1.0  0.24001  0.59768  0.3633600000000001  1.0000
  C   C50       1.0  0.26167  0.5935  0.3188000000000001  1.0000
  C   C51       1.0  0.95017  0.4291  0.27785  1.0000
  C   C52       1.0  0.78927  0.44882  0.28225  1.0000
  C   C53       1.0  0.9882400000000001  0.3307599999999999  0.2894900000000001  1.0000
  C   C54       1.0  0.39007  0.6428799999999998  0.30281  1.0000
  C   C55       1.0  0.37806  0.74515  0.30857000000000007  1.0000
  C   C56       1.0  0.53453  0.60877  0.3271400000000001  1.0000
  C   C57       1.0  0.5151900000000001  0.17487  0.8286200000000002  1.0000
  C   C58       1.0  0.52325  0.16061  0.87117  1.0000
  C   C59       1.0  0.26427000000000006  0.028579999999999998  0.7295300000000002  1.0000
  C   C60       1.0  0.09645000000000001  0.91786  0.71184  1.0000
  C   C61       1.0  0.13947999999999997  0.94968  0.67355  1.0000
  C   C62       1.0  0.2893  0.07714999999999998  0.65202  1.0000
  C   C63       1.0  0.20101000000000008  0.15255  0.6409900000000002  1.0000
  C   C64       1.0  0.23792  0.20801999999999998  0.6069  1.0000
  C   C65       1.0  0.35937  0.18837  0.58536  1.0000
  C   C66       1.0  0.4445700000000001  0.11267  0.5965000000000003  1.0000
  C   C67       1.0  0.4106100000000001  0.0547  0.62992  1.0000
  C   C68       1.0  0.50028  0.97105  0.6416200000000002  1.0000
  C   C69       1.0  0.57993  0.9351099999999999  0.6037  1.0000
  C   C70       1.0  0.60821  0.98749  0.6829200000000002  1.0000
  C   C71       1.0  0.06513999999999998  0.17314  0.66292  1.0000
  C   C72       1.0  0.07330000000000012  0.26726  0.6836700000000002  1.0000
  C   C73       1.0  0.92777  0.16148  0.62978  1.0000
  C   C74       1.0  0.1541500000000001  0.9593999999999998  0.7914000000000002  1.0000
  C   C75       1.0  0.03798000000000009  0.007369999999999998  0.8063800000000002  1.0000
  C   C76       1.0  0.017320000000000065  0.99967  0.8509000000000002  1.0000
  C   C77       1.0  0.11108000000000005  0.94691  0.8787100000000002  1.0000
  C   C78       1.0  0.22800000000000004  0.9016899999999998  0.8634300000000003  1.0000
  C   C79       1.0  0.25193  0.90668  0.8191200000000002  1.0000
  C   C80       1.0  0.94101  0.07027999999999997  0.77733  1.0000
  C   C81       1.0  0.7791899999999999  0.05377  0.78174  1.0000
  C   C82       1.0  0.98372  0.16836  0.78837  1.0000
  C   C83       1.0  0.3814300000000001  0.85842  0.8032600000000002  1.0000
  C   C84       1.0  0.37182  0.75613  0.80921  1.0000
  C   C85       1.0  0.5254200000000001  0.89448  0.8271700000000002  1.0000
  C   C86       1.0  0.51986  0.32675  0.32897  1.0000
  C   C87       1.0  0.52554  0.34164  0.37146  1.0000
  C   C88       1.0  0.7286000000000001  0.52706  0.7732700000000002  1.0000
  C   C89       1.0  0.8958300000000001  0.41652  0.7911900000000002  1.0000
  C   C90       1.0  0.8541  0.44962  0.8294300000000002  1.0000
  C   C91       1.0  0.70494  0.5777999999999998  0.85052  1.0000
  C   C92       1.0  0.79367  0.65327  0.8611100000000003  1.0000
  C   C93       1.0  0.75673  0.70993  0.8948300000000002  1.0000
  C   C94       1.0  0.63507  0.69104  0.9164400000000003  1.0000
  C   C95       1.0  0.54924  0.61519  0.9056000000000002  1.0000
  C   C96       1.0  0.5831400000000001  0.55623  0.8725600000000002  1.0000
  C   C97       1.0  0.49356  0.4724  0.86075  1.0000
  C   C98       1.0  0.41485  0.43534  0.8986000000000002  1.0000
  C   C99       1.0  0.3849500000000001  0.48903999999999986  0.8196000000000002  1.0000
  C   C100      1.0  0.92937  0.67284  0.83885  1.0000
  C   C101      1.0  0.92083  0.76658  0.81772  1.0000
  C   C102      1.0  0.06692000000000008  0.66128  0.8719500000000002  1.0000
  C   C103      1.0  0.83656  0.4575099999999999  0.7113300000000002  1.0000
  C   C104      1.0  0.95152  0.50654  0.69625  1.0000
  C   C105      1.0  0.96939  0.50105  0.65147  1.0000
  C   C106      1.0  0.87429  0.4495199999999999  0.62339  1.0000
  C   C107      1.0  0.7584600000000001  0.40334  0.6387500000000003  1.0000
  C   C108      1.0  0.7372400000000001  0.406  0.6833300000000002  1.0000
  C   C109      1.0  0.05058999999999997  0.56875  0.7252  1.0000
  C   C110      1.0  0.21157  0.5505499999999998  0.72021  1.0000
  C   C111      1.0  0.009940000000000062  0.66682  0.7136400000000003  1.0000
  C   C112      1.0  0.60868  0.35645  0.69908  1.0000
  C   C113      1.0  0.62025  0.25424  0.69295  1.0000
  C   C114      1.0  0.4642800000000001  0.3913  0.67512  1.0000
  C   C115      1.0  0.47966  0.82933  0.17437000000000002  1.0000
  C   C116      1.0  0.46862999999999994  0.84736  0.13213  1.0000
  S   S1        1.0  0.58738  0.7332  0.4580200000000001  1.0000
  S   S2        1.0  0.90529  0.0626  0.06786000000000003  1.0000
  S   S3        1.0  0.49265  0.64755  0.5805000000000002  1.0000
  S   S4        1.0  0.41895  0.23194  0.044620000000000014  1.0000
  S   S5        1.0  0.09937000000000003  0.55974  0.43616  1.0000
  S   S6        1.0  0.51012  0.1557  0.92281  1.0000
  S   S7        1.0  0.41073  0.26371  0.54428  1.0000
  S   S8        1.0  0.08081000000000002  0.9349899999999998  0.93494  1.0000
  S   S9        1.0  0.5077  0.34754  0.4228  1.0000
  S   S10       1.0  0.58162  0.7674499999999997  0.95696  1.0000
  S   S11       1.0  0.90426  0.43975999999999993  0.5671  1.0000
  S   S12       1.0  0.48433999999999994  0.8566899999999997  0.08079000000000003  1.0000
  N   N1        1.0  0.75654  0.98161  0.31857  1.0000
  N   N2        1.0  0.8215  0.034579999999999986  0.25816  1.0000
  N   N3        1.0  0.24699  0.48168  0.18406  1.0000
  N   N4        1.0  0.1821  0.53343  0.24488  1.0000
  N   N5        1.0  0.24207000000000012  0.01694  0.6848200000000002  1.0000
  N   N6        1.0  0.17420000000000008  0.9665899999999997  0.7454000000000002  1.0000
  N   N7        1.0  0.75167  0.51668  0.818  1.0000
  N   N8        1.0  0.81747  0.4643  0.7574600000000002  1.0000
  Cl  Cl1       1.0  0.38044000000000006  0.73219  0.18913000000000005  1.0000
  Cl  Cl2       1.0  0.62579  0.23324  0.31378  1.0000
  Cl  Cl3       1.0  0.6216600000000001  0.26774  0.8128800000000003  1.0000
  Cl  Cl4       1.0  0.37435  0.7657899999999999  0.68866  1.0000
  O   O1        1.0  0.72075  0.68672  0.47693000000000013  1.0000
  O   O2        1.0  0.51271  0.7871099999999998  0.4897400000000001  1.0000
  O   O3        1.0  0.48103  0.67234  0.4324300000000001  1.0000
  O   O4        1.0  0.021500000000000005  0.999  0.05962000000000001  1.0000
  O   O5        1.0  0.76166  0.04046  0.04325  1.0000
  O   O6        1.0  0.9432100000000001  0.15844  0.06072000000000002  1.0000
  O   O7        1.0  0.37088  0.59908  0.55156  1.0000
  O   O8        1.0  0.28562  0.18812  0.02351  1.0000
  O   O9        1.0  0.50002  0.2862599999999999  0.014510000000000004  1.0000
  O   O10       1.0  0.51892  0.16822  0.07050000000000002  1.0000
  O   O11       1.0  0.9802800000000002  0.4968299999999999  0.4436100000000001  1.0000
  O   O12       1.0  0.24138999999999997  0.53603  0.46117  1.0000
  O   O13       1.0  0.06410000000000006  0.6559  0.4432900000000001  1.0000
  O   O14       1.0  0.63476  0.10585999999999997  0.9501900000000002  1.0000
  O   O15       1.0  0.27428  0.3035499999999999  0.5232  1.0000
  O   O16       1.0  0.49457999999999996  0.20989  0.51482  1.0000
  O   O17       1.0  0.50687  0.33155  0.5691000000000002  1.0000
  O   O18       1.0  0.96019  0.9958299999999998  0.9426700000000002  1.0000
  O   O19       1.0  0.22230000000000008  0.95953  0.9603300000000002  1.0000
  O   O20       1.0  0.04957000000000006  0.83808  0.9412300000000001  1.0000
  O   O21       1.0  0.62857  0.3984999999999999  0.45119  1.0000
  O   O22       1.0  0.71535  0.8122999999999998  0.97693  1.0000
  O   O23       1.0  0.5020500000000001  0.71334  0.9874600000000002  1.0000
  O   O24       1.0  0.47967000000000004  0.8313299999999998  0.9315800000000002  1.0000
  O   O25       1.0  0.02589000000000008  0.50069  0.5604000000000002  1.0000
  O   O26       1.0  0.7636800000000001  0.46384  0.5413200000000002  1.0000
  O   O27       1.0  0.93835  0.34315  0.5605200000000002  1.0000
  O   O28       1.0  0.35993  0.90568  0.053350000000000015  1.0000
