data_image0
_chemical_formula_structural       Cu12H72C156O48
_chemical_formula_sum              "Cu12 H72 C156 O48"
_cell_length_a       18.57887
_cell_length_b       24.83901
_cell_length_c       24.83898
_cell_angle_alpha    67.98985
_cell_angle_beta     68.1062
_cell_angle_gamma    68.10623000000001

_space_group_name_H-M_alt    "P 1"
_space_group_IT_number       1

loop_
  _space_group_symop_operation_xyz
  'x, y, z'

loop_
  _atom_site_type_symbol
  _atom_site_label
  _atom_site_symmetry_multiplicity
  _atom_site_fract_x
  _atom_site_fract_y
  _atom_site_fract_z
  _atom_site_occupancy
  Cu  Cu1       1.0  0.8905799999999999  0.49681  0.96078  1.0000
  Cu  Cu2       1.0  0.7846200000000001  0.47868999999999995  0.055229999999999994  1.0000
  Cu  Cu3       1.0  0.3483  0.50337  0.0391  1.0000
  Cu  Cu4       1.0  0.31797  0.52123  0.94484  1.0000
  Cu  Cu5       1.0  0.3483  0.039110000000000006  0.50337  1.0000
  Cu  Cu6       1.0  0.31797  0.94484  0.52123  1.0000
  Cu  Cu7       1.0  0.8905799999999999  0.9607800000000002  0.4968  1.0000
  Cu  Cu8       1.0  0.78462  0.055229999999999994  0.47869  1.0000
  Cu  Cu9       1.0  0.9122700000000001  0.8968800000000001  0.8968799999999998  1.0000
  Cu  Cu10      1.0  0.9785399999999999  0.83056  0.8305599999999997  1.0000
  Cu  Cu11      1.0  0.70517  0.10308  0.10307  1.0000
  Cu  Cu12      1.0  0.63976  0.16946  0.16945999999999997  1.0000
  H   H1        1.0  0.07900000000000003  0.8451  0.99478  1.0000
  H   H2        1.0  0.27393000000000006  0.69263  0.04574999999999999  1.0000
  H   H3        1.0  0.16059000000000007  0.6937999999999998  0.92256  1.0000
  H   H4        1.0  0.05685000000000003  0.84305  0.09046  1.0000
  H   H5        1.0  0.32490000000000013  0.8271699999999998  0.10467999999999997  1.0000
  H   H6        1.0  0.3155200000000001  0.77393  0.04209  1.0000
  H   H7        1.0  0.7131099999999999  0.82597  0.015869999999999995  1.0000
  H   H8        1.0  0.6583900000000001  0.65449  0.08011999999999998  1.0000
  H   H9        1.0  0.8649899999999999  0.6845500000000001  0.93117  1.0000
  H   H10       1.0  0.5302199999999999  0.71561  0.10016  1.0000
  H   H11       1.0  0.4111500000000002  0.75432  0.17691  1.0000
  H   H12       1.0  0.6591  0.82146  0.11234999999999999  1.0000
  H   H13       1.0  0.7820000000000001  0.52987  0.82322  1.0000
  H   H14       1.0  0.54394  0.55448  0.81391  1.0000
  H   H15       1.0  0.59192  0.49886  0.9862699999999998  1.0000
  H   H16       1.0  0.6051200000000002  0.6527099999999998  0.7417999999999999  1.0000
  H   H17       1.0  0.8484400000000001  0.53186  0.62225  1.0000
  H   H18       1.0  0.7926300000000003  0.48765000000000003  0.7313799999999999  1.0000
  H   H19       1.0  0.91881  0.1547  0.005189999999999999  1.0000
  H   H20       1.0  0.012210000000000033  0.30727999999999994  0.95429  1.0000
  H   H21       1.0  0.7770200000000002  0.30607  0.07733  1.0000
  H   H22       1.0  0.9903600000000001  0.15682999999999997  0.90952  1.0000
  H   H23       1.0  0.25646000000000013  0.17304000000000005  0.8955599999999998  1.0000
  H   H24       1.0  0.13121000000000013  0.2261700000000001  0.9581899999999998  1.0000
  H   H25       1.0  0.55475  0.17424999999999993  0.98413  1.0000
  H   H26       1.0  0.39281000000000027  0.34562000000000004  0.9198499999999997  1.0000
  H   H27       1.0  0.4804500000000001  0.31563  0.06892  1.0000
  H   H28       1.0  0.34605  0.28436  0.89958  1.0000
  H   H29       1.0  0.3425000000000003  0.24552000000000002  0.8228799999999998  1.0000
  H   H30       1.0  0.5927700000000001  0.1787  0.88769  1.0000
  H   H31       1.0  0.13553  0.47007  0.17678999999999997  1.0000
  H   H32       1.0  0.9126900000000001  0.44552  0.18611999999999998  1.0000
  H   H33       1.0  0.07722  0.50113  0.01376  1.0000
  H   H34       1.0  0.9999700000000001  0.34726  0.25814  1.0000
  H   H35       1.0  0.002520000000000006  0.46831  0.3779199999999999  1.0000
  H   H36       1.0  0.01191000000000005  0.51238  0.2687  1.0000
  H   H37       1.0  0.91881  0.005190000000000002  0.1547  1.0000
  H   H38       1.0  0.012209999999999938  0.95429  0.30728  1.0000
  H   H39       1.0  0.7770199999999999  0.07733  0.30607  1.0000
  H   H40       1.0  0.9903700000000002  0.9095199999999999  0.15682999999999997  1.0000
  H   H41       1.0  0.25646  0.89556  0.17303999999999997  1.0000
  H   H42       1.0  0.13122000000000014  0.9581899999999998  0.22616999999999998  1.0000
  H   H43       1.0  0.55475  0.9841299999999998  0.17423999999999998  1.0000
  H   H44       1.0  0.3928100000000002  0.91985  0.3456099999999999  1.0000
  H   H45       1.0  0.48045  0.06891999999999998  0.31563  1.0000
  H   H46       1.0  0.3460500000000001  0.89958  0.28435  1.0000
  H   H47       1.0  0.34250000000000014  0.8228799999999998  0.24552  1.0000
  H   H48       1.0  0.59277  0.88769  0.1787  1.0000
  H   H49       1.0  0.13553000000000007  0.17679  0.47007  1.0000
  H   H50       1.0  0.9126900000000001  0.18612  0.44552  1.0000
  H   H51       1.0  0.07722  0.013770000000000001  0.50113  1.0000
  H   H52       1.0  0.99997  0.25814  0.34726  1.0000
  H   H53       1.0  0.002520000000000006  0.37792000000000003  0.46830999999999995  1.0000
  H   H54       1.0  0.011909999999999955  0.26870000000000005  0.51238  1.0000
  H   H55       1.0  0.07900000000000008  0.99478  0.8450999999999999  1.0000
  H   H56       1.0  0.27393000000000006  0.045750000000000034  0.6926299999999999  1.0000
  H   H57       1.0  0.16059000000000012  0.9225599999999999  0.6938  1.0000
  H   H58       1.0  0.05685000000000003  0.09046000000000005  0.8430499999999999  1.0000
  H   H59       1.0  0.3249  0.10467999999999998  0.82717  1.0000
  H   H60       1.0  0.31552  0.04209  0.77393  1.0000
  H   H61       1.0  0.7131100000000001  0.01588000000000005  0.8259699999999998  1.0000
  H   H62       1.0  0.65839  0.08012000000000001  0.65449  1.0000
  H   H63       1.0  0.8649899999999999  0.9311699999999999  0.68454  1.0000
  H   H64       1.0  0.5302199999999999  0.10016000000000001  0.71561  1.0000
  H   H65       1.0  0.4111400000000003  0.17690999999999998  0.75432  1.0000
  H   H66       1.0  0.6591000000000004  0.11236000000000006  0.8214599999999999  1.0000
  H   H67       1.0  0.7820000000000001  0.8232199999999998  0.52987  1.0000
  H   H68       1.0  0.5439400000000002  0.81391  0.55448  1.0000
  H   H69       1.0  0.5919300000000001  0.98627  0.49885999999999997  1.0000
  H   H70       1.0  0.6051200000000001  0.7418099999999999  0.6527  1.0000
  H   H71       1.0  0.8484400000000001  0.62225  0.5318599999999999  1.0000
  H   H72       1.0  0.79263  0.73138  0.48765  1.0000
  C   C1        1.0  0.04790000000000017  0.8022199999999999  0.9247199999999998  1.0000
  C   C2        1.0  0.11252  0.7721  0.9565999999999999  1.0000
  C   C3        1.0  0.11975000000000015  0.80079  0.9924999999999998  1.0000
  C   C4        1.0  0.17894000000000004  0.7737799999999999  0.024049999999999995  1.0000
  C   C5        1.0  0.22982000000000008  0.7163499999999999  0.01981  1.0000
  C   C6        1.0  0.22307000000000018  0.68768  0.9835699999999998  1.0000
  C   C7        1.0  0.16543999999999998  0.7159700000000001  0.9508499999999998  1.0000
  C   C8        1.0  0.27257  0.62472  0.98285  1.0000
  C   C9        1.0  0.18490000000000004  0.80498  0.061959999999999994  1.0000
  C   C10       1.0  0.11567000000000001  0.83986  0.09291  1.0000
  C   C11       1.0  0.26625  0.83034  0.10188  1.0000
  C   C12       1.0  0.2609699999999999  0.80039  0.06714  1.0000
  C   C13       1.0  0.8489100000000002  0.79852  0.93  1.0000
  C   C14       1.0  0.7942300000000001  0.7592199999999999  0.97006  1.0000
  C   C15       1.0  0.7261100000000001  0.7802299999999999  0.0138  1.0000
  C   C16       1.0  0.67482  0.74378  0.05363999999999999  1.0000
  C   C17       1.0  0.6945699999999999  0.68508  0.04885  1.0000
  C   C18       1.0  0.7626500000000002  0.66381  0.00508  1.0000
  C   C19       1.0  0.8122000000000001  0.7010899999999999  0.9649699999999998  1.0000
  C   C20       1.0  0.78555  0.59978  0.0038399999999999992  1.0000
  C   C21       1.0  0.6034199999999998  0.76654  0.10011  1.0000
  C   C22       1.0  0.5320500000000001  0.74739  0.11985  1.0000
  C   C23       1.0  0.46517000000000036  0.76937  0.16242999999999996  1.0000
  C   C24       1.0  0.60462  0.80743  0.12534  1.0000
  C   C25       1.0  0.74816  0.50128  0.94442  1.0000
  C   C26       1.0  0.6929499999999997  0.5124400000000001  0.90824  1.0000
  C   C27       1.0  0.7198400000000003  0.5280800000000001  0.8450599999999998  1.0000
  C   C28       1.0  0.6665800000000002  0.5444  0.8101999999999998  1.0000
  C   C29       1.0  0.58644  0.54257  0.83973  1.0000
  C   C30       1.0  0.5600399999999999  0.52535  0.90298  1.0000
  C   C31       1.0  0.613  0.5108500000000001  0.93733  1.0000
  C   C32       1.0  0.4752500000000001  0.5225299999999999  0.93483  1.0000
  C   C33       1.0  0.69494  0.56787  0.74366  1.0000
  C   C34       1.0  0.6575000000000001  0.6261  0.7153499999999999  1.0000
  C   C35       1.0  0.7954399999999999  0.55842  0.64834  1.0000
  C   C36       1.0  0.76436  0.53371  0.70908  1.0000
  C   C37       1.0  0.77466  0.19764  0.07489999999999998  1.0000
  C   C38       1.0  0.8411100000000002  0.22777  0.04319  1.0000
  C   C39       1.0  0.9129199999999998  0.19907999999999998  0.007449999999999998  1.0000
  C   C40       1.0  0.9766300000000002  0.22612  0.97601  1.0000
  C   C41       1.0  0.9658200000000002  0.28362000000000004  0.9802199999999998  1.0000
  C   C42       1.0  0.89424  0.31227  0.0164  1.0000
  C   C43       1.0  0.8322300000000001  0.28391  0.04904  1.0000
  C   C44       1.0  0.8800700000000001  0.37526999999999994  0.01717  1.0000
  C   C45       1.0  0.05170999999999993  0.19498  0.93816  1.0000
  C   C46       1.0  0.04840999999999995  0.16006999999999996  0.90711  1.0000
  C   C47       1.0  0.1982300000000001  0.16981000000000004  0.8983499999999999  1.0000
  C   C48       1.0  0.12828999999999996  0.19968999999999998  0.93304  1.0000
  C   C49       1.0  0.57682  0.20152  0.07020999999999998  1.0000
  C   C50       1.0  0.52313  0.24095  0.030049999999999993  1.0000
  C   C51       1.0  0.5198700000000002  0.21994000000000002  0.98619  1.0000
  C   C52       1.0  0.47208999999999995  0.2563500000000001  0.9462799999999999  1.0000
  C   C53       1.0  0.4283200000000001  0.31500000000000006  0.9510999999999998  1.0000
  C   C54       1.0  0.43137000000000003  0.33632000000000006  0.9948999999999999  1.0000
  C   C55       1.0  0.4780100000000001  0.29907  0.03508  1.0000
  C   C56       1.0  0.38900999999999997  0.40034000000000003  0.9960799999999999  1.0000
  C   C57       1.0  0.47003000000000006  0.23352999999999996  0.8997699999999998  1.0000
  C   C58       1.0  0.39933000000000013  0.25258  0.87998  1.0000
  C   C59       1.0  0.3970800000000001  0.23052000000000009  0.8373699999999997  1.0000
  C   C60       1.0  0.53731  0.19266000000000005  0.8746499999999999  1.0000
  C   C61       1.0  0.19382  0.49879  0.05547  1.0000
  C   C62       1.0  0.11377000000000002  0.48755999999999994  0.09181  1.0000
  C   C63       1.0  0.09330999999999999  0.47189  0.15499  1.0000
  C   C64       1.0  0.021580000000000023  0.45555999999999996  0.18983999999999998  1.0000
  C   C65       1.0  0.96905  0.45744  0.1603  1.0000
  C   C66       1.0  0.9885299999999999  0.47468  0.09705999999999998  1.0000
  C   C67       1.0  0.061260000000000044  0.48915999999999993  0.06271  1.0000
  C   C68       1.0  0.93263  0.47752  0.0653  1.0000
  C   C69       1.0  0.006780000000000026  0.43212  0.25638999999999995  1.0000
  C   C70       1.0  0.9992500000000001  0.37388999999999994  0.28466  1.0000
  C   C71       1.0  0.00225000000000006  0.44170000000000004  0.35178999999999994  1.0000
  C   C72       1.0  0.007379999999999991  0.46633  0.29101  1.0000
  C   C73       1.0  0.7746600000000001  0.07490000000000001  0.19763999999999995  1.0000
  C   C74       1.0  0.8411100000000001  0.04318999999999999  0.22777  1.0000
  C   C75       1.0  0.9129199999999998  0.007450000000000001  0.19908  1.0000
  C   C76       1.0  0.97664  0.97601  0.22612  1.0000
  C   C77       1.0  0.96582  0.98022  0.2836099999999999  1.0000
  C   C78       1.0  0.89424  0.016400000000000012  0.31226999999999994  1.0000
  C   C79       1.0  0.83223  0.04905  0.28391  1.0000
  C   C80       1.0  0.8800600000000001  0.017169999999999998  0.37527  1.0000
  C   C81       1.0  0.0517200000000001  0.9381599999999999  0.19497  1.0000
  C   C82       1.0  0.04841000000000003  0.90711  0.16006999999999996  1.0000
  C   C83       1.0  0.19823000000000016  0.8983499999999999  0.16981  1.0000
  C   C84       1.0  0.12829  0.93304  0.19968  1.0000
  C   C85       1.0  0.57682  0.07021  0.20152  1.0000
  C   C86       1.0  0.52313  0.030049999999999997  0.24095  1.0000
  C   C87       1.0  0.51988  0.98619  0.21994  1.0000
  C   C88       1.0  0.4720900000000001  0.9462799999999998  0.25635  1.0000
  C   C89       1.0  0.42832000000000003  0.9511  0.31499999999999995  1.0000
  C   C90       1.0  0.43137000000000003  0.9948999999999999  0.33631  1.0000
  C   C91       1.0  0.47801000000000005  0.03508  0.29907  1.0000
  C   C92       1.0  0.38901999999999987  0.9960800000000002  0.40034  1.0000
  C   C93       1.0  0.47003000000000006  0.89977  0.23353  1.0000
  C   C94       1.0  0.39932999999999996  0.87998  0.25258  1.0000
  C   C95       1.0  0.3970799999999999  0.8373699999999998  0.23051999999999995  1.0000
  C   C96       1.0  0.5373099999999998  0.87465  0.19265999999999994  1.0000
  C   C97       1.0  0.19382000000000002  0.055480000000000036  0.49878999999999996  1.0000
  C   C98       1.0  0.11377  0.09181000000000004  0.48755999999999994  1.0000
  C   C99       1.0  0.09330999999999999  0.15499  0.47189  1.0000
  C   C100      1.0  0.021580000000000023  0.18983999999999998  0.45556  1.0000
  C   C101      1.0  0.96905  0.1603  0.45744  1.0000
  C   C102      1.0  0.9885300000000001  0.09706000000000002  0.4746799999999999  1.0000
  C   C103      1.0  0.06126000000000006  0.06271  0.48915999999999993  1.0000
  C   C104      1.0  0.93263  0.0653  0.47751999999999994  1.0000
  C   C105      1.0  0.006780000000000073  0.25639  0.4321199999999999  1.0000
  C   C106      1.0  0.9992500000000001  0.2846600000000001  0.37388999999999994  1.0000
  C   C107      1.0  0.0022500000000000363  0.35178999999999994  0.4416999999999999  1.0000
  C   C108      1.0  0.0073800000000000384  0.29100999999999994  0.46632999999999997  1.0000
  C   C109      1.0  0.047900000000000074  0.92472  0.80222  1.0000
  C   C110      1.0  0.11252000000000009  0.9566000000000001  0.7720999999999998  1.0000
  C   C111      1.0  0.1197499999999999  0.9925  0.80079  1.0000
  C   C112      1.0  0.17893000000000006  0.02405000000000002  0.7737799999999999  1.0000
  C   C113      1.0  0.22982  0.01981000000000001  0.71635  1.0000
  C   C114      1.0  0.22307000000000005  0.98357  0.68768  1.0000
  C   C115      1.0  0.1654400000000003  0.9508499999999999  0.7159699999999999  1.0000
  C   C116      1.0  0.27257000000000015  0.98285  0.62471  1.0000
  C   C117      1.0  0.18490000000000004  0.06197  0.80498  1.0000
  C   C118      1.0  0.1156700000000001  0.09292  0.8398599999999999  1.0000
  C   C119      1.0  0.26625000000000004  0.10187999999999997  0.83034  1.0000
  C   C120      1.0  0.2609699999999999  0.06714  0.80039  1.0000
  C   C121      1.0  0.8489100000000002  0.93  0.7985199999999999  1.0000
  C   C122      1.0  0.79424  0.9700599999999999  0.75922  1.0000
  C   C123      1.0  0.7261100000000001  0.013800000000000052  0.7802299999999998  1.0000
  C   C124      1.0  0.67481  0.05364000000000001  0.7437799999999999  1.0000
  C   C125      1.0  0.6945699999999999  0.04886000000000002  0.68508  1.0000
  C   C126      1.0  0.76265  0.005079999999999964  0.66381  1.0000
  C   C127      1.0  0.8121999999999999  0.96497  0.7010799999999999  1.0000
  C   C128      1.0  0.78555  0.003850000000000007  0.59978  1.0000
  C   C129      1.0  0.6034200000000002  0.10012000000000006  0.7665399999999998  1.0000
  C   C130      1.0  0.5320500000000001  0.11986000000000005  0.7473899999999998  1.0000
  C   C131      1.0  0.46516  0.16244000000000003  0.76937  1.0000
  C   C132      1.0  0.60462  0.12533999999999998  0.80743  1.0000
  C   C133      1.0  0.74816  0.94442  0.50127  1.0000
  C   C134      1.0  0.6929499999999998  0.90824  0.51244  1.0000
  C   C135      1.0  0.7198400000000001  0.84506  0.52807  1.0000
  C   C136      1.0  0.6665900000000002  0.8101999999999999  0.5444  1.0000
  C   C137      1.0  0.5864400000000001  0.8397299999999999  0.54257  1.0000
  C   C138      1.0  0.56004  0.90298  0.52534  1.0000
  C   C139      1.0  0.6130000000000001  0.9373299999999999  0.51085  1.0000
  C   C140      1.0  0.4752500000000001  0.9348299999999999  0.52253  1.0000
  C   C141      1.0  0.6949400000000003  0.74366  0.5678699999999999  1.0000
  C   C142      1.0  0.6574999999999999  0.71535  0.6261  1.0000
  C   C143      1.0  0.79544  0.64834  0.55841  1.0000
  C   C144      1.0  0.7643600000000002  0.7090799999999999  0.53371  1.0000
  C   C145      1.0  0.68974  0.6534999999999999  0.6535  1.0000
  C   C146      1.0  0.76073  0.61921  0.6192  1.0000
  C   C147      1.0  0.9969199999999999  0.34653  0.34653  1.0000
  C   C148      1.0  0.9992300000000005  0.38088999999999995  0.3808899999999999  1.0000
  C   C149      1.0  0.11912999999999997  0.87119  0.12884999999999996  1.0000
  C   C150      1.0  0.19597  0.86643  0.1337  1.0000
  C   C151      1.0  0.46490999999999993  0.81225  0.18764999999999998  1.0000
  C   C152      1.0  0.5365100000000002  0.83153  0.16845  1.0000
  C   C153      1.0  0.11911999999999998  0.12884999999999994  0.87119  1.0000
  C   C154      1.0  0.19595999999999994  0.1337  0.86643  1.0000
  C   C155      1.0  0.46491000000000005  0.18765000000000004  0.81226  1.0000
  C   C156      1.0  0.5365099999999999  0.16845999999999997  0.83153  1.0000
  O   O1        1.0  0.30469999999999997  0.59283  0.02634  1.0000
  O   O2        1.0  0.27645  0.60716  0.93919  1.0000
  O   O3        1.0  0.9912800000000002  0.84561  0.94327  1.0000
  O   O4        1.0  0.053990000000000024  0.78307  0.8815999999999999  1.0000
  O   O5        1.0  0.83929  0.84504  0.9455  1.0000
  O   O6        1.0  0.9015000000000002  0.7825600000000001  0.8839199999999998  1.0000
  O   O7        1.0  0.74564  0.56535  0.04786  1.0000
  O   O8        1.0  0.84402  0.58392  0.9601099999999999  1.0000
  O   O9        1.0  0.8199  0.5055899999999999  0.91484  1.0000
  O   O10       1.0  0.7196000000000001  0.48929  0.0017899999999999995  1.0000
  O   O11       1.0  0.42999000000000015  0.5291899999999999  0.9033099999999998  1.0000
  O   O12       1.0  0.45486000000000015  0.51299  0.9922499999999997  1.0000
  O   O13       1.0  0.92337  0.4072999999999998  0.97348  1.0000
  O   O14       1.0  0.82313  0.39271999999999996  0.06099  1.0000
  O   O15       1.0  0.7793500000000001  0.15444  0.05628  1.0000
  O   O16       1.0  0.7187199999999999  0.21681  0.11804999999999999  1.0000
  O   O17       1.0  0.6287200000000001  0.15486  0.05474999999999999  1.0000
  O   O18       1.0  0.56758  0.21743  0.1163  1.0000
  O   O19       1.0  0.35786000000000023  0.43456  0.9523899999999998  1.0000
  O   O20       1.0  0.38870000000000005  0.41641  0.03948  1.0000
  O   O21       1.0  0.24046000000000006  0.49462  0.08489999999999999  1.0000
  O   O22       1.0  0.21030000000000013  0.51067  0.9981099999999999  1.0000
  O   O23       1.0  0.86264  0.4708399999999999  0.09701  1.0000
  O   O24       1.0  0.95984  0.48710999999999993  0.00786  1.0000
  O   O25       1.0  0.92337  0.97348  0.40728999999999993  1.0000
  O   O26       1.0  0.8231299999999999  0.06099  0.39272  1.0000
  O   O27       1.0  0.77935  0.056280000000000004  0.15443999999999997  1.0000
  O   O28       1.0  0.7187200000000001  0.11805000000000002  0.21680999999999997  1.0000
  O   O29       1.0  0.62872  0.05475000000000001  0.15486  1.0000
  O   O30       1.0  0.56758  0.11629999999999999  0.21743  1.0000
  O   O31       1.0  0.35787  0.9523900000000002  0.43455999999999995  1.0000
  O   O32       1.0  0.3887000000000001  0.03948000000000004  0.4164099999999999  1.0000
  O   O33       1.0  0.24046000000000006  0.0849  0.49461999999999995  1.0000
  O   O34       1.0  0.21030000000000007  0.99811  0.51067  1.0000
  O   O35       1.0  0.86264  0.09701000000000003  0.47083999999999987  1.0000
  O   O36       1.0  0.95984  0.007860000000000016  0.48710999999999993  1.0000
  O   O37       1.0  0.30469  0.02633999999999998  0.59284  1.0000
  O   O38       1.0  0.27645000000000014  0.9391899999999997  0.60715  1.0000
  O   O39       1.0  0.9912800000000006  0.94327  0.8456099999999998  1.0000
  O   O40       1.0  0.053989999999999934  0.8816  0.78307  1.0000
  O   O41       1.0  0.8392900000000001  0.9454999999999998  0.84504  1.0000
  O   O42       1.0  0.9015000000000002  0.8839199999999999  0.78255  1.0000
  O   O43       1.0  0.7456399999999999  0.04787000000000004  0.5653499999999999  1.0000
  O   O44       1.0  0.8440200000000001  0.96012  0.58392  1.0000
  O   O45       1.0  0.8199  0.9148400000000001  0.50559  1.0000
  O   O46       1.0  0.7196  0.0017899999999999908  0.48929  1.0000
  O   O47       1.0  0.42998999999999993  0.90331  0.5291899999999999  1.0000
  O   O48       1.0  0.45486000000000004  0.9922499999999999  0.51298  1.0000
