data_image0
_chemical_formula_structural       Zn6H132C192N24O36
_chemical_formula_sum              "Zn6 H132 C192 N24 O36"
_cell_length_a       16.5452
_cell_length_b       16.56077
_cell_length_c       25.9012
_cell_angle_alpha    90.0
_cell_angle_beta     90.0
_cell_angle_gamma    120.13974

_space_group_name_H-M_alt    "P 1"
_space_group_IT_number       1

loop_
  _space_group_symop_operation_xyz
  'x, y, z'

loop_
  _atom_site_type_symbol
  _atom_site_label
  _atom_site_symmetry_multiplicity
  _atom_site_fract_x
  _atom_site_fract_y
  _atom_site_fract_z
  _atom_site_occupancy
  Zn  Zn1       1.0  0.7108399999999997  0.42476999999999987  0.99932  1.0000
  Zn  Zn2       1.0  0.57501  0.28901  0.66718  1.0000
  Zn  Zn3       1.0  0.7113  0.28645  0.33385  1.0000
  Zn  Zn4       1.0  0.28915999999999986  0.5752299999999998  0.99932  1.0000
  Zn  Zn5       1.0  0.42499  0.71099  0.66718  1.0000
  Zn  Zn6       1.0  0.28869  0.71355  0.33385  1.0000
  H   H1        1.0  0.3957999999999999  0.21682  0.08446  1.0000
  H   H2        1.0  0.30905  0.78777  0.03154  1.0000
  H   H3        1.0  0.47022999999999987  0.9169  0.03960999999999999  1.0000
  H   H4        1.0  0.89709  0.5333  0.94145  1.0000
  H   H5        1.0  0.06441999999999998  0.64005  0.96404  1.0000
  H   H6        1.0  0.98035  0.60546  0.12426  1.0000
  H   H7        1.0  0.4127499999999999  0.98106  0.19112999999999994  1.0000
  H   H8        1.0  0.2493699999999999  0.8463099999999998  0.1845  1.0000
  H   H9        1.0  0.8189299999999996  0.49886999999999987  0.09569999999999998  1.0000
  H   H10       1.0  0.17529  0.71072  0.027609999999999996  1.0000
  H   H11       1.0  0.7826  0.17933  0.7506799999999999  1.0000
  H   H12       1.0  0.21183  0.52092  0.6982099999999999  1.0000
  H   H13       1.0  0.08315  0.5532  0.70624  1.0000
  H   H14       1.0  0.46642999999999984  0.3648399999999999  0.60844  1.0000
  H   H15       1.0  0.3589099999999998  0.4243699999999999  0.631  1.0000
  H   H16       1.0  0.3932299999999999  0.37521  0.7911899999999998  1.0000
  H   H17       1.0  0.018589999999999964  0.43186999999999987  0.85792  1.0000
  H   H18       1.0  0.1531  0.4031  0.8513  1.0000
  H   H19       1.0  0.5004499999999997  0.32147  0.7629299999999999  1.0000
  H   H20       1.0  0.28836  0.4642  0.6942399999999999  1.0000
  H   H21       1.0  0.82096  0.60403  0.41750999999999994  1.0000
  H   H22       1.0  0.47889999999999994  0.69052  0.36483  1.0000
  H   H23       1.0  0.44675999999999993  0.52964  0.37288  1.0000
  H   H24       1.0  0.6353499999999997  0.10186  0.27522  1.0000
  H   H25       1.0  0.5756799999999997  0.9347199999999998  0.29763  1.0000
  H   H26       1.0  0.62487  0.01824  0.45791  1.0000
  H   H27       1.0  0.56829  0.58714  0.52447  1.0000
  H   H28       1.0  0.59692  0.75027  0.5179  1.0000
  H   H29       1.0  0.6786899999999998  0.17926999999999996  0.42958999999999997  1.0000
  H   H30       1.0  0.53567  0.8241299999999998  0.36089  1.0000
  H   H31       1.0  0.6041999999999998  0.7831799999999998  0.08446  1.0000
  H   H32       1.0  0.69095  0.21223  0.03154  1.0000
  H   H33       1.0  0.52977  0.08309999999999997  0.03960999999999999  1.0000
  H   H34       1.0  0.10289999999999998  0.46670999999999996  0.94145  1.0000
  H   H35       1.0  0.93557  0.35995  0.96404  1.0000
  H   H36       1.0  0.01963999999999998  0.39454  0.12426  1.0000
  H   H37       1.0  0.5872499999999998  0.01893999999999999  0.19114  1.0000
  H   H38       1.0  0.7506299999999998  0.15368999999999994  0.1845  1.0000
  H   H39       1.0  0.18105999999999997  0.50113  0.09569999999999998  1.0000
  H   H40       1.0  0.8246999999999999  0.28927999999999987  0.027609999999999996  1.0000
  H   H41       1.0  0.2173999999999999  0.8206699999999998  0.7506799999999999  1.0000
  H   H42       1.0  0.7881699999999996  0.47908  0.6982099999999999  1.0000
  H   H43       1.0  0.9168399999999998  0.4468  0.70624  1.0000
  H   H44       1.0  0.53356  0.63516  0.60844  1.0000
  H   H45       1.0  0.6410799999999999  0.5756299999999998  0.631  1.0000
  H   H46       1.0  0.60677  0.62479  0.7911899999999998  1.0000
  H   H47       1.0  0.9814  0.56813  0.85792  1.0000
  H   H48       1.0  0.84689  0.5968999999999998  0.8513  1.0000
  H   H49       1.0  0.49954  0.67853  0.7629299999999999  1.0000
  H   H50       1.0  0.71164  0.5357999999999999  0.6942399999999999  1.0000
  H   H51       1.0  0.17903999999999995  0.3959799999999999  0.41750999999999994  1.0000
  H   H52       1.0  0.5211  0.30947999999999987  0.36483  1.0000
  H   H53       1.0  0.55324  0.4703599999999999  0.37288  1.0000
  H   H54       1.0  0.3646499999999998  0.8981499999999998  0.27522  1.0000
  H   H55       1.0  0.42431  0.06527999999999999  0.29763  1.0000
  H   H56       1.0  0.37513  0.98176  0.45791  1.0000
  H   H57       1.0  0.4317  0.41286  0.52447  1.0000
  H   H58       1.0  0.40307  0.24973  0.5179  1.0000
  H   H59       1.0  0.3212999999999998  0.8207299999999997  0.42958999999999997  1.0000
  H   H60       1.0  0.46432  0.17587  0.36089  1.0000
  H   H61       1.0  0.2166599999999999  0.39565  0.58234  1.0000
  H   H62       1.0  0.7878099999999998  0.30899  0.6351299999999998  1.0000
  H   H63       1.0  0.9168099999999998  0.47005999999999987  0.62703  1.0000
  H   H64       1.0  0.53331  0.89706  0.72507  1.0000
  H   H65       1.0  0.63998  0.06427999999999999  0.7026099999999998  1.0000
  H   H66       1.0  0.60563  0.98058  0.54234  1.0000
  H   H67       1.0  0.98114  0.41286  0.47552  1.0000
  H   H68       1.0  0.8465099999999998  0.24954  0.48213  1.0000
  H   H69       1.0  0.4991499999999999  0.8193199999999998  0.5708  1.0000
  H   H70       1.0  0.7106599999999997  0.17514999999999997  0.63912  1.0000
  H   H71       1.0  0.17927000000000007  0.78281  0.9155899999999999  1.0000
  H   H72       1.0  0.52088  0.21166  0.9685099999999998  1.0000
  H   H73       1.0  0.55319  0.08311  0.96051  1.0000
  H   H74       1.0  0.36484999999999984  0.46651999999999993  0.05807  1.0000
  H   H75       1.0  0.42430999999999996  0.3589599999999999  0.03563  1.0000
  H   H76       1.0  0.37527999999999995  0.3931199999999999  0.8754  1.0000
  H   H77       1.0  0.43187  0.018699999999999994  0.8087899999999999  1.0000
  H   H78       1.0  0.4031499999999999  0.15308  0.81539  1.0000
  H   H79       1.0  0.32161  0.50043  0.90356  1.0000
  H   H80       1.0  0.4642199999999999  0.2883099999999999  0.9724199999999997  1.0000
  H   H81       1.0  0.6038499999999998  0.82093  0.24927999999999995  1.0000
  H   H82       1.0  0.6906099999999998  0.47873999999999994  0.30182  1.0000
  H   H83       1.0  0.52954  0.44668999999999986  0.29374  1.0000
  H   H84       1.0  0.10237999999999998  0.63575  0.3917599999999999  1.0000
  H   H85       1.0  0.9351499999999998  0.57566  0.36918  1.0000
  H   H86       1.0  0.0191699999999999  0.6250199999999999  0.20896999999999993  1.0000
  H   H87       1.0  0.5872599999999998  0.5683  0.14217  1.0000
  H   H88       1.0  0.75057  0.59694  0.14882  1.0000
  H   H89       1.0  0.18043999999999985  0.6793399999999998  0.23748  1.0000
  H   H90       1.0  0.8244199999999998  0.5355899999999999  0.30574  1.0000
  H   H91       1.0  0.78333  0.60435  0.58234  1.0000
  H   H92       1.0  0.21217999999999995  0.69101  0.6351299999999998  1.0000
  H   H93       1.0  0.08317999999999996  0.52994  0.62703  1.0000
  H   H94       1.0  0.46668  0.10294999999999997  0.72507  1.0000
  H   H95       1.0  0.36000999999999994  0.9357199999999999  0.7026099999999998  1.0000
  H   H96       1.0  0.3943599999999999  0.01942  0.54234  1.0000
  H   H97       1.0  0.01885999999999999  0.58714  0.47552  1.0000
  H   H98       1.0  0.15349000000000004  0.75046  0.48213  1.0000
  H   H99       1.0  0.50085  0.18068999999999996  0.5708  1.0000
  H   H100      1.0  0.28933000000000003  0.82486  0.63912  1.0000
  H   H101      1.0  0.82073  0.21719  0.9155899999999999  1.0000
  H   H102      1.0  0.47911  0.78834  0.9685099999999998  1.0000
  H   H103      1.0  0.4468  0.9169  0.96051  1.0000
  H   H104      1.0  0.6351399999999998  0.53348  0.05807  1.0000
  H   H105      1.0  0.57568  0.64103  0.03563  1.0000
  H   H106      1.0  0.62472  0.60688  0.8754  1.0000
  H   H107      1.0  0.56812  0.9813099999999999  0.8087899999999999  1.0000
  H   H108      1.0  0.5968499999999998  0.8469199999999998  0.81539  1.0000
  H   H109      1.0  0.6783799999999998  0.4995799999999999  0.90356  1.0000
  H   H110      1.0  0.53577  0.71169  0.9724199999999997  1.0000
  H   H111      1.0  0.3961499999999999  0.17906999999999995  0.24927999999999995  1.0000
  H   H112      1.0  0.3093799999999999  0.52126  0.30182  1.0000
  H   H113      1.0  0.47045  0.55331  0.29374  1.0000
  H   H114      1.0  0.8976199999999998  0.3642499999999999  0.3917599999999999  1.0000
  H   H115      1.0  0.06484999999999999  0.42434999999999995  0.36918  1.0000
  H   H116      1.0  0.98083  0.37497999999999987  0.20896999999999993  1.0000
  H   H117      1.0  0.41274  0.4317  0.14217  1.0000
  H   H118      1.0  0.24941999999999998  0.40305999999999986  0.14882  1.0000
  H   H119      1.0  0.81955  0.32066  0.23748  1.0000
  H   H120      1.0  0.17557  0.46441  0.30574  1.0000
  H   H121      1.0  0.65581  0.32796  0.16662999999999994  1.0000
  H   H122      1.0  0.30755  0.15364  0.16689999999999994  1.0000
  H   H123      1.0  0.67202  0.32776999999999995  0.8332899999999998  1.0000
  H   H124      1.0  0.84586  0.15406999999999996  0.8331299999999998  1.0000
  H   H125      1.0  0.6722899999999999  0.3445999999999999  0.50008  1.0000
  H   H126      1.0  0.84637  0.6925  0.4998799999999999  1.0000
  H   H127      1.0  0.34417999999999976  0.6720399999999997  0.16662999999999994  1.0000
  H   H128      1.0  0.69244  0.84636  0.16689999999999994  1.0000
  H   H129      1.0  0.32798  0.67224  0.8332899999999998  1.0000
  H   H130      1.0  0.15412999999999988  0.8459299999999997  0.8331299999999998  1.0000
  H   H131      1.0  0.3276999999999999  0.6554099999999998  0.50008  1.0000
  H   H132      1.0  0.15362  0.3075  0.4998799999999999  1.0000
  C   C1        1.0  0.579  0.31830999999999987  0.0703  1.0000
  C   C2        1.0  0.5306299999999998  0.27807  0.12057  1.0000
  C   C3        1.0  0.4324899999999999  0.22743  0.12086  1.0000
  C   C4        1.0  0.26719  0.80888  0.10774  1.0000
  C   C5        1.0  0.16664  0.73444  0.10633  1.0000
  C   C6        1.0  0.3298499999999999  0.82918  0.06674  1.0000
  C   C7        1.0  0.42113  0.90282  0.07091  1.0000
  C   C8        1.0  0.91868  0.55111  0.98154  1.0000
  C   C9        1.0  0.011539999999999977  0.61063  0.99416  1.0000
  C   C10       1.0  0.9658299999999999  0.5909499999999998  0.08359  1.0000
  C   C11       1.0  0.03730999999999987  0.6325699999999997  0.04654  1.0000
  C   C12       1.0  0.3902099999999999  0.93699  0.15689  1.0000
  C   C13       1.0  0.29895  0.8627  0.15314  1.0000
  C   C14       1.0  0.4523799999999998  0.9591799999999998  0.11528  1.0000
  C   C15       1.0  0.87485  0.5319  0.06745  1.0000
  C   C16       1.0  0.68161  0.26092999999999994  0.73677  1.0000
  C   C17       1.0  0.7217399999999998  0.25265  0.7870299999999998  1.0000
  C   C18       1.0  0.77224  0.20523999999999995  0.78723  1.0000
  C   C19       1.0  0.19050999999999998  0.4581299999999999  0.7745  1.0000
  C   C20       1.0  0.26481999999999994  0.43216999999999994  0.7731  1.0000
  C   C21       1.0  0.17038999999999993  0.50039  0.73342  1.0000
  C   C22       1.0  0.09703  0.51815  0.7375599999999999  1.0000
  C   C23       1.0  0.44841  0.36855  0.64851  1.0000
  C   C24       1.0  0.38858  0.40124  0.66106  1.0000
  C   C25       1.0  0.40807  0.37542  0.75058  1.0000
  C   C26       1.0  0.36650999999999995  0.4049299999999999  0.71342  1.0000
  C   C27       1.0  0.06266999999999996  0.4532299999999999  0.82365  1.0000
  C   C28       1.0  0.1367399999999999  0.4361899999999999  0.81992  1.0000
  C   C29       1.0  0.04072999999999995  0.4932  0.78198  1.0000
  C   C30       1.0  0.46746  0.34414  0.7345899999999999  1.0000
  C   C31       1.0  0.7389599999999997  0.42088  0.4036099999999999  1.0000
  C   C32       1.0  0.7474199999999995  0.4694399999999999  0.45383  1.0000
  C   C33       1.0  0.79494  0.56749  0.45399  1.0000
  C   C34       1.0  0.5417599999999997  0.7323399999999998  0.44108  1.0000
  C   C35       1.0  0.56778  0.8326399999999999  0.43970999999999993  1.0000
  C   C36       1.0  0.49947  0.66977  0.40004  1.0000
  C   C37       1.0  0.48178999999999983  0.5786699999999998  0.4042  1.0000
  C   C38       1.0  0.6315699999999997  0.08008999999999997  0.31525  1.0000
  C   C39       1.0  0.59878  0.98746  0.32776  1.0000
  C   C40       1.0  0.6246099999999998  0.032819999999999995  0.41729  1.0000
  C   C41       1.0  0.5950499999999999  0.9616799999999999  0.38011  1.0000
  C   C42       1.0  0.54681  0.6096499999999998  0.49023  1.0000
  C   C43       1.0  0.56379  0.70073  0.48650999999999994  1.0000
  C   C44       1.0  0.50682  0.54753  0.44861  1.0000
  C   C45       1.0  0.65597  0.12355999999999998  0.40127  1.0000
  C   C46       1.0  0.4209899999999998  0.6816899999999999  0.0703  1.0000
  C   C47       1.0  0.4693599999999998  0.7219299999999997  0.12057  1.0000
  C   C48       1.0  0.5674999999999998  0.7725699999999998  0.12086  1.0000
  C   C49       1.0  0.7328  0.19111999999999996  0.10774  1.0000
  C   C50       1.0  0.8333500000000001  0.26556  0.10633  1.0000
  C   C51       1.0  0.67014  0.17082  0.06674  1.0000
  C   C52       1.0  0.57887  0.09717999999999997  0.07091  1.0000
  C   C53       1.0  0.08131  0.44889  0.98154  1.0000
  C   C54       1.0  0.9884499999999999  0.38937  0.99416  1.0000
  C   C55       1.0  0.03416999999999999  0.40905  0.08359  1.0000
  C   C56       1.0  0.9626799999999998  0.36743  0.04654  1.0000
  C   C57       1.0  0.60978  0.06301  0.15689  1.0000
  C   C58       1.0  0.70104  0.1373  0.15314  1.0000
  C   C59       1.0  0.5476099999999998  0.04082  0.11528  1.0000
  C   C60       1.0  0.12514  0.4680999999999999  0.06745  1.0000
  C   C61       1.0  0.3183799999999999  0.7390699999999998  0.73677  1.0000
  C   C62       1.0  0.27825999999999995  0.7473499999999998  0.7870299999999998  1.0000
  C   C63       1.0  0.2277599999999998  0.7947699999999998  0.78723  1.0000
  C   C64       1.0  0.8094899999999998  0.54187  0.7745  1.0000
  C   C65       1.0  0.7351799999999997  0.56783  0.7731  1.0000
  C   C66       1.0  0.8296  0.4996199999999999  0.73342  1.0000
  C   C67       1.0  0.90297  0.4818499999999999  0.7375599999999999  1.0000
  C   C68       1.0  0.5515899999999996  0.6314499999999997  0.64851  1.0000
  C   C69       1.0  0.6114099999999997  0.5987599999999997  0.66106  1.0000
  C   C70       1.0  0.59192  0.62458  0.75058  1.0000
  C   C71       1.0  0.6334799999999997  0.5950699999999999  0.71342  1.0000
  C   C72       1.0  0.93732  0.54677  0.82365  1.0000
  C   C73       1.0  0.8632599999999998  0.56382  0.81992  1.0000
  C   C74       1.0  0.9592699999999997  0.5067999999999999  0.78198  1.0000
  C   C75       1.0  0.5325299999999997  0.65586  0.7345899999999999  1.0000
  C   C76       1.0  0.2610299999999999  0.5791299999999998  0.4036099999999999  1.0000
  C   C77       1.0  0.25257  0.53056  0.45383  1.0000
  C   C78       1.0  0.20505  0.43251  0.45399  1.0000
  C   C79       1.0  0.4582299999999999  0.26767  0.44108  1.0000
  C   C80       1.0  0.43222  0.16736  0.43970999999999993  1.0000
  C   C81       1.0  0.50053  0.33024  0.40004  1.0000
  C   C82       1.0  0.5182099999999996  0.42132999999999987  0.4042  1.0000
  C   C83       1.0  0.36842999999999987  0.91992  0.31525  1.0000
  C   C84       1.0  0.40121  0.012539999999999997  0.32776  1.0000
  C   C85       1.0  0.3753799999999999  0.9671799999999998  0.41729  1.0000
  C   C86       1.0  0.40494999999999987  0.03832  0.38011  1.0000
  C   C87       1.0  0.45319  0.39035  0.49023  1.0000
  C   C88       1.0  0.4361999999999999  0.29927  0.48650999999999994  1.0000
  C   C89       1.0  0.49317  0.4524799999999999  0.44861  1.0000
  C   C90       1.0  0.3440299999999999  0.8764499999999997  0.40127  1.0000
  C   C91       1.0  0.3182299999999999  0.5788599999999998  0.59648  1.0000
  C   C92       1.0  0.27791  0.53042  0.54623  1.0000
  C   C93       1.0  0.2272599999999999  0.4323599999999999  0.54593  1.0000
  C   C94       1.0  0.8089599999999998  0.26721999999999996  0.55893  1.0000
  C   C95       1.0  0.73453  0.16674  0.56036  1.0000
  C   C96       1.0  0.82923  0.32983  0.59991  1.0000
  C   C97       1.0  0.9028199999999998  0.42107  0.59573  1.0000
  C   C98       1.0  0.5511699999999998  0.9187299999999998  0.6850099999999998  1.0000
  C   C99       1.0  0.6106599999999998  0.011549999999999996  0.67244  1.0000
  C   C100      1.0  0.59109  0.96601  0.583  1.0000
  C   C101      1.0  0.63266  0.037369999999999994  0.62007  1.0000
  C   C102      1.0  0.9370299999999997  0.3902499999999999  0.50976  1.0000
  C   C103      1.0  0.86278  0.2990099999999999  0.51352  1.0000
  C   C104      1.0  0.95919  0.45238999999999996  0.55134  1.0000
  C   C105      1.0  0.53207  0.8750799999999997  0.5991  1.0000
  C   C106      1.0  0.26096999999999987  0.6818499999999997  0.92966  1.0000
  C   C107      1.0  0.2527599999999998  0.7218899999999998  0.87938  1.0000
  C   C108      1.0  0.2052999999999999  0.7723399999999999  0.87914  1.0000
  C   C109      1.0  0.45811999999999997  0.19044999999999995  0.8922  1.0000
  C   C110      1.0  0.43217999999999995  0.26474999999999993  0.89357  1.0000
  C   C111      1.0  0.50034  0.17028999999999994  0.9332899999999998  1.0000
  C   C112      1.0  0.51811  0.09696  0.92917  1.0000
  C   C113      1.0  0.36857999999999996  0.4484799999999999  0.01801  1.0000
  C   C114      1.0  0.4012  0.38859  0.00553  1.0000
  C   C115      1.0  0.3754599999999999  0.40799999999999986  0.916  1.0000
  C   C116      1.0  0.4049399999999999  0.36646  0.9532  1.0000
  C   C117      1.0  0.45322999999999986  0.06267  0.84308  1.0000
  C   C118      1.0  0.4362  0.1367  0.8468  1.0000
  C   C119      1.0  0.49317999999999995  0.0407  0.8847599999999998  1.0000
  C   C120      1.0  0.34424  0.46745  0.93193  1.0000
  C   C121      1.0  0.42074  0.73917  0.26318  1.0000
  C   C122      1.0  0.46923  0.74734  0.21295999999999998  1.0000
  C   C123      1.0  0.5673699999999998  0.7949199999999997  0.21276999999999996  1.0000
  C   C124      1.0  0.73258  0.54176  0.2256  1.0000
  C   C125      1.0  0.8330499999999998  0.56785  0.22699999999999995  1.0000
  C   C126      1.0  0.6698899999999998  0.4993899999999999  0.26662  1.0000
  C   C127      1.0  0.5787  0.48173  0.26244  1.0000
  C   C128      1.0  0.08081  0.63203  0.35167  1.0000
  C   C129      1.0  0.9880299999999999  0.5989499999999998  0.33908  1.0000
  C   C130      1.0  0.03367999999999999  0.6249  0.24962  1.0000
  C   C131      1.0  0.9622899999999998  0.5952  0.2867  1.0000
  C   C132      1.0  0.60977  0.54681  0.17642  1.0000
  C   C133      1.0  0.70094  0.5638  0.18019  1.0000
  C   C134      1.0  0.54756  0.5067999999999999  0.21803999999999998  1.0000
  C   C135      1.0  0.12457999999999989  0.6565699999999998  0.26574  1.0000
  C   C136      1.0  0.6817599999999998  0.4211399999999999  0.59648  1.0000
  C   C137      1.0  0.72208  0.46957999999999994  0.54623  1.0000
  C   C138      1.0  0.7727299999999998  0.56764  0.54593  1.0000
  C   C139      1.0  0.19103999999999988  0.7327799999999998  0.55893  1.0000
  C   C140      1.0  0.26546  0.83326  0.56036  1.0000
  C   C141      1.0  0.17076  0.67017  0.59991  1.0000
  C   C142      1.0  0.09716999999999995  0.57893  0.59573  1.0000
  C   C143      1.0  0.44883  0.08127  0.6850099999999998  1.0000
  C   C144      1.0  0.38933  0.98845  0.67244  1.0000
  C   C145      1.0  0.4088999999999999  0.033999999999999996  0.583  1.0000
  C   C146      1.0  0.36733999999999994  0.9626299999999999  0.62007  1.0000
  C   C147      1.0  0.06295999999999993  0.60975  0.50976  1.0000
  C   C148      1.0  0.13721  0.70099  0.51352  1.0000
  C   C149      1.0  0.04080999999999995  0.5476099999999999  0.55134  1.0000
  C   C150      1.0  0.46792  0.12492  0.5991  1.0000
  C   C151      1.0  0.73902  0.31815  0.92965  1.0000
  C   C152      1.0  0.7472399999999998  0.2781199999999999  0.87938  1.0000
  C   C153      1.0  0.79469  0.22765999999999995  0.87914  1.0000
  C   C154      1.0  0.5418799999999999  0.8095599999999997  0.8922  1.0000
  C   C155      1.0  0.5678099999999997  0.7352499999999997  0.89357  1.0000
  C   C156      1.0  0.49965  0.82971  0.9332899999999998  1.0000
  C   C157      1.0  0.4818799999999998  0.9030399999999997  0.92917  1.0000
  C   C158      1.0  0.6314099999999998  0.55152  0.01801  1.0000
  C   C159      1.0  0.59879  0.61141  0.00553  1.0000
  C   C160      1.0  0.6245399999999999  0.5920099999999999  0.916  1.0000
  C   C161      1.0  0.59506  0.63355  0.9532  1.0000
  C   C162      1.0  0.54676  0.93733  0.84308  1.0000
  C   C163      1.0  0.56379  0.8632999999999997  0.8468  1.0000
  C   C164      1.0  0.5068099999999998  0.9593099999999998  0.8847599999999998  1.0000
  C   C165      1.0  0.6557499999999997  0.5325499999999999  0.93193  1.0000
  C   C166      1.0  0.57926  0.26083999999999996  0.26318  1.0000
  C   C167      1.0  0.53076  0.25266  0.21295999999999998  1.0000
  C   C168      1.0  0.43262  0.20508  0.21276999999999996  1.0000
  C   C169      1.0  0.26742  0.45824  0.2256  1.0000
  C   C170      1.0  0.16695  0.43215  0.22699999999999995  1.0000
  C   C171      1.0  0.33011  0.50061  0.26662  1.0000
  C   C172      1.0  0.4213  0.51827  0.26244  1.0000
  C   C173      1.0  0.91919  0.36797  0.35167  1.0000
  C   C174      1.0  0.011969999999999934  0.4010599999999999  0.33908  1.0000
  C   C175      1.0  0.9663099999999998  0.37510999999999994  0.24962  1.0000
  C   C176      1.0  0.03771000000000001  0.4048  0.2867  1.0000
  C   C177      1.0  0.3902299999999998  0.45318999999999987  0.17642  1.0000
  C   C178      1.0  0.29906  0.43619999999999987  0.18019  1.0000
  C   C179      1.0  0.45243  0.4932  0.21803999999999998  1.0000
  C   C180      1.0  0.87541  0.3434399999999999  0.26574  1.0000
  C   C181      1.0  0.5798699999999998  0.28997999999999996  0.16673  1.0000
  C   C182      1.0  0.38351999999999986  0.19168999999999994  0.16685  1.0000
  C   C183      1.0  0.70992  0.2899  0.83323  1.0000
  C   C184      1.0  0.80793  0.19195999999999994  0.83318  1.0000
  C   C185      1.0  0.71021  0.42044  0.50006  1.0000
  C   C186      1.0  0.8083799999999995  0.61658  0.49993  1.0000
  C   C187      1.0  0.4201299999999999  0.71002  0.16673  1.0000
  C   C188      1.0  0.6164699999999997  0.80831  0.16685  1.0000
  C   C189      1.0  0.29007  0.7101  0.83323  1.0000
  C   C190      1.0  0.19206  0.80804  0.83318  1.0000
  C   C191      1.0  0.28978  0.57956  0.50006  1.0000
  C   C192      1.0  0.19161999999999996  0.38342  0.49993  1.0000
  N   N1        1.0  0.8499200000000001  0.51145  0.01731  1.0000
  N   N2        1.0  0.13051  0.69432  0.05840999999999999  1.0000
  N   N3        1.0  0.48813  0.3399999999999999  0.68445  1.0000
  N   N4        1.0  0.30462  0.43593  0.7251199999999999  1.0000
  N   N5        1.0  0.66017  0.14844999999999994  0.35116  1.0000
  N   N6        1.0  0.5639499999999998  0.8686999999999998  0.39178  1.0000
  N   N7        1.0  0.1500799999999999  0.4885499999999999  0.01731  1.0000
  N   N8        1.0  0.8694899999999998  0.3056799999999999  0.05840999999999999  1.0000
  N   N9        1.0  0.51186  0.66  0.68445  1.0000
  N   N10       1.0  0.6953699999999998  0.56407  0.7251199999999999  1.0000
  N   N11       1.0  0.33982999999999997  0.8515499999999999  0.35116  1.0000
  N   N12       1.0  0.43604999999999994  0.1313  0.39178  1.0000
  N   N13       1.0  0.51161  0.85006  0.64923  1.0000
  N   N14       1.0  0.6943899999999997  0.13051999999999997  0.60828  1.0000
  N   N15       1.0  0.3401399999999999  0.48825  0.98205  1.0000
  N   N16       1.0  0.43595  0.30457  0.94153  1.0000
  N   N17       1.0  0.14950999999999995  0.66097  0.31589  1.0000
  N   N18       1.0  0.86917  0.56399  0.27491  1.0000
  N   N19       1.0  0.48838999999999994  0.14994  0.64923  1.0000
  N   N20       1.0  0.30559999999999976  0.86948  0.60828  1.0000
  N   N21       1.0  0.6598599999999998  0.5117499999999999  0.98205  1.0000
  N   N22       1.0  0.5640499999999998  0.6954299999999999  0.94153  1.0000
  N   N23       1.0  0.8504899999999999  0.33902999999999994  0.31589  1.0000
  N   N24       1.0  0.13081999999999988  0.4360099999999999  0.27491  1.0000
  O   O1        1.0  0.6687399999999998  0.37216  0.07057  1.0000
  O   O2        1.0  0.53107  0.30005  0.029479999999999996  1.0000
  O   O3        1.0  0.11838999999999983  0.7132999999999998  0.14587  1.0000
  O   O4        1.0  0.6283  0.29731  0.73734  1.0000
  O   O5        1.0  0.69944  0.23125999999999997  0.69592  1.0000
  O   O6        1.0  0.28623  0.40536  0.81261  1.0000
  O   O7        1.0  0.70281  0.33111  0.40417  1.0000
  O   O8        1.0  0.76842  0.46855  0.36278  1.0000
  O   O9        1.0  0.5947  0.8808799999999998  0.47924  1.0000
  O   O10       1.0  0.3312499999999998  0.6278399999999997  0.07057  1.0000
  O   O11       1.0  0.46893  0.69995  0.029479999999999996  1.0000
  O   O12       1.0  0.8815999999999996  0.2867  0.14587  1.0000
  O   O13       1.0  0.37169  0.7027  0.73734  1.0000
  O   O14       1.0  0.30055  0.76874  0.69592  1.0000
  O   O15       1.0  0.71377  0.59464  0.81261  1.0000
  O   O16       1.0  0.29718  0.66889  0.40417  1.0000
  O   O17       1.0  0.23157999999999992  0.53145  0.36278  1.0000
  O   O18       1.0  0.4052999999999999  0.11911999999999998  0.47924  1.0000
  O   O19       1.0  0.37208  0.66857  0.59615  1.0000
  O   O20       1.0  0.30009  0.531  0.6372699999999999  1.0000
  O   O21       1.0  0.71338  0.11858  0.52081  1.0000
  O   O22       1.0  0.29742999999999997  0.6286299999999999  0.92917  1.0000
  O   O23       1.0  0.23109999999999986  0.6997699999999998  0.97039  1.0000
  O   O24       1.0  0.40538  0.28617999999999993  0.8540499999999999  1.0000
  O   O25       1.0  0.33102  0.70323  0.26277  1.0000
  O   O26       1.0  0.46845999999999977  0.7688099999999998  0.30407  1.0000
  O   O27       1.0  0.88128  0.5948599999999999  0.18743  1.0000
  O   O28       1.0  0.62792  0.3314299999999999  0.59615  1.0000
  O   O29       1.0  0.6998999999999997  0.4689999999999999  0.6372699999999999  1.0000
  O   O30       1.0  0.28662  0.88142  0.52081  1.0000
  O   O31       1.0  0.7025599999999997  0.37136999999999987  0.92917  1.0000
  O   O32       1.0  0.76889  0.30024  0.97039  1.0000
  O   O33       1.0  0.5946099999999997  0.71382  0.8540499999999999  1.0000
  O   O34       1.0  0.6689799999999999  0.29677  0.26277  1.0000
  O   O35       1.0  0.53153  0.23118999999999995  0.30407  1.0000
  O   O36       1.0  0.11870999999999994  0.4051399999999999  0.18743  1.0000
