data_image0
_chemical_formula_structural       Cd8H152C144N24O40
_chemical_formula_sum              "Cd8 H152 C144 N24 O40"
_cell_length_a       16.06354
_cell_length_b       16.39261
_cell_length_c       17.54597
_cell_angle_alpha    90.0
_cell_angle_beta     90.0
_cell_angle_gamma    119.41755

_space_group_name_H-M_alt    "P 1"
_space_group_IT_number       1

loop_
  _space_group_symop_operation_xyz
  'x, y, z'

loop_
  _atom_site_type_symbol
  _atom_site_label
  _atom_site_symmetry_multiplicity
  _atom_site_fract_x
  _atom_site_fract_y
  _atom_site_fract_z
  _atom_site_occupancy
  Cd  Cd1       1.0  0.21123  0.73846  0.029369999999999997  1.0000
  Cd  Cd2       1.0  0.52665  0.73878  0.4706199999999999  1.0000
  Cd  Cd3       1.0  0.7112300000000003  0.73846  0.97063  1.0000
  Cd  Cd4       1.0  0.026649999999999965  0.73878  0.52939  1.0000
  Cd  Cd5       1.0  0.28877  0.26154  0.029369999999999997  1.0000
  Cd  Cd6       1.0  0.9733500000000005  0.26122  0.47061  1.0000
  Cd  Cd7       1.0  0.78877  0.26154  0.97063  1.0000
  Cd  Cd8       1.0  0.47335  0.26122  0.52939  1.0000
  H   H1        1.0  0.4929  0.26175  0.11325999999999997  1.0000
  H   H2        1.0  0.41034  0.11741  0.002399999999999999  1.0000
  H   H3        1.0  0.39043  0.84294  0.13322  1.0000
  H   H4        1.0  0.14404  0.66238  0.29705  1.0000
  H   H5        1.0  0.04451999999999999  0.67487  0.2665099999999999  1.0000
  H   H6        1.0  0.29297  0.80153  0.34688  1.0000
  H   H7        1.0  0.3023  0.91365  0.34878  1.0000
  H   H8        1.0  0.30799999999999994  0.8638099999999999  0.26018  1.0000
  H   H9        1.0  0.28613999999999995  0.95276  0.9718399999999999  1.0000
  H   H10       1.0  0.51976  0.00218  0.17142999999999994  1.0000
  H   H11       1.0  0.55313  0.17221  0.17787  1.0000
  H   H12       1.0  0.62256  0.17989  0.09805999999999997  1.0000
  H   H13       1.0  0.56681  0.41511  0.12755  1.0000
  H   H14       1.0  0.62977  0.39002  0.8928999999999998  1.0000
  H   H15       1.0  0.66683  0.55779  0.87416  1.0000
  H   H16       1.0  0.60987  0.58111  0.10022  1.0000
  H   H17       1.0  0.17188  0.88834  0.20911  1.0000
  H   H18       1.0  0.1643  0.93579  0.2981  1.0000
  H   H19       1.0  0.06123  0.83816  0.25946  1.0000
  H   H20       1.0  0.7692900000000003  0.26161  0.38693  1.0000
  H   H21       1.0  0.70736  0.11755  0.49751999999999996  1.0000
  H   H22       1.0  0.45237  0.84302  0.3666  1.0000
  H   H23       1.0  0.51765  0.66226  0.20311999999999994  1.0000
  H   H24       1.0  0.63004  0.67549  0.23352999999999996  1.0000
  H   H25       1.0  0.50772  0.80161  0.15388  1.0000
  H   H26       1.0  0.61082  0.91375  0.15173  1.0000
  H   H27       1.0  0.55559  0.86376  0.24059  1.0000
  H   H28       1.0  0.66674  0.95301  0.52808  1.0000
  H   H29       1.0  0.48225  0.00215  0.32845  1.0000
  H   H30       1.0  0.61903  0.17205  0.32202  1.0000
  H   H31       1.0  0.55764  0.17976  0.4020799999999999  1.0000
  H   H32       1.0  0.84915  0.4153  0.3724699999999999  1.0000
  H   H33       1.0  0.76046  0.38954  0.6070499999999998  1.0000
  H   H34       1.0  0.89045  0.55783  0.62589  1.0000
  H   H35       1.0  0.97124  0.58195  0.3999099999999999  1.0000
  H   H36       1.0  0.71676  0.88851  0.29073  1.0000
  H   H37       1.0  0.7715599999999999  0.9360099999999999  0.20173999999999995  1.0000
  H   H38       1.0  0.7768  0.8383  0.23999999999999996  1.0000
  H   H39       1.0  0.9929  0.26175  0.8867399999999999  1.0000
  H   H40       1.0  0.9103400000000003  0.11741  0.9975999999999999  1.0000
  H   H41       1.0  0.89042  0.84294  0.86678  1.0000
  H   H42       1.0  0.64404  0.66238  0.70295  1.0000
  H   H43       1.0  0.54452  0.67487  0.7334899999999998  1.0000
  H   H44       1.0  0.79297  0.80153  0.65312  1.0000
  H   H45       1.0  0.8023  0.91365  0.65122  1.0000
  H   H46       1.0  0.8079899999999999  0.8638099999999999  0.73982  1.0000
  H   H47       1.0  0.78614  0.95276  0.028159999999999998  1.0000
  H   H48       1.0  0.01977  0.00218  0.8285699999999998  1.0000
  H   H49       1.0  0.05313000000000001  0.17221  0.82213  1.0000
  H   H50       1.0  0.12256000000000003  0.17989  0.9019399999999997  1.0000
  H   H51       1.0  0.06681000000000001  0.41511  0.8724499999999997  1.0000
  H   H52       1.0  0.12977  0.39002  0.10709999999999997  1.0000
  H   H53       1.0  0.16682999999999995  0.55779  0.12585  1.0000
  H   H54       1.0  0.10987000000000004  0.58111  0.8997799999999998  1.0000
  H   H55       1.0  0.67188  0.88834  0.7908899999999999  1.0000
  H   H56       1.0  0.66429  0.93579  0.7019  1.0000
  H   H57       1.0  0.56123  0.83816  0.74054  1.0000
  H   H58       1.0  0.26929  0.26161  0.61307  1.0000
  H   H59       1.0  0.20736  0.11755  0.50248  1.0000
  H   H60       1.0  0.95237  0.84302  0.6333999999999997  1.0000
  H   H61       1.0  0.017650000000000013  0.66226  0.79688  1.0000
  H   H62       1.0  0.13004000000000004  0.67549  0.76648  1.0000
  H   H63       1.0  0.0077200000000000255  0.80161  0.84612  1.0000
  H   H64       1.0  0.11081999999999997  0.91375  0.8482699999999999  1.0000
  H   H65       1.0  0.05559  0.86376  0.7594099999999998  1.0000
  H   H66       1.0  0.16675  0.95301  0.47192999999999996  1.0000
  H   H67       1.0  0.98225  0.00215  0.6715599999999998  1.0000
  H   H68       1.0  0.11902999999999998  0.17205  0.67798  1.0000
  H   H69       1.0  0.05764000000000001  0.17976  0.59792  1.0000
  H   H70       1.0  0.34915  0.4153  0.62754  1.0000
  H   H71       1.0  0.26047  0.38953  0.3929499999999999  1.0000
  H   H72       1.0  0.39045000000000013  0.55783  0.37412  1.0000
  H   H73       1.0  0.47123999999999994  0.58195  0.60009  1.0000
  H   H74       1.0  0.21675999999999995  0.88851  0.7092699999999997  1.0000
  H   H75       1.0  0.27155999999999997  0.9360099999999999  0.79826  1.0000
  H   H76       1.0  0.27679999999999993  0.8383  0.76  1.0000
  H   H77       1.0  0.007100000000000021  0.73825  0.11325999999999997  1.0000
  H   H78       1.0  0.08966000000000003  0.88259  0.002399999999999999  1.0000
  H   H79       1.0  0.10958  0.15706  0.13322  1.0000
  H   H80       1.0  0.35596  0.33761  0.29705  1.0000
  H   H81       1.0  0.45548  0.32513  0.2665099999999999  1.0000
  H   H82       1.0  0.20703  0.19847  0.34688  1.0000
  H   H83       1.0  0.1977  0.08634  0.34878  1.0000
  H   H84       1.0  0.19201  0.13619  0.26018  1.0000
  H   H85       1.0  0.21386  0.04724  0.9718399999999999  1.0000
  H   H86       1.0  0.98023  0.99782  0.17142999999999994  1.0000
  H   H87       1.0  0.94687  0.82779  0.17787  1.0000
  H   H88       1.0  0.87744  0.82011  0.09805999999999997  1.0000
  H   H89       1.0  0.9331900000000003  0.5848800000000001  0.12755  1.0000
  H   H90       1.0  0.8702300000000002  0.60998  0.8928999999999998  1.0000
  H   H91       1.0  0.83317  0.44221  0.87416  1.0000
  H   H92       1.0  0.89013  0.41889  0.10022  1.0000
  H   H93       1.0  0.32812000000000013  0.11166000000000001  0.20911  1.0000
  H   H94       1.0  0.3357  0.06421  0.2981  1.0000
  H   H95       1.0  0.43877  0.16184  0.25946  1.0000
  H   H96       1.0  0.73071  0.73839  0.38693  1.0000
  H   H97       1.0  0.79263  0.88245  0.49751999999999996  1.0000
  H   H98       1.0  0.04762999999999999  0.15698  0.3666  1.0000
  H   H99       1.0  0.98235  0.33774  0.20311999999999994  1.0000
  H   H100      1.0  0.86996  0.32451  0.23352999999999996  1.0000
  H   H101      1.0  0.99228  0.19839  0.15388  1.0000
  H   H102      1.0  0.88918  0.08624000000000001  0.15173  1.0000
  H   H103      1.0  0.94441  0.13623  0.24059  1.0000
  H   H104      1.0  0.83325  0.04698  0.52808  1.0000
  H   H105      1.0  0.017749999999999887  0.99785  0.32845  1.0000
  H   H106      1.0  0.88097  0.82795  0.32202  1.0000
  H   H107      1.0  0.94236  0.82023  0.4020799999999999  1.0000
  H   H108      1.0  0.65085  0.5847  0.3724699999999999  1.0000
  H   H109      1.0  0.7395300000000002  0.61046  0.6070499999999998  1.0000
  H   H110      1.0  0.60955  0.44217  0.62589  1.0000
  H   H111      1.0  0.52876  0.41805  0.3999099999999999  1.0000
  H   H112      1.0  0.78324  0.11148000000000001  0.29073  1.0000
  H   H113      1.0  0.72844  0.06398  0.20173999999999995  1.0000
  H   H114      1.0  0.7232000000000001  0.16169  0.23999999999999996  1.0000
  H   H115      1.0  0.50711  0.73825  0.8867399999999999  1.0000
  H   H116      1.0  0.58966  0.88259  0.9975999999999999  1.0000
  H   H117      1.0  0.6095700000000002  0.15706  0.86678  1.0000
  H   H118      1.0  0.85596  0.33761  0.70295  1.0000
  H   H119      1.0  0.95548  0.32513  0.7334899999999998  1.0000
  H   H120      1.0  0.70703  0.19847  0.65312  1.0000
  H   H121      1.0  0.6977  0.08634  0.65122  1.0000
  H   H122      1.0  0.692  0.13619  0.73982  1.0000
  H   H123      1.0  0.71386  0.04724  0.028159999999999998  1.0000
  H   H124      1.0  0.48023  0.99782  0.8285699999999998  1.0000
  H   H125      1.0  0.44687  0.82779  0.82213  1.0000
  H   H126      1.0  0.3774400000000001  0.82011  0.9019399999999997  1.0000
  H   H127      1.0  0.4331900000000001  0.5848800000000001  0.8724499999999997  1.0000
  H   H128      1.0  0.37023  0.60998  0.10709999999999997  1.0000
  H   H129      1.0  0.33317  0.44221  0.12585  1.0000
  H   H130      1.0  0.39013  0.41889  0.8997799999999998  1.0000
  H   H131      1.0  0.8281200000000001  0.11166000000000001  0.7908899999999999  1.0000
  H   H132      1.0  0.8357  0.06421  0.7019  1.0000
  H   H133      1.0  0.93877  0.16184  0.74054  1.0000
  H   H134      1.0  0.23071000000000005  0.73839  0.61307  1.0000
  H   H135      1.0  0.29264  0.88245  0.50248  1.0000
  H   H136      1.0  0.54763  0.15698  0.6333999999999997  1.0000
  H   H137      1.0  0.48235000000000006  0.33774  0.79688  1.0000
  H   H138      1.0  0.36996  0.32451  0.76648  1.0000
  H   H139      1.0  0.49228  0.19839  0.84612  1.0000
  H   H140      1.0  0.38918  0.08624000000000001  0.8482699999999999  1.0000
  H   H141      1.0  0.44441  0.13623  0.7594099999999998  1.0000
  H   H142      1.0  0.33326  0.04698  0.47192  1.0000
  H   H143      1.0  0.51775  0.99785  0.6715599999999998  1.0000
  H   H144      1.0  0.38097  0.82795  0.67798  1.0000
  H   H145      1.0  0.44236  0.82023  0.59792  1.0000
  H   H146      1.0  0.15085  0.5847  0.62754  1.0000
  H   H147      1.0  0.23952999999999997  0.61046  0.3929499999999999  1.0000
  H   H148      1.0  0.10954999999999997  0.44217  0.37412  1.0000
  H   H149      1.0  0.028759999999999994  0.41805  0.6001  1.0000
  H   H150      1.0  0.28324  0.11148000000000001  0.7092699999999997  1.0000
  H   H151      1.0  0.22844  0.06398  0.79826  1.0000
  H   H152      1.0  0.2232  0.16169  0.76  1.0000
  C   C1        1.0  0.409  0.05901  0.03317  1.0000
  C   C2        1.0  0.39778  0.90585  0.10627  1.0000
  C   C3        1.0  0.47508  0.07363  0.09069999999999998  1.0000
  C   C4        1.0  0.15626  0.7158399999999999  0.18388999999999997  1.0000
  C   C5        1.0  0.12270000000000005  0.70716  0.26572  1.0000
  C   C6        1.0  0.16479  0.80333  0.30774999999999997  1.0000
  C   C7        1.0  0.27346999999999994  0.84809  0.3163299999999999  1.0000
  C   C8        1.0  0.33951  0.96753  0.015839999999999996  1.0000
  C   C9        1.0  0.4690799999999999  0.99472  0.12702  1.0000
  C   C10       1.0  0.59529  0.38954  0.01174  1.0000
  C   C11       1.0  0.5521800000000002  0.16952  0.11526  1.0000
  C   C12       1.0  0.59067  0.29693  0.02529  1.0000
  C   C13       1.0  0.5875600000000002  0.44329  0.07035  1.0000
  C   C14       1.0  0.62174  0.42981  0.93919  1.0000
  C   C15       1.0  0.64266  0.52202  0.9286899999999999  1.0000
  C   C16       1.0  0.61053  0.53545  0.05547999999999999  1.0000
  C   C17       1.0  0.13892  0.87041  0.26582  1.0000
  C   C18       1.0  0.11414  0.77937  0.3859199999999999  1.0000
  C   C19       1.0  0.65013  0.05913  0.46675999999999995  1.0000
  C   C20       1.0  0.5079600000000002  0.9059599999999999  0.3935999999999999  1.0000
  C   C21       1.0  0.59864  0.07364  0.4092099999999999  1.0000
  C   C22       1.0  0.55885  0.71591  0.3162  1.0000
  C   C23       1.0  0.58384  0.70732  0.23441  1.0000
  C   C24       1.0  0.63791  0.80348  0.19230999999999995  1.0000
  C   C25       1.0  0.57405  0.84822  0.18423  1.0000
  C   C26       1.0  0.62811  0.96772  0.48408  1.0000
  C   C27       1.0  0.52552  0.99474  0.37287  1.0000
  C   C28       1.0  0.7947900000000002  0.38947  0.48824999999999996  1.0000
  C   C29       1.0  0.61754  0.16943  0.38464  1.0000
  C   C30       1.0  0.70662  0.29686  0.47459999999999997  1.0000
  C   C31       1.0  0.8563299999999999  0.44345  0.42965  1.0000
  C   C32       1.0  0.80832  0.42962  0.56083  1.0000
  C   C33       1.0  0.87927  0.52205  0.5713899999999997  1.0000
  C   C34       1.0  0.92513  0.53584  0.4445999999999999  1.0000
  C   C35       1.0  0.73139  0.87055  0.23393  1.0000
  C   C36       1.0  0.66398  0.77949  0.11393  1.0000
  C   C37       1.0  0.9090000000000003  0.05901  0.9668299999999999  1.0000
  C   C38       1.0  0.89778  0.90585  0.8937299999999998  1.0000
  C   C39       1.0  0.97508  0.07363  0.9092999999999998  1.0000
  C   C40       1.0  0.6562599999999998  0.7158399999999999  0.81611  1.0000
  C   C41       1.0  0.6227  0.70716  0.73428  1.0000
  C   C42       1.0  0.66479  0.80333  0.69225  1.0000
  C   C43       1.0  0.77347  0.84809  0.6836699999999998  1.0000
  C   C44       1.0  0.8395  0.96753  0.98416  1.0000
  C   C45       1.0  0.96908  0.99472  0.8729799999999998  1.0000
  C   C46       1.0  0.09529000000000003  0.38954  0.98826  1.0000
  C   C47       1.0  0.05218000000000001  0.16952  0.88474  1.0000
  C   C48       1.0  0.09066999999999997  0.29693  0.97471  1.0000
  C   C49       1.0  0.08756  0.44329  0.9296499999999999  1.0000
  C   C50       1.0  0.12174000000000003  0.42981  0.060809999999999996  1.0000
  C   C51       1.0  0.14266  0.52202  0.07131  1.0000
  C   C52       1.0  0.11052999999999999  0.53545  0.94452  1.0000
  C   C53       1.0  0.63892  0.87041  0.73418  1.0000
  C   C54       1.0  0.61414  0.77937  0.6140799999999998  1.0000
  C   C55       1.0  0.15013  0.05913  0.5332399999999998  1.0000
  C   C56       1.0  0.007959999999999967  0.9059599999999999  0.6063999999999998  1.0000
  C   C57       1.0  0.09864000000000003  0.07364  0.59079  1.0000
  C   C58       1.0  0.05885000000000002  0.71591  0.6838  1.0000
  C   C59       1.0  0.08384  0.70732  0.7655899999999998  1.0000
  C   C60       1.0  0.13791  0.80348  0.80769  1.0000
  C   C61       1.0  0.07405000000000002  0.84822  0.81577  1.0000
  C   C62       1.0  0.12811000000000003  0.96772  0.51592  1.0000
  C   C63       1.0  0.025520000000000015  0.99474  0.62713  1.0000
  C   C64       1.0  0.29479  0.38947  0.5117499999999999  1.0000
  C   C65       1.0  0.11755  0.16943  0.6153599999999998  1.0000
  C   C66       1.0  0.20662000000000005  0.29686  0.5254  1.0000
  C   C67       1.0  0.35633  0.44345  0.57035  1.0000
  C   C68       1.0  0.30832  0.42962  0.43917  1.0000
  C   C69       1.0  0.37926999999999994  0.52205  0.4286099999999999  1.0000
  C   C70       1.0  0.42513  0.53584  0.5553999999999998  1.0000
  C   C71       1.0  0.23138999999999996  0.87055  0.76607  1.0000
  C   C72       1.0  0.16398000000000001  0.77949  0.8860699999999998  1.0000
  C   C73       1.0  0.09099999999999997  0.94099  0.03317  1.0000
  C   C74       1.0  0.10222  0.09414  0.10627  1.0000
  C   C75       1.0  0.024919999999999998  0.92636  0.09069999999999998  1.0000
  C   C76       1.0  0.34374  0.28416  0.18388999999999997  1.0000
  C   C77       1.0  0.3773  0.29284  0.26572  1.0000
  C   C78       1.0  0.33521  0.19667  0.30774999999999997  1.0000
  C   C79       1.0  0.22653  0.15190999999999996  0.3163299999999999  1.0000
  C   C80       1.0  0.1605  0.03247  0.015839999999999996  1.0000
  C   C81       1.0  0.03092  0.00528  0.12702  1.0000
  C   C82       1.0  0.90471  0.61045  0.01174  1.0000
  C   C83       1.0  0.94782  0.83047  0.11526  1.0000
  C   C84       1.0  0.90933  0.70307  0.02529  1.0000
  C   C85       1.0  0.91244  0.55671  0.07035  1.0000
  C   C86       1.0  0.87826  0.57018  0.93919  1.0000
  C   C87       1.0  0.85734  0.47798  0.9286899999999999  1.0000
  C   C88       1.0  0.88947  0.46454  0.05547999999999999  1.0000
  C   C89       1.0  0.36108  0.12958  0.26582  1.0000
  C   C90       1.0  0.38586  0.22063  0.3859199999999999  1.0000
  C   C91       1.0  0.84986  0.94086  0.46675999999999995  1.0000
  C   C92       1.0  0.99204  0.09403  0.3935999999999999  1.0000
  C   C93       1.0  0.90136  0.92636  0.4092099999999999  1.0000
  C   C94       1.0  0.94115  0.28408  0.3162  1.0000
  C   C95       1.0  0.9161599999999999  0.29267  0.23441  1.0000
  C   C96       1.0  0.86209  0.19652  0.19230999999999995  1.0000
  C   C97       1.0  0.9259500000000002  0.15178  0.18423  1.0000
  C   C98       1.0  0.8718900000000003  0.03228  0.48408  1.0000
  C   C99       1.0  0.97448  0.00526  0.37287  1.0000
  C   C100      1.0  0.70521  0.6105199999999998  0.48824999999999996  1.0000
  C   C101      1.0  0.88245  0.83057  0.38464  1.0000
  C   C102      1.0  0.7933800000000002  0.70314  0.47459999999999997  1.0000
  C   C103      1.0  0.64367  0.55655  0.42965  1.0000
  C   C104      1.0  0.6916700000000002  0.57037  0.56083  1.0000
  C   C105      1.0  0.62073  0.47795  0.5713899999999997  1.0000
  C   C106      1.0  0.57486  0.4641600000000001  0.4445999999999999  1.0000
  C   C107      1.0  0.76861  0.12945  0.23393  1.0000
  C   C108      1.0  0.83602  0.22051000000000004  0.11393  1.0000
  C   C109      1.0  0.591  0.94099  0.9668299999999999  1.0000
  C   C110      1.0  0.60222  0.09414  0.8937299999999998  1.0000
  C   C111      1.0  0.5249200000000003  0.92636  0.9092999999999998  1.0000
  C   C112      1.0  0.84374  0.28416  0.81611  1.0000
  C   C113      1.0  0.8773  0.29284  0.73428  1.0000
  C   C114      1.0  0.83521  0.19667  0.69225  1.0000
  C   C115      1.0  0.7265300000000002  0.15190999999999996  0.6836699999999998  1.0000
  C   C116      1.0  0.6605000000000002  0.03247  0.98416  1.0000
  C   C117      1.0  0.53092  0.00528  0.8729799999999998  1.0000
  C   C118      1.0  0.40471  0.61045  0.98826  1.0000
  C   C119      1.0  0.44782  0.83047  0.88474  1.0000
  C   C120      1.0  0.40933  0.70307  0.97471  1.0000
  C   C121      1.0  0.41244  0.55671  0.9296499999999999  1.0000
  C   C122      1.0  0.37826  0.57018  0.060809999999999996  1.0000
  C   C123      1.0  0.35734  0.47798  0.07131  1.0000
  C   C124      1.0  0.38947  0.46455  0.94452  1.0000
  C   C125      1.0  0.86108  0.12958  0.73418  1.0000
  C   C126      1.0  0.88586  0.22063  0.6140799999999998  1.0000
  C   C127      1.0  0.34987  0.94086  0.5332399999999998  1.0000
  C   C128      1.0  0.49204  0.09403  0.6063999999999998  1.0000
  C   C129      1.0  0.40136  0.92636  0.59079  1.0000
  C   C130      1.0  0.44114999999999993  0.28408  0.6838  1.0000
  C   C131      1.0  0.41616  0.29267  0.7655899999999998  1.0000
  C   C132      1.0  0.36209  0.19652  0.80769  1.0000
  C   C133      1.0  0.42595  0.15178  0.81577  1.0000
  C   C134      1.0  0.37189  0.03228  0.51592  1.0000
  C   C135      1.0  0.47448  0.00526  0.62713  1.0000
  C   C136      1.0  0.20521  0.6105199999999998  0.5117499999999999  1.0000
  C   C137      1.0  0.38245  0.83057  0.6153599999999998  1.0000
  C   C138      1.0  0.29338  0.70314  0.5254  1.0000
  C   C139      1.0  0.14367  0.55655  0.57035  1.0000
  C   C140      1.0  0.19168  0.57037  0.43917  1.0000
  C   C141      1.0  0.12073  0.47795  0.4286099999999999  1.0000
  C   C142      1.0  0.07487000000000002  0.4641600000000001  0.5553999999999998  1.0000
  C   C143      1.0  0.26861  0.12945  0.76607  1.0000
  C   C144      1.0  0.33602  0.22051000000000004  0.8860699999999998  1.0000
  N   N1        1.0  0.33276  0.89199  0.051819999999999984  1.0000
  N   N2        1.0  0.54366  0.24857000000000004  0.08798  1.0000
  N   N3        1.0  0.63905  0.57494  0.98623  1.0000
  N   N4        1.0  0.55922  0.8922  0.4480099999999999  1.0000
  N   N5        1.0  0.70525  0.24851  0.41193  1.0000
  N   N6        1.0  0.93573  0.5752  0.51385  1.0000
  N   N7        1.0  0.83276  0.89199  0.94818  1.0000
  N   N8        1.0  0.04365999999999997  0.24858  0.9120199999999999  1.0000
  N   N9        1.0  0.13905  0.57494  0.01377  1.0000
  N   N10       1.0  0.05922000000000001  0.8922  0.55199  1.0000
  N   N11       1.0  0.20525  0.24851  0.58807  1.0000
  N   N12       1.0  0.43573  0.5752  0.48615  1.0000
  N   N13       1.0  0.16724  0.10801  0.051819999999999984  1.0000
  N   N14       1.0  0.9563400000000002  0.75142  0.08798  1.0000
  N   N15       1.0  0.8609500000000001  0.42506  0.98623  1.0000
  N   N16       1.0  0.94078  0.1078  0.4480099999999999  1.0000
  N   N17       1.0  0.79475  0.75148  0.41193  1.0000
  N   N18       1.0  0.56427  0.42479  0.51385  1.0000
  N   N19       1.0  0.66724  0.10801  0.94818  1.0000
  N   N20       1.0  0.45634  0.75142  0.9120199999999999  1.0000
  N   N21       1.0  0.3609500000000001  0.42506  0.01377  1.0000
  N   N22       1.0  0.44078  0.1078  0.55199  1.0000
  N   N23       1.0  0.29474999999999996  0.75148  0.58807  1.0000
  N   N24       1.0  0.06427000000000001  0.42479  0.48615  1.0000
  O   O1        1.0  0.22956  0.70924  0.16767  1.0000
  O   O2        1.0  0.10817000000000004  0.73067  0.13222999999999996  1.0000
  O   O3        1.0  0.16253000000000006  0.78995  0.44662  1.0000
  O   O4        1.0  0.63563  0.27262  0.98122  1.0000
  O   O5        1.0  0.02415999999999998  0.74799  0.3868499999999999  1.0000
  O   O6        1.0  0.47889999999999994  0.7095099999999999  0.33226  1.0000
  O   O7        1.0  0.6216  0.7305  0.36795  1.0000
  O   O8        1.0  0.62566  0.78979  0.05348  1.0000
  O   O9        1.0  0.63724  0.27254  0.5186399999999998  1.0000
  O   O10       1.0  0.72278  0.74837  0.11275  1.0000
  O   O11       1.0  0.72956  0.70924  0.83233  1.0000
  O   O12       1.0  0.60817  0.73067  0.86777  1.0000
  O   O13       1.0  0.6625300000000002  0.78995  0.55338  1.0000
  O   O14       1.0  0.13563  0.27262  0.01878  1.0000
  O   O15       1.0  0.52416  0.74799  0.61315  1.0000
  O   O16       1.0  0.9788999999999999  0.7095099999999999  0.66775  1.0000
  O   O17       1.0  0.12161  0.7305  0.63205  1.0000
  O   O18       1.0  0.12566  0.78979  0.9465199999999999  1.0000
  O   O19       1.0  0.13725  0.27254  0.48136  1.0000
  O   O20       1.0  0.22278  0.74837  0.8872499999999998  1.0000
  O   O21       1.0  0.27044  0.29075999999999996  0.16767  1.0000
  O   O22       1.0  0.39183  0.26933  0.13222999999999996  1.0000
  O   O23       1.0  0.33747  0.21005  0.44662  1.0000
  O   O24       1.0  0.8643700000000001  0.72738  0.98122  1.0000
  O   O25       1.0  0.47584  0.25201  0.3868499999999999  1.0000
  O   O26       1.0  0.021099999999999997  0.29049  0.33226  1.0000
  O   O27       1.0  0.87839  0.2695  0.36795  1.0000
  O   O28       1.0  0.8743400000000002  0.21021  0.05348  1.0000
  O   O29       1.0  0.8627500000000001  0.7274600000000001  0.5186399999999998  1.0000
  O   O30       1.0  0.77722  0.25163  0.11275  1.0000
  O   O31       1.0  0.7704399999999999  0.29075999999999996  0.83233  1.0000
  O   O32       1.0  0.89183  0.26933  0.86777  1.0000
  O   O33       1.0  0.83747  0.21005  0.55338  1.0000
  O   O34       1.0  0.36437  0.72738  0.01878  1.0000
  O   O35       1.0  0.97584  0.252  0.61315  1.0000
  O   O36       1.0  0.52109  0.29049  0.66774  1.0000
  O   O37       1.0  0.3784  0.2695  0.63205  1.0000
  O   O38       1.0  0.37434  0.21021  0.9465199999999999  1.0000
  O   O39       1.0  0.3627500000000001  0.7274600000000001  0.48136  1.0000
  O   O40       1.0  0.27722  0.25163  0.8872499999999998  1.0000
