data_image0
_chemical_formula_structural       Cu4H96C96N48
_chemical_formula_sum              "Cu4 H96 C96 N48"
_cell_length_a       11.11711
_cell_length_b       13.74677
_cell_length_c       25.093939999999996
_cell_angle_alpha    90.02299000000001
_cell_angle_beta     80.14671
_cell_angle_gamma    90.02223

_space_group_name_H-M_alt    "P 1"
_space_group_IT_number       1

loop_
  _space_group_symop_operation_xyz
  'x, y, z'

loop_
  _atom_site_type_symbol
  _atom_site_label
  _atom_site_symmetry_multiplicity
  _atom_site_fract_x
  _atom_site_fract_y
  _atom_site_fract_z
  _atom_site_occupancy
  Cu  Cu1       1.0  0.44549  0.73841  0.7481200000000001  1.0000
  Cu  Cu2       1.0  0.054260000000000023  0.23797  0.75232  1.0000
  Cu  Cu3       1.0  0.5545199999999999  0.26159  0.25188000000000005  1.0000
  Cu  Cu4       1.0  0.94574  0.76203  0.24768  1.0000
  H   H1        1.0  0.60304  0.80193  0.8529800000000001  1.0000
  H   H2        1.0  0.6454799999999998  0.8828899999999998  0.68933  1.0000
  H   H3        1.0  0.37555999999999995  0.89902  0.8299400000000001  1.0000
  H   H4        1.0  0.15238999999999991  0.66593  0.7959900000000001  1.0000
  H   H5        1.0  0.23154999999999995  0.58217  0.6912900000000001  1.0000
  H   H6        1.0  0.021999999999999964  0.77534  0.6157500000000001  1.0000
  H   H7        1.0  0.8548099999999997  0.65465  0.59824  1.0000
  H   H8        1.0  0.85175  0.53967  0.63074  1.0000
  H   H9        1.0  0.12835  0.62331  0.53571  1.0000
  H   H10       1.0  0.79896  0.45275  0.5531200000000001  1.0000
  H   H11       1.0  0.69543  0.68454  0.67691  1.0000
  H   H12       1.0  0.35495999999999994  0.73132  0.62982  1.0000
  H   H13       1.0  0.60138  0.73834  0.50236  1.0000
  H   H14       1.0  0.43973  0.74701  0.52379  1.0000
  H   H15       1.0  0.32518  0.58349  0.55698  1.0000
  H   H16       1.0  0.6914100000000001  0.58964  0.4652  1.0000
  H   H17       1.0  0.8803799999999999  0.98617  0.70207  1.0000
  H   H18       1.0  0.8447  0.04598  0.76555  1.0000
  H   H19       1.0  0.77597  0.02567  0.62607  1.0000
  H   H20       1.0  0.6428  0.13844  0.5855000000000001  1.0000
  H   H21       1.0  0.5361699999999998  0.27913  0.7402000000000002  1.0000
  H   H22       1.0  0.6626399999999999  0.16345  0.7811000000000001  1.0000
  H   H23       1.0  0.9527299999999997  0.86771  0.86073  1.0000
  H   H24       1.0  0.97624  0.78176  0.91045  1.0000
  H   H25       1.0  0.89736  0.30133  0.64695  1.0000
  H   H26       1.0  0.8537899999999999  0.38264999999999993  0.8106500000000001  1.0000
  H   H27       1.0  0.12358999999999995  0.39837  0.67048  1.0000
  H   H28       1.0  0.34646999999999994  0.16485999999999998  0.7038800000000001  1.0000
  H   H29       1.0  0.26816999999999996  0.08249  0.8086900000000002  1.0000
  H   H30       1.0  0.47725999999999996  0.27556  0.8846200000000002  1.0000
  H   H31       1.0  0.6447899999999999  0.15504  0.9017700000000002  1.0000
  H   H32       1.0  0.6480699999999998  0.04013  0.86922  1.0000
  H   H33       1.0  0.37231  0.12451  0.96495  1.0000
  H   H34       1.0  0.70009  0.95194  0.94635  1.0000
  H   H35       1.0  0.8036000000000001  0.18469  0.82344  1.0000
  H   H36       1.0  0.14458999999999986  0.23086  0.8703500000000002  1.0000
  H   H37       1.0  0.89911  0.23861999999999997  0.99791  1.0000
  H   H38       1.0  0.060559999999999906  0.24692  0.9762900000000002  1.0000
  H   H39       1.0  0.17523999999999995  0.0842  0.9438100000000001  1.0000
  H   H40       1.0  0.80784  0.08903  0.03438  1.0000
  H   H41       1.0  0.61963  0.48583  0.79758  1.0000
  H   H42       1.0  0.6554399999999999  0.54537  0.7341000000000001  1.0000
  H   H43       1.0  0.7232999999999999  0.52631  0.8737  1.0000
  H   H44       1.0  0.8555399999999997  0.6399  0.9143400000000003  1.0000
  H   H45       1.0  0.96314  0.77952  0.75942  1.0000
  H   H46       1.0  0.83782  0.66289  0.71848  1.0000
  H   H47       1.0  0.5459099999999999  0.36641  0.6385200000000001  1.0000
  H   H48       1.0  0.5224299999999998  0.27964  0.5891600000000001  1.0000
  H   H49       1.0  0.39697  0.19807  0.14702  1.0000
  H   H50       1.0  0.35453  0.11711  0.31067000000000006  1.0000
  H   H51       1.0  0.62445  0.10098  0.17006000000000004  1.0000
  H   H52       1.0  0.8476099999999999  0.33407  0.20401  1.0000
  H   H53       1.0  0.76845  0.41783  0.30871  1.0000
  H   H54       1.0  0.97801  0.22465  0.38425  1.0000
  H   H55       1.0  0.14519999999999997  0.34535  0.40176000000000006  1.0000
  H   H56       1.0  0.14824999999999997  0.46033  0.3692600000000001  1.0000
  H   H57       1.0  0.8716499999999999  0.37669  0.46429000000000004  1.0000
  H   H58       1.0  0.20105  0.54724  0.44688000000000005  1.0000
  H   H59       1.0  0.30458000000000013  0.31546  0.32309  1.0000
  H   H60       1.0  0.64505  0.26868  0.37018  1.0000
  H   H61       1.0  0.39862  0.26166  0.49764  1.0000
  H   H62       1.0  0.5602799999999999  0.25298  0.47621000000000013  1.0000
  H   H63       1.0  0.6748299999999999  0.41651  0.44302  1.0000
  H   H64       1.0  0.3085899999999999  0.41035  0.5348000000000002  1.0000
  H   H65       1.0  0.11962999999999997  0.01383  0.29793  1.0000
  H   H66       1.0  0.15529999999999997  0.95402  0.23445  1.0000
  H   H67       1.0  0.22403999999999996  0.9743200000000001  0.37393  1.0000
  H   H68       1.0  0.3572  0.8615599999999999  0.4145  1.0000
  H   H69       1.0  0.46383  0.72087  0.2598  1.0000
  H   H70       1.0  0.33736999999999995  0.83655  0.21890000000000007  1.0000
  H   H71       1.0  0.047270000000000006  0.13229  0.13927  1.0000
  H   H72       1.0  0.023769999999999996  0.21824000000000002  0.08954  1.0000
  H   H73       1.0  0.10264999999999995  0.69866  0.35305000000000003  1.0000
  H   H74       1.0  0.14622000000000002  0.61735  0.18935  1.0000
  H   H75       1.0  0.8764199999999999  0.60163  0.32952000000000004  1.0000
  H   H76       1.0  0.65354  0.8351399999999999  0.29612000000000005  1.0000
  H   H77       1.0  0.73184  0.9175  0.19131000000000006  1.0000
  H   H78       1.0  0.52275  0.72443  0.11538  1.0000
  H   H79       1.0  0.35522  0.84496  0.09823  1.0000
  H   H80       1.0  0.35194000000000003  0.95987  0.13078  1.0000
  H   H81       1.0  0.6277  0.87549  0.03505  1.0000
  H   H82       1.0  0.29991  0.04806  0.05365000000000001  1.0000
  H   H83       1.0  0.1964  0.81531  0.17656  1.0000
  H   H84       1.0  0.85542  0.76913  0.12965  1.0000
  H   H85       1.0  0.1009  0.76138  0.00209  1.0000
  H   H86       1.0  0.93944  0.75308  0.023710000000000005  1.0000
  H   H87       1.0  0.8247699999999999  0.91579  0.05619  1.0000
  H   H88       1.0  0.19217000000000006  0.91097  0.96562  1.0000
  H   H89       1.0  0.38037  0.51417  0.20242000000000004  1.0000
  H   H90       1.0  0.34457  0.45463  0.2659  1.0000
  H   H91       1.0  0.27670000000000006  0.47368  0.12629  1.0000
  H   H92       1.0  0.14446999999999996  0.3601  0.08566000000000003  1.0000
  H   H93       1.0  0.036860000000000004  0.22048  0.24058  1.0000
  H   H94       1.0  0.16219  0.33711  0.28152  1.0000
  H   H95       1.0  0.4541  0.63359  0.36148  1.0000
  H   H96       1.0  0.47757  0.72036  0.41083  1.0000
  C   C1        1.0  0.6336999999999999  0.83844  0.8148900000000002  1.0000
  C   C2        1.0  0.65587  0.87575  0.7312200000000002  1.0000
  C   C3        1.0  0.2977399999999999  0.8514  0.8295100000000002  1.0000
  C   C4        1.0  0.1872099999999999  0.73147  0.8117400000000002  1.0000
  C   C5        1.0  0.16123999999999997  0.61238  0.67102  1.0000
  C   C6        1.0  0.058849999999999965  0.71189  0.6328500000000001  1.0000
  C   C7        1.0  0.9101899999999998  0.59067  0.6043100000000001  1.0000
  C   C8        1.0  0.95855  0.54346  0.55059  1.0000
  C   C9        1.0  0.07132999999999998  0.56962  0.52013  1.0000
  C   C10       1.0  0.8873  0.47315  0.53003  1.0000
  C   C11       1.0  0.62654  0.69438  0.65175  1.0000
  C   C12       1.0  0.45164  0.71874  0.62909  1.0000
  C   C13       1.0  0.5216800000000001  0.7042800000000001  0.52716  1.0000
  C   C14       1.0  0.50916  0.60005  0.51168  1.0000
  C   C15       1.0  0.40129  0.54767  0.53138  1.0000
  C   C16       1.0  0.6077  0.55054  0.48057  1.0000
  C   C17       1.0  0.80525  0.01555  0.7320500000000002  1.0000
  C   C18       1.0  0.73212  0.08846  0.7066600000000001  1.0000
  C   C19       1.0  0.72281  0.08052  0.6511000000000002  1.0000
  C   C20       1.0  0.6485999999999998  0.14461  0.62826  1.0000
  C   C21       1.0  0.5825499999999999  0.21819  0.65903  1.0000
  C   C22       1.0  0.58802  0.2237  0.7151900000000002  1.0000
  C   C23       1.0  0.6607499999999998  0.15903  0.73797  1.0000
  C   C24       1.0  0.9854800000000001  0.79362  0.86665  1.0000
  C   C25       1.0  0.8665399999999998  0.33784  0.6850300000000001  1.0000
  C   C26       1.0  0.84385  0.37529999999999997  0.7687000000000003  1.0000
  C   C27       1.0  0.20117  0.35032  0.67054  1.0000
  C   C28       1.0  0.31151000000000006  0.23007  0.6878900000000001  1.0000
  C   C29       1.0  0.3385099999999998  0.11271000000000002  0.8289100000000003  1.0000
  C   C30       1.0  0.44056999999999996  0.21214  0.8674500000000003  1.0000
  C   C31       1.0  0.5895199999999999  0.09097  0.8957100000000001  1.0000
  C   C32       1.0  0.5413199999999999  0.04368  0.9494300000000002  1.0000
  C   C33       1.0  0.42910000000000004  0.07029  0.98022  1.0000
  C   C34       1.0  0.6121399999999999  0.9726700000000001  0.9696700000000001  1.0000
  C   C35       1.0  0.8727700000000002  0.19441  0.8485  1.0000
  C   C36       1.0  0.047909999999999904  0.21848  0.8710700000000001  1.0000
  C   C37       1.0  0.9784099999999998  0.20432999999999998  0.97298  1.0000
  C   C38       1.0  0.9907199999999999  0.10012  0.9884600000000001  1.0000
  C   C39       1.0  0.09891999999999992  0.04797  0.9690500000000002  1.0000
  C   C40       1.0  0.8919  0.05024  0.01916  1.0000
  C   C41       1.0  0.69485  0.51524  0.7676600000000001  1.0000
  C   C42       1.0  0.76765  0.58852  0.79304  1.0000
  C   C43       1.0  0.77645  0.58114  0.8486700000000001  1.0000
  C   C44       1.0  0.8502499999999997  0.64563  0.8715100000000002  1.0000
  C   C45       1.0  0.9163499999999999  0.71912  0.8406700000000003  1.0000
  C   C46       1.0  0.91127  0.72415  0.7844600000000002  1.0000
  C   C47       1.0  0.83901  0.65905  0.76167  1.0000
  C   C48       1.0  0.5131499999999999  0.29219  0.6329100000000001  1.0000
  C   C49       1.0  0.3663  0.16156  0.18511  1.0000
  C   C50       1.0  0.34413000000000005  0.12424999999999999  0.2687800000000001  1.0000
  C   C51       1.0  0.7022700000000001  0.1486  0.17049000000000003  1.0000
  C   C52       1.0  0.81279  0.26852  0.18826000000000007  1.0000
  C   C53       1.0  0.83876  0.38760999999999995  0.32897000000000004  1.0000
  C   C54       1.0  0.94115  0.28811  0.36715  1.0000
  C   C55       1.0  0.08981999999999998  0.40933  0.39569  1.0000
  C   C56       1.0  0.04145999999999997  0.45654  0.44941000000000003  1.0000
  C   C57       1.0  0.9286799999999998  0.43038  0.47987000000000013  1.0000
  C   C58       1.0  0.1127  0.52685  0.46997  1.0000
  C   C59       1.0  0.37347  0.30562  0.3482500000000001  1.0000
  C   C60       1.0  0.54837  0.28126  0.37091000000000013  1.0000
  C   C61       1.0  0.47832  0.29572  0.4728400000000001  1.0000
  C   C62       1.0  0.49084999999999995  0.39995  0.4883200000000001  1.0000
  C   C63       1.0  0.5987100000000001  0.45233  0.46862  1.0000
  C   C64       1.0  0.3923099999999999  0.44946  0.51943  1.0000
  C   C65       1.0  0.19475  0.98445  0.2679500000000001  1.0000
  C   C66       1.0  0.26787999999999995  0.91154  0.29334000000000005  1.0000
  C   C67       1.0  0.2772  0.91948  0.3489  1.0000
  C   C68       1.0  0.35140999999999994  0.85539  0.3717400000000001  1.0000
  C   C69       1.0  0.4174499999999999  0.7818  0.3409700000000001  1.0000
  C   C70       1.0  0.41198000000000007  0.77629  0.28481  1.0000
  C   C71       1.0  0.33926  0.84097  0.26203  1.0000
  C   C72       1.0  0.014530000000000003  0.20638  0.13335  1.0000
  C   C73       1.0  0.13346  0.66216  0.31497  1.0000
  C   C74       1.0  0.15616000000000002  0.6247  0.2313  1.0000
  C   C75       1.0  0.7988299999999997  0.6496799999999999  0.3294600000000001  1.0000
  C   C76       1.0  0.6884899999999999  0.76993  0.31211000000000005  1.0000
  C   C77       1.0  0.6615  0.88728  0.17109  1.0000
  C   C78       1.0  0.55944  0.78785  0.13255  1.0000
  C   C79       1.0  0.41049  0.90902  0.10429000000000002  1.0000
  C   C80       1.0  0.45869  0.95632  0.05057000000000001  1.0000
  C   C81       1.0  0.5709  0.92971  0.01978  1.0000
  C   C82       1.0  0.38786999999999994  0.02733  0.030330000000000003  1.0000
  C   C83       1.0  0.12723999999999996  0.80558  0.15150000000000002  1.0000
  C   C84       1.0  0.9521  0.7815200000000001  0.12893  1.0000
  C   C85       1.0  0.02159  0.7956699999999999  0.027020000000000002  1.0000
  C   C86       1.0  0.00929  0.89988  0.011540000000000002  1.0000
  C   C87       1.0  0.90108  0.95203  0.030940000000000006  1.0000
  C   C88       1.0  0.10811000000000005  0.9497599999999999  0.98084  1.0000
  C   C89       1.0  0.30516000000000004  0.48476  0.23234  1.0000
  C   C90       1.0  0.23235  0.41148  0.20696  1.0000
  C   C91       1.0  0.22356000000000004  0.41886  0.15133  1.0000
  C   C92       1.0  0.14976000000000003  0.35436000000000006  0.12848  1.0000
  C   C93       1.0  0.08365999999999998  0.28088  0.15933000000000003  1.0000
  C   C94       1.0  0.08873999999999994  0.27585  0.21554000000000006  1.0000
  C   C95       1.0  0.16100000000000003  0.34095  0.23833  1.0000
  C   C96       1.0  0.48685999999999996  0.7078  0.36709  1.0000
  N   N1        1.0  0.15656999999999993  0.70844  0.6572400000000003  1.0000
  N   N2        1.0  0.07343  0.55698  0.65673  1.0000
  N   N3        1.0  0.007319999999999961  0.62239  0.6325900000000001  1.0000
  N   N4        1.0  0.5057499999999999  0.70629  0.6730400000000001  1.0000
  N   N5        1.0  0.6518499999999999  0.69849  0.5980900000000001  1.0000
  N   N6        1.0  0.53924  0.71548  0.58402  1.0000
  N   N7        1.0  0.5927099999999998  0.81537  0.7681100000000001  1.0000
  N   N8        1.0  0.71722  0.90915  0.8095  1.0000
  N   N9        1.0  0.72963  0.93279  0.7556300000000001  1.0000
  N   N10       1.0  0.30304  0.76482  0.8016  1.0000
  N   N11       1.0  0.18681999999999999  0.87305  0.8554100000000001  1.0000
  N   N12       1.0  0.11785999999999999  0.79577  0.84422  1.0000
  N   N13       1.0  0.34297  0.2087  0.84296  1.0000
  N   N14       1.0  0.4263999999999999  0.05735  0.8431600000000002  1.0000
  N   N15       1.0  0.4922299999999999  0.12268  0.8675200000000001  1.0000
  N   N16       1.0  0.9936400000000001  0.20595  0.82717  1.0000
  N   N17       1.0  0.84771  0.19878  0.90217  1.0000
  N   N18       1.0  0.96047  0.21551  0.9161700000000003  1.0000
  N   N19       1.0  0.9071299999999999  0.31477  0.7319000000000001  1.0000
  N   N20       1.0  0.7832499999999999  0.40867  0.69027  1.0000
  N   N21       1.0  0.7705  0.4324  0.74415  1.0000
  N   N22       1.0  0.19581  0.26358  0.6982800000000001  1.0000
  N   N23       1.0  0.31199999999999994  0.37184  0.64451  1.0000
  N   N24       1.0  0.38085  0.29435  0.65542  1.0000
  N   N25       1.0  0.8434399999999999  0.29156  0.34276  1.0000
  N   N26       1.0  0.9265799999999998  0.44302  0.34327  1.0000
  N   N27       1.0  0.99269  0.3776  0.36741  1.0000
  N   N28       1.0  0.49426  0.29371  0.3269600000000001  1.0000
  N   N29       1.0  0.34816  0.30151  0.40191  1.0000
  N   N30       1.0  0.46077  0.28452  0.4159800000000001  1.0000
  N   N31       1.0  0.4073  0.18463  0.23189  1.0000
  N   N32       1.0  0.28278999999999993  0.09085  0.19050000000000006  1.0000
  N   N33       1.0  0.27037000000000005  0.06721  0.24437  1.0000
  N   N34       1.0  0.6969699999999999  0.23517999999999997  0.1984  1.0000
  N   N35       1.0  0.8131899999999999  0.12695  0.14459  1.0000
  N   N36       1.0  0.88215  0.20423  0.15578  1.0000
  N   N37       1.0  0.65704  0.7913  0.15704  1.0000
  N   N38       1.0  0.57361  0.94264  0.15684  1.0000
  N   N39       1.0  0.50778  0.87732  0.13248  1.0000
  N   N40       1.0  0.006370000000000004  0.79405  0.17282  1.0000
  N   N41       1.0  0.15228999999999998  0.80122  0.09783000000000003  1.0000
  N   N42       1.0  0.03953999999999999  0.78449  0.08383000000000003  1.0000
  N   N43       1.0  0.09286999999999995  0.68523  0.26810000000000006  1.0000
  N   N44       1.0  0.21675999999999995  0.59133  0.30973  1.0000
  N   N45       1.0  0.2295  0.5676  0.25585  1.0000
  N   N46       1.0  0.8042  0.7364099999999999  0.30172000000000004  1.0000
  N   N47       1.0  0.6879999999999997  0.62816  0.35549  1.0000
  N   N48       1.0  0.61915  0.70564  0.3445800000000001  1.0000
