data_image0
_chemical_formula_structural       Mn5H110C162N8O26
_chemical_formula_sum              "Mn5 H110 C162 N8 O26"
_cell_length_a       13.035
_cell_length_b       19.66706
_cell_length_c       20.506010000000003
_cell_angle_alpha    62.33398000000002
_cell_angle_beta     73.09973
_cell_angle_gamma    81.15877

_symmetry_space_group_name_H-M    'P 1'
_symmetry_Int_Tables_number       1

loop_
  _symmetry_equiv_pos_as_xyz
  'x,y,z'

loop_
  _atom_site_type_symbol
  _atom_site_label
  _atom_site_symmetry_multiplicity
  _atom_site_fract_x
  _atom_site_fract_y
  _atom_site_fract_z
  _atom_site_occupancy
  Mn  Mn1       1.0  0.91038  0.7958899999999998  0.10491999999999999  1.0000
  Mn  Mn2       1.0  0.72309  0.6996  0.105  1.0000
  Mn  Mn3       1.0  0.08964000000000007  0.20417000000000007  0.8951099999999997  1.0000
  Mn  Mn4       1.0  0.27692000000000005  0.30041  0.89499  1.0000
  Mn  Mn5       1.0  0.00019000000000004875  0.99999  0.99998  1.0000
  H   H1        1.0  0.30132000000000003  0.52055  0.3685199999999999  1.0000
  H   H2        1.0  0.13302000000000005  0.7262999999999997  0.9777400000000002  1.0000
  H   H3        1.0  0.34913999999999995  0.92438  0.73937  1.0000
  H   H4        1.0  0.5412900000000002  0.83103  0.5722299999999999  1.0000
  H   H5        1.0  0.95928  0.8775399999999999  0.9204100000000001  1.0000
  H   H6        1.0  0.18683000000000008  0.73494  0.75006  1.0000
  H   H7        1.0  0.25851000000000024  0.95407  0.84799  1.0000
  H   H8        1.0  0.86858  0.73211  0.84268  1.0000
  H   H9        1.0  0.22010999999999997  0.6972600000000001  0.86789  1.0000
  H   H10       1.0  0.4758799999999999  0.8559199999999999  0.6855  1.0000
  H   H11       1.0  0.24923  0.35187  0.26074  1.0000
  H   H12       1.0  0.04734000000000002  0.57942  0.34375  1.0000
  H   H13       1.0  0.08183  0.58449  0.54369  1.0000
  H   H14       1.0  0.74065  0.85777  0.22602999999999998  1.0000
  H   H15       1.0  0.08469999999999997  0.58741  0.21066  1.0000
  H   H16       1.0  0.65275  0.9427599999999999  0.28646  1.0000
  H   H17       1.0  0.3345600000000001  0.22448000000000004  0.32107  1.0000
  H   H18       1.0  0.17226  0.46166999999999997  0.27809  1.0000
  H   H19       1.0  0.52237  0.9425899999999999  0.39438  1.0000
  H   H20       1.0  0.8602000000000002  0.62683  0.36702  1.0000
  H   H21       1.0  0.5475700000000001  0.6642599999999999  0.63231  1.0000
  H   H22       1.0  0.1655600000000001  0.96007  0.48201999999999995  1.0000
  H   H23       1.0  0.06698  0.9541899999999999  0.7932899999999999  1.0000
  H   H24       1.0  0.74167  0.72476  0.36538  1.0000
  H   H25       1.0  0.4072800000000001  0.007910000000000002  0.46873  1.0000
  H   H26       1.0  0.31018999999999997  0.8772999999999999  0.49411  1.0000
  H   H27       1.0  0.73157  0.61469  0.60435  1.0000
  H   H28       1.0  0.11789000000000004  0.9848499999999999  0.17308  1.0000
  H   H29       1.0  0.25350999999999996  0.7100599999999999  0.63606  1.0000
  H   H30       1.0  0.1866799999999999  0.91443  0.41014  1.0000
  H   H31       1.0  0.03158000000000004  0.13874999999999996  0.48068  1.0000
  H   H32       1.0  0.08003999999999997  0.8690699999999999  0.61203  1.0000
  H   H33       1.0  0.9475600000000001  0.26616  0.42245  1.0000
  H   H34       1.0  0.9710600000000004  0.8120399999999999  0.71235  1.0000
  H   H35       1.0  0.5582900000000002  0.77522  0.39339  1.0000
  H   H36       1.0  0.19970999999999997  0.9535299999999999  0.27931  1.0000
  H   H37       1.0  0.22889  0.12094999999999999  0.29783  1.0000
  H   H38       1.0  0.8947700000000002  0.34513  0.31013999999999997  1.0000
  H   H39       1.0  0.34497000000000005  0.05748  0.2229  1.0000
  H   H40       1.0  0.26499999999999996  0.7019200000000001  0.39294  1.0000
  H   H41       1.0  0.80691  0.47157  0.24463000000000001  1.0000
  H   H42       1.0  0.8960899999999999  0.6360799999999999  0.56529  1.0000
  H   H43       1.0  0.9868700000000001  0.7591499999999999  0.28856  1.0000
  H   H44       1.0  0.07916000000000002  0.72433  0.39023  1.0000
  H   H45       1.0  0.39153000000000027  0.6667499999999998  0.47314  1.0000
  H   H46       1.0  0.4451  0.8480399999999999  0.17745  1.0000
  H   H47       1.0  0.35742  0.9339299999999999  0.23620999999999998  1.0000
  H   H48       1.0  0.6982500000000003  0.08752000000000004  0.90767  1.0000
  H   H49       1.0  0.58626  0.06981999999999995  0.98847  1.0000
  H   H50       1.0  0.10265  0.03508000000000004  0.68975  1.0000
  H   H51       1.0  0.5687099999999999  0.9393800000000001  0.00795  1.0000
  H   H52       1.0  0.6180799999999999  0.9845299999999999  0.90643  1.0000
  H   H53       1.0  0.19656000000000012  0.12208  0.56039  1.0000
  H   H54       1.0  0.77369  0.044820000000000006  0.02388  1.0000
  H   H55       1.0  0.7470600000000003  0.8722799999999999  0.97889  1.0000
  H   H56       1.0  0.69867  0.4794700000000001  0.63146  1.0000
  H   H57       1.0  0.86698  0.27368  0.02226  1.0000
  H   H58       1.0  0.6508400000000001  0.07561000000000002  0.2606299999999999  1.0000
  H   H59       1.0  0.45871000000000006  0.16895999999999997  0.42777  1.0000
  H   H60       1.0  0.04073  0.12245000000000003  0.07958999999999998  1.0000
  H   H61       1.0  0.81316  0.26505000000000006  0.24993999999999997  1.0000
  H   H62       1.0  0.74149  0.045910000000000006  0.15201999999999996  1.0000
  H   H63       1.0  0.13141  0.26789  0.15732  1.0000
  H   H64       1.0  0.77988  0.30273  0.13209  1.0000
  H   H65       1.0  0.52411  0.14406999999999998  0.3145  1.0000
  H   H66       1.0  0.7507600000000004  0.6481300000000001  0.73926  1.0000
  H   H67       1.0  0.9526600000000004  0.42058  0.65625  1.0000
  H   H68       1.0  0.9181600000000002  0.41550999999999993  0.45632  1.0000
  H   H69       1.0  0.25935000000000014  0.14225000000000002  0.7739699999999999  1.0000
  H   H70       1.0  0.91531  0.41259  0.78934  1.0000
  H   H71       1.0  0.34724  0.05723999999999997  0.71355  1.0000
  H   H72       1.0  0.6654300000000001  0.77552  0.6789299999999999  1.0000
  H   H73       1.0  0.8277399999999999  0.5383299999999999  0.72191  1.0000
  H   H74       1.0  0.47761999999999993  0.05740999999999999  0.60562  1.0000
  H   H75       1.0  0.13978999999999997  0.37317000000000006  0.63298  1.0000
  H   H76       1.0  0.45242000000000004  0.33574  0.36768999999999996  1.0000
  H   H77       1.0  0.83443  0.03993000000000002  0.51798  1.0000
  H   H78       1.0  0.9330100000000002  0.04579999999999999  0.20671  1.0000
  H   H79       1.0  0.25831999999999994  0.27524  0.63462  1.0000
  H   H80       1.0  0.5927099999999998  0.9920899999999998  0.53127  1.0000
  H   H81       1.0  0.6898100000000003  0.12268999999999997  0.50589  1.0000
  H   H82       1.0  0.26843  0.38530999999999993  0.39565  1.0000
  H   H83       1.0  0.8822200000000001  0.015169999999999979  0.82694  1.0000
  H   H84       1.0  0.7464899999999999  0.2899300000000001  0.36394  1.0000
  H   H85       1.0  0.81331  0.08555999999999997  0.58988  1.0000
  H   H86       1.0  0.9684099999999999  0.8612499999999998  0.51932  1.0000
  H   H87       1.0  0.91996  0.13092999999999996  0.38797  1.0000
  H   H88       1.0  0.05242999999999999  0.7338499999999999  0.57755  1.0000
  H   H89       1.0  0.028930000000000004  0.18795  0.28765  1.0000
  H   H90       1.0  0.4417000000000001  0.22478  0.60661  1.0000
  H   H91       1.0  0.8003000000000003  0.04646000000000002  0.72077  1.0000
  H   H92       1.0  0.7711  0.8790499999999999  0.70216  1.0000
  H   H93       1.0  0.10522000000000002  0.6548799999999998  0.68986  1.0000
  H   H94       1.0  0.6550200000000003  0.94252  0.7771  1.0000
  H   H95       1.0  0.7349900000000001  0.29807  0.6070699999999999  1.0000
  H   H96       1.0  0.19309000000000012  0.5284400000000001  0.7553699999999999  1.0000
  H   H97       1.0  0.1039  0.36392  0.43471  1.0000
  H   H98       1.0  0.013149999999999992  0.24089  0.7114  1.0000
  H   H99       1.0  0.9207999999999998  0.2756700000000001  0.60978  1.0000
  H   H100      1.0  0.6084700000000002  0.33324  0.52687  1.0000
  H   H101      1.0  0.5549  0.15196  0.82255  1.0000
  H   H102      1.0  0.64257  0.06607000000000003  0.76379  1.0000
  H   H103      1.0  0.30174  0.9125  0.09232  1.0000
  H   H104      1.0  0.4138  0.93015  0.01157  1.0000
  H   H105      1.0  0.8973500000000001  0.9649199999999999  0.31025  1.0000
  H   H106      1.0  0.43137000000000003  0.06060999999999999  0.99208  1.0000
  H   H107      1.0  0.38196  0.015449999999999998  0.0936  1.0000
  H   H108      1.0  0.80343  0.87792  0.43961  1.0000
  H   H109      1.0  0.22641999999999998  0.9552000000000003  0.97609  1.0000
  H   H110      1.0  0.25302  0.12772  0.02111  1.0000
  C   C1        1.0  0.11586000000000007  0.8631399999999999  0.9782599999999999  1.0000
  C   C2        1.0  0.5986300000000003  0.84765  0.1975  1.0000
  C   C3        1.0  0.18788999999999995  0.8425000000000002  0.91935  1.0000
  C   C4        1.0  0.09141000000000005  0.31865  0.33572  1.0000
  C   C5        1.0  0.03991  0.3941  0.29858  1.0000
  C   C6        1.0  0.36178  0.77108  0.48725999999999997  1.0000
  C   C7        1.0  0.18062000000000006  0.76908  0.9252699999999999  1.0000
  C   C8        1.0  0.08456  0.94338  0.66297  1.0000
  C   C9        1.0  0.18867000000000003  0.17213000000000003  0.40397  1.0000
  C   C10       1.0  0.32762  0.7957600000000001  0.72714  1.0000
  C   C11       1.0  0.94035  0.53715  0.22365999999999997  1.0000
  C   C12       1.0  0.30224  0.88086  0.79168  1.0000
  C   C13       1.0  0.5396199999999999  0.7238100000000001  0.51496  1.0000
  C   C14       1.0  0.46368000000000015  0.8100999999999999  0.61123  1.0000
  C   C15       1.0  0.86345  0.6357599999999999  0.46782000000000007  1.0000
  C   C16       1.0  0.88941  0.61232  0.18106  1.0000
  C   C17       1.0  0.9633600000000004  0.86275  0.8749  1.0000
  C   C18       1.0  0.2874200000000001  0.80983  0.79478  1.0000
  C   C19       1.0  0.21699999999999997  0.81139  0.39491  1.0000
  C   C20       1.0  0.9064599999999999  0.7995800000000001  0.89069  1.0000
  C   C21       1.0  0.40114  0.7685  0.59728  1.0000
  C   C22       1.0  0.26527000000000006  0.7549099999999999  0.71191  1.0000
  C   C23       1.0  0.25212999999999997  0.89742  0.85262  1.0000
  C   C24       1.0  0.0006500000000000107  0.88931  0.16046  1.0000
  C   C25       1.0  0.07726000000000005  0.5794400000000001  0.44201999999999997  1.0000
  C   C26       1.0  0.9116999999999998  0.78133  0.83105  1.0000
  C   C27       1.0  0.22855000000000006  0.7535000000000001  0.86354  1.0000
  C   C28       1.0  0.15065  0.8350299999999999  0.3403399999999999  1.0000
  C   C29       1.0  0.026480000000000028  0.8915399999999999  0.74093  1.0000
  C   C30       1.0  0.4269100000000001  0.82355  0.67525  1.0000
  C   C31       1.0  0.7524600000000002  0.66541  0.48268  1.0000
  C   C32       1.0  0.18930000000000002  0.046110000000000005  0.51264  1.0000
  C   C33       1.0  0.20136000000000007  0.30532  0.30913  1.0000
  C   C34       1.0  0.78373  0.94989  0.00757  1.0000
  C   C35       1.0  0.014009999999999974  0.59184  0.39229  1.0000
  C   C36       1.0  0.032430000000000014  0.5943100000000001  0.50537  1.0000
  C   C37       1.0  0.65649  0.87467  0.22878999999999997  1.0000
  C   C38       1.0  0.0437  0.5339  0.23316  1.0000
  C   C39       1.0  0.19014000000000014  0.55289  0.43048  1.0000
  C   C40       1.0  0.6068099999999998  0.9227000000000001  0.2623  1.0000
  C   C41       1.0  0.2495600000000001  0.23356999999999997  0.34258  1.0000
  C   C42       1.0  0.83998  0.7576  0.96859  1.0000
  C   C43       1.0  0.09277  0.46333  0.2701  1.0000
  C   C44       1.0  0.45978000000000013  0.98288  0.37196  1.0000
  C   C45       1.0  0.90866  0.61924  0.40522  1.0000
  C   C46       1.0  0.6509000000000001  0.79422  0.16482  1.0000
  C   C47       1.0  0.3092  0.06796999999999999  0.38914  1.0000
  C   C48       1.0  0.047960000000000017  0.87366  0.22362  1.0000
  C   C49       1.0  0.5905400000000002  0.6778499999999998  0.57385  1.0000
  C   C50       1.0  0.1547800000000001  0.9747499999999999  0.5285  1.0000
  C   C51       1.0  0.49850999999999984  0.9461400000000001  0.26474  1.0000
  C   C52       1.0  0.022770000000000044  0.9069799999999999  0.80204  1.0000
  C   C53       1.0  0.6997600000000003  0.71019  0.42437  1.0000
  C   C54       1.0  0.39487  0.019240000000000004  0.41427  1.0000
  C   C55       1.0  0.30068  0.8396400000000002  0.47101  1.0000
  C   C56       1.0  0.6946299999999999  0.6502500000000001  0.55761  1.0000
  C   C57       1.0  0.10789999999999998  0.92852  0.2216  1.0000
  C   C58       1.0  0.3014899999999999  0.74146  0.64807  1.0000
  C   C59       1.0  0.23075  0.8598099999999999  0.42475  1.0000
  C   C60       1.0  0.07924000000000003  0.18514000000000003  0.43212  1.0000
  C   C61       1.0  0.44131999999999993  0.9934800000000001  0.30347  1.0000
  C   C62       1.0  0.10492000000000004  0.9239899999999999  0.60228  1.0000
  C   C63       1.0  0.03185999999999998  0.25721  0.39851  1.0000
  C   C64       1.0  0.97049  0.8267399999999998  0.75752  1.0000
  C   C65       1.0  0.5958300000000004  0.7392899999999999  0.4397499999999999  1.0000
  C   C66       1.0  0.15529  0.91014  0.28062  1.0000
  C   C67       1.0  0.29392000000000007  0.08263  0.31863  1.0000
  C   C68       1.0  0.93563  0.39818  0.28976  1.0000
  C   C69       1.0  0.35925000000000007  0.04601000000000002  0.27685999999999994  1.0000
  C   C70       1.0  0.2748000000000002  0.74097  0.4145799999999999  1.0000
  C   C71       1.0  0.88652  0.46846  0.2528  1.0000
  C   C72       1.0  0.9278500000000003  0.62237  0.51752  1.0000
  C   C73       1.0  0.03525  0.80082  0.28638  1.0000
  C   C74       1.0  0.08734000000000004  0.78151  0.34306999999999993  1.0000
  C   C75       1.0  0.3468400000000002  0.721  0.45960000000000006  1.0000
  C   C76       1.0  0.4906900000000001  0.8704999999999999  0.19975  1.0000
  C   C77       1.0  0.44208  0.91928  0.23237999999999998  1.0000
  C   C78       1.0  0.6580299999999999  0.044140000000000006  0.9642  1.0000
  C   C79       1.0  0.11892999999999998  0.016059999999999987  0.64567  1.0000
  C   C80       1.0  0.6351700000000001  0.9715600000000001  0.9603099999999999  1.0000
  C   C81       1.0  0.17147000000000012  0.06628000000000002  0.57231  1.0000
  C   C82       1.0  0.88419  0.13681  0.02176  1.0000
  C   C83       1.0  0.40136000000000005  0.15234999999999999  0.8025  1.0000
  C   C84       1.0  0.8121400000000001  0.15747  0.08066  1.0000
  C   C85       1.0  0.9085800000000007  0.6813499999999999  0.66427  1.0000
  C   C86       1.0  0.96008  0.6059000000000001  0.70142  1.0000
  C   C87       1.0  0.63822  0.22891000000000003  0.51274  1.0000
  C   C88       1.0  0.8193800000000001  0.2309  0.07473  1.0000
  C   C89       1.0  0.9154300000000001  0.056620000000000004  0.33703  1.0000
  C   C90       1.0  0.8113200000000007  0.82787  0.59603  1.0000
  C   C91       1.0  0.67237  0.20424000000000003  0.27286  1.0000
  C   C92       1.0  0.05964999999999999  0.46286999999999995  0.77634  1.0000
  C   C93       1.0  0.69775  0.11911999999999998  0.20831  1.0000
  C   C94       1.0  0.46038000000000007  0.2761899999999999  0.48504  1.0000
  C   C95       1.0  0.5363200000000001  0.18989000000000006  0.3887699999999999  1.0000
  C   C96       1.0  0.13655  0.36423999999999995  0.53217  1.0000
  C   C97       1.0  0.11059000000000001  0.38769000000000003  0.8189399999999999  1.0000
  C   C98       1.0  0.03664  0.13725  0.1251  1.0000
  C   C99       1.0  0.71258  0.19016  0.20522  1.0000
  C   C100      1.0  0.78298  0.18859  0.60512  1.0000
  C   C101      1.0  0.09352999999999999  0.20042000000000001  0.10931  1.0000
  C   C102      1.0  0.59886  0.23149000000000008  0.4027199999999999  1.0000
  C   C103      1.0  0.7347300000000002  0.24508  0.28809  1.0000
  C   C104      1.0  0.74788  0.10256000000000001  0.14738  1.0000
  C   C105      1.0  0.9996999999999999  0.11075000000000003  0.83944  1.0000
  C   C106      1.0  0.9227399999999999  0.42057000000000005  0.55798  1.0000
  C   C107      1.0  0.08830000000000006  0.21866  0.16895  1.0000
  C   C108      1.0  0.77143  0.24648000000000006  0.13645  1.0000
  C   C109      1.0  0.8493400000000002  0.16495999999999997  0.65969  1.0000
  C   C110      1.0  0.97351  0.10846  0.25906999999999997  1.0000
  C   C111      1.0  0.57309  0.17645000000000002  0.32475  1.0000
  C   C112      1.0  0.24753000000000003  0.33459  0.51732  1.0000
  C   C113      1.0  0.8106899999999999  0.95389  0.48736  1.0000
  C   C114      1.0  0.79863  0.69468  0.69087  1.0000
  C   C115      1.0  0.21641  0.05013999999999999  0.99238  1.0000
  C   C116      1.0  0.9859900000000001  0.40816  0.6076999999999999  1.0000
  C   C117      1.0  0.9675600000000001  0.4056899999999999  0.49463  1.0000
  C   C118      1.0  0.3435  0.12533999999999998  0.77121  1.0000
  C   C119      1.0  0.9563000000000005  0.4661  0.76684  1.0000
  C   C120      1.0  0.80984  0.44711  0.56952  1.0000
  C   C121      1.0  0.39318000000000014  0.0773  0.7377  1.0000
  C   C122      1.0  0.7504299999999999  0.76643  0.65742  1.0000
  C   C123      1.0  0.1600200000000001  0.24239999999999998  0.03142  1.0000
  C   C124      1.0  0.9072300000000002  0.5366699999999999  0.72989  1.0000
  C   C125      1.0  0.5402100000000002  0.017120000000000017  0.62804  1.0000
  C   C126      1.0  0.09132999999999997  0.38076000000000004  0.59478  1.0000
  C   C127      1.0  0.3491000000000001  0.20578000000000005  0.8351799999999998  1.0000
  C   C128      1.0  0.6907899999999999  0.9320299999999999  0.61086  1.0000
  C   C129      1.0  0.9521799999999999  0.12636999999999998  0.77636  1.0000
  C   C130      1.0  0.40944999999999987  0.32215000000000005  0.42615  1.0000
  C   C131      1.0  0.8452100000000001  0.025250000000000036  0.4714999999999999  1.0000
  C   C132      1.0  0.5014800000000003  0.05384999999999999  0.73526  1.0000
  C   C133      1.0  0.9772300000000002  0.09302  0.19796  1.0000
  C   C134      1.0  0.30023  0.2898  0.57563  1.0000
  C   C135      1.0  0.6051200000000003  0.98076  0.5857299999999999  1.0000
  C   C136      1.0  0.69932  0.16034999999999996  0.529  1.0000
  C   C137      1.0  0.3053700000000001  0.34975000000000006  0.44238999999999995  1.0000
  C   C138      1.0  0.8921900000000003  0.07149999999999998  0.77842  1.0000
  C   C139      1.0  0.69851  0.25853  0.35193  1.0000
  C   C140      1.0  0.76924  0.14017  0.57527  1.0000
  C   C141      1.0  0.9207500000000001  0.81486  0.56787  1.0000
  C   C142      1.0  0.5586600000000003  0.006520000000000016  0.69653  1.0000
  C   C143      1.0  0.89507  0.07601  0.39771  1.0000
  C   C144      1.0  0.9681200000000001  0.7427899999999998  0.60149  1.0000
  C   C145      1.0  0.02949999999999998  0.17326000000000003  0.24248  1.0000
  C   C146      1.0  0.4041600000000001  0.26071  0.56025  1.0000
  C   C147      1.0  0.8447299999999999  0.08986000000000002  0.7194299999999999  1.0000
  C   C148      1.0  0.7060699999999999  0.9173700000000001  0.68137  1.0000
  C   C149      1.0  0.06436000000000004  0.60183  0.71023  1.0000
  C   C150      1.0  0.6407400000000002  0.9539900000000001  0.72314  1.0000
  C   C151      1.0  0.72519  0.25901999999999986  0.58544  1.0000
  C   C152      1.0  0.11347999999999996  0.53155  0.74719  1.0000
  C   C153      1.0  0.07213999999999998  0.3776300000000001  0.48248  1.0000
  C   C154      1.0  0.96478  0.19921000000000008  0.7136099999999997  1.0000
  C   C155      1.0  0.9126500000000002  0.21850000000000006  0.65693  1.0000
  C   C156      1.0  0.6531600000000004  0.2789899999999999  0.54041  1.0000
  C   C157      1.0  0.5093000000000002  0.12949000000000008  0.8002499999999998  1.0000
  C   C158      1.0  0.5579100000000001  0.08071999999999997  0.76762  1.0000
  C   C159      1.0  0.34203  0.95586  0.03581  1.0000
  C   C160      1.0  0.8810599999999998  0.98394  0.35433  1.0000
  C   C161      1.0  0.3649  0.028430000000000007  0.03971  1.0000
  C   C162      1.0  0.8285200000000001  0.93372  0.42769  1.0000
  N   N1        1.0  0.7307500000000001  0.012170000000000002  0.0144  1.0000
  N   N2        1.0  0.7365200000000001  0.9284  0.96882  1.0000
  N   N3        1.0  0.23751000000000005  0.09861999999999999  0.43649  1.0000
  N   N4        1.0  0.4357  0.75414  0.53224  1.0000
  N   N5        1.0  0.26938000000000006  0.98786  0.9855599999999999  1.0000
  N   N6        1.0  0.26356  0.07161  0.03118  1.0000
  N   N7        1.0  0.76248  0.9013799999999998  0.56351  1.0000
  N   N8        1.0  0.5643  0.24585  0.46776  1.0000
  O   O1        1.0  0.8654900000000001  0.9178499999999999  0.0325  1.0000
  O   O2        1.0  0.9380300000000003  0.67361  0.15814  1.0000
  O   O3        1.0  0.10593999999999998  0.9359800000000001  0.9611299999999999  1.0000
  O   O4        1.0  0.0641  0.81057  0.03937  1.0000
  O   O5        1.0  0.8419300000000003  0.78004  0.01932  1.0000
  O   O6        1.0  0.03302999999999998  0.94986  0.09779  1.0000
  O   O7        1.0  0.79815  0.60876  0.16952  1.0000
  O   O8        1.0  0.9336200000000001  0.8416299999999999  0.17171  1.0000
  O   O9        1.0  0.7467600000000002  0.76918  0.16957  1.0000
  O   O10       1.0  0.77628  0.70467  0.9884399999999999  1.0000
  O   O11       1.0  0.22719000000000003  0.53852  0.36777  1.0000
  O   O12       1.0  0.24900000000000005  0.5450099999999999  0.4706199999999999  1.0000
  O   O13       1.0  0.6010700000000001  0.7711399999999999  0.13278  1.0000
  O   O14       1.0  0.13469000000000003  0.08221  0.96741  1.0000
  O   O15       1.0  0.06195000000000001  0.3264099999999999  0.84188  1.0000
  O   O16       1.0  0.89419  0.06397  0.03888  1.0000
  O   O17       1.0  0.93591  0.18939999999999985  0.96064  1.0000
  O   O18       1.0  0.15807000000000002  0.21995999999999996  0.98068  1.0000
  O   O19       1.0  0.9678900000000001  0.05004000000000003  0.9020299999999999  1.0000
  O   O20       1.0  0.20184999999999995  0.39125  0.83048  1.0000
  O   O21       1.0  0.06646000000000013  0.1586  0.82818  1.0000
  O   O22       1.0  0.25325  0.23085000000000003  0.8304199999999999  1.0000
  O   O23       1.0  0.22371  0.29533  0.01156  1.0000
  O   O24       1.0  0.7728100000000003  0.4614999999999999  0.63221  1.0000
  O   O25       1.0  0.75099  0.4549900000000001  0.52939  1.0000
  O   O26       1.0  0.39893000000000006  0.22885  0.86723  1.0000
