data_image0
_chemical_formula_structural       Ca8Eu8H96C96O120
_chemical_formula_sum              "Ca8 Eu8 H96 C96 O120"
_cell_length_a       19.16682
_cell_length_b       19.31923
_cell_length_c       19.23982
_cell_angle_alpha    59.88858
_cell_angle_beta     59.65534999999999
_cell_angle_gamma    59.66280999999999

_symmetry_space_group_name_H-M    'P 1'
_symmetry_Int_Tables_number       1

loop_
  _symmetry_equiv_pos_as_xyz
  'x,y,z'

loop_
  _atom_site_type_symbol
  _atom_site_label
  _atom_site_symmetry_multiplicity
  _atom_site_fract_x
  _atom_site_fract_y
  _atom_site_fract_z
  _atom_site_occupancy
  Ca  Ca1       1.0  0.5009899999999999  0.5003900000000001  0.49780999999999986  1.0000
  Ca  Ca2       1.0  0.49968  0.50075  0.00011999999999999998  1.0000
  Ca  Ca3       1.0  0.49984000000000006  0.0017100000000000509  0.9996399999999999  1.0000
  Ca  Ca4       1.0  0.0011700000000000401  0.49859999999999993  0.00023999999999999995  1.0000
  Ca  Ca5       1.0  0.0008800000000000452  0.9998899999999998  0.4997299999999999  1.0000
  Ca  Ca6       1.0  0.9989699999999999  0.001440000000000054  0.9979399999999998  1.0000
  Ca  Ca7       1.0  0.9992  0.5035399999999999  0.4985699999999999  1.0000
  Ca  Ca8       1.0  0.50001  0.99952  0.50096  1.0000
  Eu  Eu1       1.0  0.24936000000000003  0.75036  0.25038  1.0000
  Eu  Eu2       1.0  0.7492699999999998  0.24903000000000003  0.24981  1.0000
  Eu  Eu3       1.0  0.74933  0.7499099999999997  0.25039  1.0000
  Eu  Eu4       1.0  0.75038  0.7512799999999998  0.74997  1.0000
  Eu  Eu5       1.0  0.74968  0.24980999999999998  0.74843  1.0000
  Eu  Eu6       1.0  0.25120000000000003  0.7487599999999999  0.7501999999999998  1.0000
  Eu  Eu7       1.0  0.25059000000000003  0.25049  0.7486899999999997  1.0000
  Eu  Eu8       1.0  0.24997  0.25074  0.25095  1.0000
  H   H1        1.0  0.2838699999999999  0.66267  0.4913  1.0000
  H   H2        1.0  0.36034000000000005  0.7142699999999997  0.4098499999999999  1.0000
  H   H3        1.0  0.6598999999999998  0.28677  0.06098999999999999  1.0000
  H   H4        1.0  0.71192  0.3620699999999999  0.0168  1.0000
  H   H5        1.0  0.5665600000000002  0.99217  0.15714999999999996  1.0000
  H   H6        1.0  0.51136  0.9172499999999999  0.21598999999999993  1.0000
  H   H7        1.0  0.9928200000000005  0.55923  0.7835299999999997  1.0000
  H   H8        1.0  0.9095200000000001  0.51353  0.8539199999999998  1.0000
  H   H9        1.0  0.5652500000000001  0.28530999999999995  0.49220999999999987  1.0000
  H   H10       1.0  0.51341  0.3565499999999999  0.41411  1.0000
  H   H11       1.0  0.9956699999999999  0.66  0.06277  1.0000
  H   H12       1.0  0.91451  0.7134  0.014959999999999996  1.0000
  H   H13       1.0  0.28602  0.56409  0.16015  1.0000
  H   H14       1.0  0.35668  0.51735  0.21861  1.0000
  H   H15       1.0  0.66416  0.9911899999999999  0.78884  1.0000
  H   H16       1.0  0.7170100000000005  0.9032899999999998  0.8621299999999997  1.0000
  H   H17       1.0  0.6570200000000002  0.5654299999999998  0.4945  1.0000
  H   H18       1.0  0.7118  0.5166199999999999  0.41434  1.0000
  H   H19       1.0  0.28988000000000014  0.9908099999999999  0.05555  1.0000
  H   H20       1.0  0.36386999999999997  0.9042  0.015289999999999996  1.0000
  H   H21       1.0  0.99308  0.28425  0.16308  1.0000
  H   H22       1.0  0.90853  0.35553  0.22038999999999995  1.0000
  H   H23       1.0  0.5600000000000002  0.66165  0.78879  1.0000
  H   H24       1.0  0.5173700000000001  0.7117499999999999  0.86599  1.0000
  H   H25       1.0  0.2115499999999999  0.8414099999999999  0.43777  1.0000
  H   H26       1.0  0.14113000000000006  0.78334  0.4837399999999999  1.0000
  H   H27       1.0  0.83979  0.21421  0.007  1.0000
  H   H28       1.0  0.7813  0.14385999999999996  0.08953  1.0000
  H   H29       1.0  0.93824  0.50962  0.7103199999999997  1.0000
  H   H30       1.0  0.9826200000000004  0.5927999999999999  0.6347999999999998  1.0000
  H   H31       1.0  0.5043300000000002  0.93659  0.3408499999999999  1.0000
  H   H32       1.0  0.5859099999999999  0.9836900000000001  0.28689  1.0000
  H   H33       1.0  0.93808  0.21216  0.34071  1.0000
  H   H34       1.0  0.9845800000000002  0.1377  0.28667  1.0000
  H   H35       1.0  0.5085799999999999  0.83604  0.7125199999999998  1.0000
  H   H36       1.0  0.59538  0.7763299999999999  0.64406  1.0000
  H   H37       1.0  0.21060999999999996  0.94508  0.0081  1.0000
  H   H38       1.0  0.1385800000000001  0.9853399999999999  0.09535  1.0000
  H   H39       1.0  0.8423099999999999  0.50774  0.4335  1.0000
  H   H40       1.0  0.78361  0.584  0.4873399999999999  1.0000
  H   H41       1.0  0.8352600000000007  0.94471  0.7101  1.0000
  H   H42       1.0  0.7826399999999999  0.98166  0.6369  1.0000
  H   H43       1.0  0.21639999999999998  0.51026  0.33937  1.0000
  H   H44       1.0  0.13858  0.59099  0.28912  1.0000
  H   H45       1.0  0.5053400000000001  0.21877000000000002  0.4369299999999999  1.0000
  H   H46       1.0  0.5857099999999998  0.14363999999999996  0.48569  1.0000
  H   H47       1.0  0.9377100000000002  0.83986  0.00602  1.0000
  H   H48       1.0  0.98631  0.7848300000000001  0.08650999999999998  1.0000
  H   H49       1.0  0.7162299999999999  0.34064000000000005  0.50577  1.0000
  H   H50       1.0  0.64598  0.2812  0.58611  1.0000
  H   H51       1.0  0.33942000000000017  0.71469  0.9378299999999998  1.0000
  H   H52       1.0  0.2886300000000001  0.6380099999999999  0.98316  1.0000
  H   H53       1.0  0.4372900000000001  0.008090000000000087  0.8426799999999998  1.0000
  H   H54       1.0  0.48275000000000007  0.09041000000000009  0.7905999999999997  1.0000
  H   H55       1.0  0.00646999999999997  0.43516  0.21643  1.0000
  H   H56       1.0  0.08604000000000007  0.4855499999999999  0.14667999999999995  1.0000
  H   H57       1.0  0.4369199999999999  0.71492  0.50699  1.0000
  H   H58       1.0  0.48793000000000003  0.64244  0.58562  1.0000
  H   H59       1.0  0.007100000000000031  0.33753999999999995  0.94126  1.0000
  H   H60       1.0  0.09073000000000006  0.27862999999999993  0.98663  1.0000
  H   H61       1.0  0.71179  0.44132  0.8371199999999998  1.0000
  H   H62       1.0  0.6378100000000002  0.48535999999999996  0.7828599999999998  1.0000
  H   H63       1.0  0.33999000000000007  0.009280000000000021  0.21237999999999996  1.0000
  H   H64       1.0  0.28333  0.09354999999999998  0.14079  1.0000
  H   H65       1.0  0.33394000000000007  0.44628  0.50891  1.0000
  H   H66       1.0  0.28164999999999996  0.48161  0.59907  1.0000
  H   H67       1.0  0.71805  0.009230000000000103  0.9337699999999998  1.0000
  H   H68       1.0  0.63838  0.0884000000000001  0.9830299999999997  1.0000
  H   H69       1.0  0.007810000000000066  0.7135099999999999  0.83725  1.0000
  H   H70       1.0  0.09201000000000008  0.6440599999999999  0.77763  1.0000
  H   H71       1.0  0.436  0.34199  0.21619999999999995  1.0000
  H   H72       1.0  0.48449  0.2904  0.1395  1.0000
  H   H73       1.0  0.78415  0.15947000000000008  0.5634199999999998  1.0000
  H   H74       1.0  0.86231  0.2097  0.51432  1.0000
  H   H75       1.0  0.16101999999999997  0.7889  0.99085  1.0000
  H   H76       1.0  0.22079000000000026  0.8572099999999998  0.9054899999999998  1.0000
  H   H77       1.0  0.06575000000000003  0.4934799999999999  0.28182  1.0000
  H   H78       1.0  0.014150000000000036  0.4162599999999998  0.35973  1.0000
  H   H79       1.0  0.4929999999999999  0.05983999999999997  0.66306  1.0000
  H   H80       1.0  0.41002  0.013599999999999996  0.72211  1.0000
  H   H81       1.0  0.059629999999999905  0.78862  0.66032  1.0000
  H   H82       1.0  0.016890000000000127  0.86353  0.7128599999999998  1.0000
  H   H83       1.0  0.4945699999999999  0.16008000000000003  0.28169999999999995  1.0000
  H   H84       1.0  0.41639000000000004  0.21906000000000003  0.3528999999999999  1.0000
  H   H85       1.0  0.7854900000000001  0.0649700000000001  0.9907699999999998  1.0000
  H   H86       1.0  0.8551299999999997  0.017230000000000013  0.90908  1.0000
  H   H87       1.0  0.16356000000000018  0.49128999999999995  0.5555499999999998  1.0000
  H   H88       1.0  0.21594  0.40295  0.518  1.0000
  H   H89       1.0  0.16117  0.06298  0.28496  1.0000
  H   H90       1.0  0.21523999999999996  0.01615999999999999  0.35955  1.0000
  H   H91       1.0  0.7905499999999994  0.4905599999999999  0.66323  1.0000
  H   H92       1.0  0.8621500000000001  0.40246000000000004  0.7186999999999998  1.0000
  H   H93       1.0  0.4936  0.78472  0.56087  1.0000
  H   H94       1.0  0.4109000000000001  0.8571699999999998  0.51471  1.0000
  H   H95       1.0  0.05902000000000002  0.16025  0.99235  1.0000
  H   H96       1.0  0.01650000000000004  0.21196000000000004  0.90744  1.0000
  C   C1        1.0  0.31388000000000005  0.6885800000000001  0.42176999999999987  1.0000
  C   C2        1.0  0.3629100000000001  0.61685  0.38412  1.0000
  C   C3        1.0  0.6857600000000001  0.31514  0.07614  1.0000
  C   C4        1.0  0.6127800000000001  0.36274  0.13836  1.0000
  C   C5        1.0  0.5749999999999998  0.92394  0.18767999999999996  1.0000
  C   C6        1.0  0.6321200000000002  0.8809499999999998  0.11975  1.0000
  C   C7        1.0  0.9228000000000004  0.57363  0.8109999999999998  1.0000
  C   C8        1.0  0.88261  0.63084  0.86432  1.0000
  C   C9        1.0  0.57596  0.3135800000000001  0.42323  1.0000
  C   C10       1.0  0.63446  0.3656400000000001  0.3807099999999999  1.0000
  C   C11       1.0  0.92589  0.68676  0.07568  1.0000
  C   C12       1.0  0.8870699999999999  0.61528  0.13595  1.0000
  C   C13       1.0  0.31324000000000013  0.5778099999999998  0.18845  1.0000
  C   C14       1.0  0.36589000000000005  0.6354899999999998  0.11793999999999998  1.0000
  C   C15       1.0  0.6882999999999999  0.9214300000000001  0.81549  1.0000
  C   C16       1.0  0.6142400000000001  0.88598  0.8627899999999997  1.0000
  C   C17       1.0  0.68473  0.57759  0.42513  1.0000
  C   C18       1.0  0.6137700000000001  0.63747  0.38602  1.0000
  C   C19       1.0  0.31654  0.92121  0.07326  1.0000
  C   C20       1.0  0.3650800000000002  0.8833199999999998  0.13515  1.0000
  C   C21       1.0  0.9229300000000001  0.31165  0.19048999999999994  1.0000
  C   C22       1.0  0.8837  0.36321999999999993  0.11904999999999998  1.0000
  C   C23       1.0  0.57602  0.68649  0.81731  1.0000
  C   C24       1.0  0.6391699999999997  0.6137299999999999  0.86533  1.0000
  C   C25       1.0  0.1849700000000001  0.81314  0.4233299999999999  1.0000
  C   C26       1.0  0.13334999999999986  0.8830200000000001  0.36465  1.0000
  C   C27       1.0  0.81114  0.18717  0.07655999999999999  1.0000
  C   C28       1.0  0.88197  0.13481000000000004  0.11648999999999997  1.0000
  C   C29       1.0  0.92303  0.5789700000000001  0.6822199999999998  1.0000
  C   C30       1.0  0.8595899999999999  0.61844  0.63489  1.0000
  C   C31       1.0  0.5742200000000001  0.92334  0.31391  1.0000
  C   C32       1.0  0.6123  0.86355  0.3853199999999999  1.0000
  C   C33       1.0  0.9242399999999998  0.18375000000000005  0.3137899999999999  1.0000
  C   C34       1.0  0.86279  0.13437999999999994  0.38544  1.0000
  C   C35       1.0  0.5788799999999998  0.8081200000000001  0.68727  1.0000
  C   C36       1.0  0.6186399999999999  0.8785800000000001  0.6352599999999999  1.0000
  C   C37       1.0  0.1845  0.92743  0.07802999999999997  1.0000
  C   C38       1.0  0.13436000000000003  0.86724  0.11638999999999997  1.0000
  C   C39       1.0  0.8119099999999999  0.5762600000000001  0.42439  1.0000
  C   C40       1.0  0.88033  0.6185500000000002  0.3667999999999999  1.0000
  C   C41       1.0  0.8111599999999999  0.92511  0.6840499999999998  1.0000
  C   C42       1.0  0.88565  0.8626500000000001  0.6369499999999998  1.0000
  C   C43       1.0  0.18551999999999996  0.5793900000000001  0.31413999999999986  1.0000
  C   C44       1.0  0.13668999999999992  0.6166300000000001  0.3865699999999999  1.0000
  C   C45       1.0  0.57508  0.18823  0.42447  1.0000
  C   C46       1.0  0.61374  0.13759999999999997  0.36541  1.0000
  C   C47       1.0  0.9249800000000001  0.81243  0.07534999999999997  1.0000
  C   C48       1.0  0.8647999999999999  0.88331  0.11529  1.0000
  C   C49       1.0  0.68842  0.31116999999999995  0.57506  1.0000
  C   C50       1.0  0.63457  0.3801800000000001  0.6165399999999998  1.0000
  C   C51       1.0  0.3142000000000001  0.68502  0.9235  1.0000
  C   C52       1.0  0.3875900000000002  0.63733  0.8612599999999998  1.0000
  C   C53       1.0  0.4229300000000001  0.07731000000000007  0.8161899999999997  1.0000
  C   C54       1.0  0.36009  0.11718999999999999  0.88744  1.0000
  C   C55       1.0  0.07598  0.42388000000000003  0.18886  1.0000
  C   C56       1.0  0.11902999999999997  0.36716  0.13496  1.0000
  C   C57       1.0  0.4256599999999999  0.6859  0.57604  1.0000
  C   C58       1.0  0.36698999999999987  0.63435  0.61693  1.0000
  C   C59       1.0  0.07713000000000009  0.3087  0.9265599999999998  1.0000
  C   C60       1.0  0.11837000000000013  0.37805999999999984  0.86768  1.0000
  C   C61       1.0  0.6840400000000004  0.4261599999999999  0.8106399999999998  1.0000
  C   C62       1.0  0.6339499999999996  0.36551  0.88246  1.0000
  C   C63       1.0  0.31257999999999997  0.07884000000000002  0.18561999999999995  1.0000
  C   C64       1.0  0.3846199999999999  0.11756000000000001  0.13496  1.0000
  C   C65       1.0  0.3103100000000001  0.4258000000000001  0.5789899999999998  1.0000
  C   C66       1.0  0.3856200000000001  0.3627700000000001  0.6138499999999998  1.0000
  C   C67       1.0  0.68583  0.07809000000000002  0.92199  1.0000
  C   C68       1.0  0.63744  0.11489000000000005  0.8610699999999998  1.0000
  C   C69       1.0  0.07787000000000001  0.6868999999999998  0.80861  1.0000
  C   C70       1.0  0.11845000000000015  0.6337200000000001  0.8790299999999998  1.0000
  C   C71       1.0  0.4232600000000001  0.3159699999999999  0.18594  1.0000
  C   C72       1.0  0.36182  0.38727999999999996  0.13796  1.0000
  C   C73       1.0  0.81536  0.18522  0.5754  1.0000
  C   C74       1.0  0.8634000000000001  0.11391000000000004  0.6368099999999998  1.0000
  C   C75       1.0  0.1896300000000001  0.8138899999999999  0.92102  1.0000
  C   C76       1.0  0.11863000000000008  0.8657199999999998  0.8811699999999998  1.0000
  C   C77       1.0  0.07630000000000005  0.42487  0.3137099999999999  1.0000
  C   C78       1.0  0.13649000000000003  0.38669  0.3631999999999999  1.0000
  C   C79       1.0  0.4230399999999999  0.07374000000000003  0.69187  1.0000
  C   C80       1.0  0.38255000000000006  0.13147999999999996  0.62181  1.0000
  C   C81       1.0  0.07579999999999999  0.8161  0.68613  1.0000
  C   C82       1.0  0.1388799999999999  0.8634600000000001  0.61329  1.0000
  C   C83       1.0  0.4251699999999998  0.19003  0.31086999999999987  1.0000
  C   C84       1.0  0.38289999999999996  0.12198999999999999  0.36499  1.0000
  C   C85       1.0  0.8123399999999998  0.07807999999999998  0.92133  1.0000
  C   C86       1.0  0.8655499999999999  0.13539  0.87957  1.0000
  C   C87       1.0  0.18784000000000006  0.42158  0.5748399999999998  1.0000
  C   C88       1.0  0.11324999999999995  0.38578  0.63807  1.0000
  C   C89       1.0  0.18788  0.07635999999999998  0.31409  1.0000
  C   C90       1.0  0.11531000000000004  0.13632999999999992  0.36494  1.0000
  C   C91       1.0  0.81599  0.4208  0.68913  1.0000
  C   C92       1.0  0.8658599999999999  0.3832499999999998  0.61622  1.0000
  C   C93       1.0  0.4236  0.8127599999999999  0.57507  1.0000
  C   C94       1.0  0.3837400000000001  0.8631699999999999  0.63473  1.0000
  C   C95       1.0  0.07531000000000011  0.18589000000000006  0.9225699999999998  1.0000
  C   C96       1.0  0.13864000000000012  0.11429000000000009  0.8835099999999998  1.0000
  O   O1        1.0  0.34769000000000005  0.62513  0.32297  1.0000
  O   O2        1.0  0.41674  0.55125  0.4169899999999999  1.0000
  O   O3        1.0  0.62095  0.34534000000000004  0.20713  1.0000
  O   O4        1.0  0.54756  0.41707  0.11650999999999997  1.0000
  O   O5        1.0  0.69607  0.81413  0.13301  1.0000
  O   O6        1.0  0.61453  0.9136999999999998  0.05244  1.0000
  O   O7        1.0  0.8173199999999999  0.6965  0.8528  1.0000
  O   O8        1.0  0.9169100000000001  0.61022  0.9162299999999998  1.0000
  O   O9        1.0  0.6996  0.35394  0.31525  1.0000
  O   O10       1.0  0.6162000000000001  0.4183  0.4131999999999999  1.0000
  O   O11       1.0  0.82476  0.62555  0.20325999999999994  1.0000
  O   O12       1.0  0.92137  0.55056  0.11380999999999997  1.0000
  O   O13       1.0  0.3549000000000001  0.70009  0.12916999999999995  1.0000
  O   O14       1.0  0.41755000000000003  0.6157199999999998  0.05107  1.0000
  O   O15       1.0  0.6223299999999999  0.826  0.84694  1.0000
  O   O16       1.0  0.54855  0.92105  0.91562  1.0000
  O   O17       1.0  0.62327  0.70466  0.32389  1.0000
  O   O18       1.0  0.5475699999999999  0.61757  0.41803  1.0000
  O   O19       1.0  0.35103  0.8204099999999999  0.20055  1.0000
  O   O20       1.0  0.4155199999999999  0.91949  0.11493  1.0000
  O   O21       1.0  0.8190399999999998  0.35118  0.13074  1.0000
  O   O22       1.0  0.9200800000000001  0.4135299999999999  0.0528  1.0000
  O   O23       1.0  0.7043700000000002  0.62534  0.85178  1.0000
  O   O24       1.0  0.6177300000000001  0.54791  0.9148799999999998  1.0000
  O   O25       1.0  0.14440000000000022  0.8716499999999998  0.2998099999999999  1.0000
  O   O26       1.0  0.08161999999999991  0.9503400000000001  0.3831299999999999  1.0000
  O   O27       1.0  0.87036  0.14579999999999999  0.18163999999999994  1.0000
  O   O28       1.0  0.94894  0.08357  0.08105  1.0000
  O   O29       1.0  0.7933500000000001  0.6806599999999998  0.65026  1.0000
  O   O30       1.0  0.88012  0.58305  0.58342  1.0000
  O   O31       1.0  0.6737499999999996  0.7950700000000002  0.3772899999999999  1.0000
  O   O32       1.0  0.5799500000000002  0.885  0.45045  1.0000
  O   O33       1.0  0.79664  0.14908  0.37406  1.0000
  O   O34       1.0  0.88353  0.08274  0.45145  1.0000
  O   O35       1.0  0.6839899999999999  0.86667  0.6469999999999998  1.0000
  O   O36       1.0  0.5838999999999999  0.9447500000000001  0.5840099999999998  1.0000
  O   O37       1.0  0.14708999999999997  0.80232  0.18029  1.0000
  O   O38       1.0  0.08399  0.88748  0.08001  1.0000
  O   O39       1.0  0.8671400000000002  0.6847999999999997  0.3030699999999999  1.0000
  O   O40       1.0  0.9483499999999994  0.58585  0.38375  1.0000
  O   O41       1.0  0.87812  0.7946000000000001  0.6530199999999998  1.0000
  O   O42       1.0  0.9509499999999999  0.88526  0.58416  1.0000
  O   O43       1.0  0.15225999999999998  0.67725  0.37815  1.0000
  O   O44       1.0  0.08321000000000009  0.5829999999999997  0.4521399999999999  1.0000
  O   O45       1.0  0.67708  0.15021000000000007  0.29787999999999987  1.0000
  O   O46       1.0  0.5798100000000002  0.08508000000000003  0.38657999999999987  1.0000
  O   O47       1.0  0.7988799999999997  0.87178  0.17924  1.0000
  O   O48       1.0  0.8855099999999999  0.9489599999999999  0.08022999999999997  1.0000
  O   O49       1.0  0.6447099999999998  0.3684599999999999  0.68241  1.0000
  O   O50       1.0  0.5823999999999997  0.44702  0.58266  1.0000
  O   O51       1.0  0.37923000000000007  0.65433  0.79281  1.0000
  O   O52       1.0  0.4529600000000001  0.58383  0.88328  1.0000
  O   O53       1.0  0.2943200000000001  0.18  0.8756299999999999  1.0000
  O   O54       1.0  0.3811200000000001  0.0815099999999999  0.9535  1.0000
  O   O55       1.0  0.18588000000000007  0.3030799999999999  0.14554999999999996  1.0000
  O   O56       1.0  0.08652999999999998  0.38505  0.08252  1.0000
  O   O57       1.0  0.3015800000000001  0.6450199999999998  0.68232  1.0000
  O   O58       1.0  0.38595000000000007  0.58273  0.5828  1.0000
  O   O59       1.0  0.1842900000000001  0.36523999999999984  0.80289  1.0000
  O   O60       1.0  0.084  0.44463  0.88646  1.0000
  O   O61       1.0  0.6469  0.30117000000000005  0.87021  1.0000
  O   O62       1.0  0.5832799999999999  0.3855799999999999  0.94931  1.0000
  O   O63       1.0  0.37419  0.17865999999999996  0.15117  1.0000
  O   O64       1.0  0.44991999999999993  0.08417000000000001  0.08114999999999997  1.0000
  O   O65       1.0  0.37754999999999994  0.29502000000000006  0.67389  1.0000
  O   O66       1.0  0.45042  0.38622  0.57687  1.0000
  O   O67       1.0  0.65177  0.17663  0.79351  1.0000
  O   O68       1.0  0.58529  0.08033999999999991  0.8818  1.0000
  O   O69       1.0  0.18405000000000002  0.64498  0.86654  1.0000
  O   O70       1.0  0.08293000000000016  0.5829000000000001  0.9450299999999998  1.0000
  O   O71       1.0  0.2936200000000001  0.37862  0.15324999999999994  1.0000
  O   O72       1.0  0.38154  0.45338  0.08449  1.0000
  O   O73       1.0  0.84756  0.12263  0.70494  1.0000
  O   O74       1.0  0.9172700000000003  0.04766000000000007  0.6168699999999998  1.0000
  O   O75       1.0  0.12967  0.8525000000000001  0.81761  1.0000
  O   O76       1.0  0.05242000000000004  0.91846  0.9151799999999998  1.0000
  O   O77       1.0  0.20453999999999997  0.32456  0.34885  1.0000
  O   O78       1.0  0.11536999999999999  0.42002  0.41643  1.0000
  O   O79       1.0  0.31731  0.1971599999999999  0.63322  1.0000
  O   O80       1.0  0.41636000000000006  0.11135000000000006  0.5558799999999998  1.0000
  O   O81       1.0  0.20571999999999993  0.8469400000000001  0.62461  1.0000
  O   O82       1.0  0.1182700000000003  0.9150999999999996  0.54729  1.0000
  O   O83       1.0  0.31567  0.13479  0.35562  1.0000
  O   O84       1.0  0.41626  0.054770000000000034  0.41671999999999987  1.0000
  O   O85       1.0  0.8547100000000001  0.19926000000000005  0.8135499999999998  1.0000
  O   O86       1.0  0.91733  0.11681000000000007  0.9135299999999997  1.0000
  O   O87       1.0  0.12228000000000007  0.32539000000000007  0.7054799999999998  1.0000
  O   O88       1.0  0.04816000000000011  0.42237  0.6149999999999998  1.0000
  O   O89       1.0  0.12598000000000004  0.20232000000000006  0.35054999999999986  1.0000
  O   O90       1.0  0.049470000000000035  0.11500999999999997  0.41721  1.0000
  O   O91       1.0  0.85138  0.32156999999999997  0.6262  1.0000
  O   O92       1.0  0.9178  0.41889000000000004  0.5508399999999999  1.0000
  O   O93       1.0  0.3202799999999999  0.8500000000000002  0.7017999999999998  1.0000
  O   O94       1.0  0.4168700000000002  0.9160399999999997  0.6143499999999997  1.0000
  O   O95       1.0  0.20458999999999997  0.12499000000000002  0.82031  1.0000
  O   O96       1.0  0.11752000000000003  0.048389999999999996  0.9201  1.0000
  O   O97       1.0  0.25125  0.7524  0.3816  1.0000
  O   O98       1.0  0.74988  0.2519  0.11449999999999998  1.0000
  O   O99       1.0  0.6146200000000002  0.88398  0.2506  1.0000
  O   O100      1.0  0.8848800000000001  0.6168399999999998  0.74614  1.0000
  O   O101      1.0  0.6160399999999998  0.24981999999999996  0.38471  1.0000
  O   O102      1.0  0.8850500000000001  0.7500099999999997  0.11502999999999997  1.0000
  O   O103      1.0  0.24745999999999996  0.61988  0.24918999999999994  1.0000
  O   O104      1.0  0.7498299999999999  0.88409  0.7500399999999998  1.0000
  O   O105      1.0  0.74864  0.6161100000000002  0.38504  1.0000
  O   O106      1.0  0.2508600000000001  0.8847399999999999  0.11422999999999997  1.0000
  O   O107      1.0  0.88498  0.24711999999999998  0.25069  1.0000
  O   O108      1.0  0.6141899999999999  0.7499700000000001  0.75432  1.0000
  O   O109      1.0  0.7536499999999999  0.25046000000000007  0.6126499999999998  1.0000
  O   O110      1.0  0.24939999999999993  0.747  0.88565  1.0000
  O   O111      1.0  0.38519999999999993  0.11614  0.75208  1.0000
  O   O112      1.0  0.11393999999999993  0.38269  0.25338  1.0000
  O   O113      1.0  0.3853500000000002  0.7487899999999997  0.6156899999999997  1.0000
  O   O114      1.0  0.11419000000000006  0.24878999999999996  0.88415  1.0000
  O   O115      1.0  0.7490000000000002  0.38556999999999986  0.7486  1.0000
  O   O116      1.0  0.25106000000000006  0.11586000000000002  0.25112  1.0000
  O   O117      1.0  0.24942  0.38442  0.61563  1.0000
  O   O118      1.0  0.7463  0.12003999999999995  0.88484  1.0000
  O   O119      1.0  0.11501000000000017  0.7521099999999998  0.74911  1.0000
  O   O120      1.0  0.38525  0.2517699999999999  0.24796  1.0000
