data_image0
_chemical_formula_structural       Cd8H96C132O48
_chemical_formula_sum              "Cd8 H96 C132 O48"
_cell_length_a       17.67045
_cell_length_b       19.07388
_cell_length_c       19.92406
_cell_angle_alpha    90.00130999999999
_cell_angle_beta     90.24044
_cell_angle_gamma    89.90386

_symmetry_space_group_name_H-M    'P 1'
_symmetry_Int_Tables_number       1

loop_
  _symmetry_equiv_pos_as_xyz
  'x,y,z'

loop_
  _atom_site_type_symbol
  _atom_site_label
  _atom_site_symmetry_multiplicity
  _atom_site_fract_x
  _atom_site_fract_y
  _atom_site_fract_z
  _atom_site_occupancy
  Cd  Cd1       1.0  0.23262999999999995  0.35092  0.43470000000000003  1.0000
  Cd  Cd2       1.0  0.10414  0.24247  0.44222  1.0000
  Cd  Cd3       1.0  0.73177  0.8518000000000001  0.06738000000000001  1.0000
  Cd  Cd4       1.0  0.60441  0.74202  0.05795000000000001  1.0000
  Cd  Cd5       1.0  0.76735  0.85058  0.566  1.0000
  Cd  Cd6       1.0  0.89545  0.74233  0.55842  1.0000
  Cd  Cd7       1.0  0.2663  0.35025  0.9321500000000001  1.0000
  Cd  Cd8       1.0  0.39571999999999996  0.24144000000000002  0.9420300000000003  1.0000
  H   H1        1.0  0.56597  0.89524  0.49676  1.0000
  H   H2        1.0  0.58596  0.80421  0.50421  1.0000
  H   H3        1.0  0.57601  0.81594  0.62661  1.0000
  H   H4        1.0  0.55238  0.90682  0.61764  1.0000
  H   H5        1.0  0.49916  0.72427  0.5588400000000002  1.0000
  H   H6        1.0  0.4247499999999999  0.75555  0.61123  1.0000
  H   H7        1.0  0.3889199999999999  0.87641  0.49903000000000003  1.0000
  H   H8        1.0  0.37730999999999987  0.88256  0.5882800000000001  1.0000
  H   H9        1.0  0.6603399999999998  0.86505  0.8407  1.0000
  H   H10       1.0  0.71861  0.8447200000000001  0.31129  1.0000
  H   H11       1.0  0.65366  0.85061  0.421  1.0000
  H   H12       1.0  0.3762399999999999  0.51591  0.5616100000000002  1.0000
  H   H13       1.0  0.6218199999999999  0.87832  0.72147  1.0000
  H   H14       1.0  0.42937  0.63349  0.58573  1.0000
  H   H15       1.0  0.40573  0.18664  0.50068  1.0000
  H   H16       1.0  0.48799  0.08609  0.53545  1.0000
  H   H17       1.0  0.39701  0.80823  0.77194  1.0000
  H   H18       1.0  0.4385  0.79168  0.89149  1.0000
  H   H19       1.0  0.29624999999999996  0.94746  0.5173000000000001  1.0000
  H   H20       1.0  0.21683  0.0471  0.48027  1.0000
  H   H21       1.0  0.30616  0.71818  0.41681000000000007  1.0000
  H   H22       1.0  0.25017999999999996  0.599  0.39514  1.0000
  H   H23       1.0  0.4405  0.80928  0.32214000000000004  1.0000
  H   H24       1.0  0.50655  0.80803  0.21122  1.0000
  H   H25       1.0  0.06540999999999997  0.39544  0.00354  1.0000
  H   H26       1.0  0.08589  0.30459  0.99608  1.0000
  H   H27       1.0  0.07571  0.31541  0.87408  1.0000
  H   H28       1.0  0.05283999999999999  0.4065  0.8828500000000001  1.0000
  H   H29       1.0  0.9989499999999999  0.22425  0.94091  1.0000
  H   H30       1.0  0.9245599999999998  0.25563  0.88804  1.0000
  H   H31       1.0  0.8888099999999998  0.37709000000000004  0.9997900000000001  1.0000
  H   H32       1.0  0.87709  0.38231  0.91046  1.0000
  H   H33       1.0  0.15987  0.36395  0.66088  1.0000
  H   H34       1.0  0.21901  0.34523  0.18928  1.0000
  H   H35       1.0  0.15353  0.35088  0.07932  1.0000
  H   H36       1.0  0.8748399999999997  0.01506  0.9410300000000003  1.0000
  H   H37       1.0  0.12117  0.37801000000000007  0.7797900000000002  1.0000
  H   H38       1.0  0.92871  0.1319  0.91496  1.0000
  H   H39       1.0  0.90563  0.68686  0.9995200000000001  1.0000
  H   H40       1.0  0.98736  0.58678  0.9635600000000001  1.0000
  H   H41       1.0  0.89652  0.30736  0.728  1.0000
  H   H42       1.0  0.93801  0.2899300000000001  0.6088700000000002  1.0000
  H   H43       1.0  0.79581  0.44799  0.98113  1.0000
  H   H44       1.0  0.71713  0.54725  0.01949  1.0000
  H   H45       1.0  0.80508  0.22085999999999997  0.0808  1.0000
  H   H46       1.0  0.7475999999999999  0.10265  0.10375  1.0000
  H   H47       1.0  0.9408899999999999  0.30909  0.17721  1.0000
  H   H48       1.0  0.007479999999999999  0.308  0.28836000000000006  1.0000
  H   H49       1.0  0.43387  0.3955  0.5032  1.0000
  H   H50       1.0  0.41414  0.30445  0.49543000000000004  1.0000
  H   H51       1.0  0.42414999999999997  0.31621  0.37324000000000007  1.0000
  H   H52       1.0  0.44761999999999996  0.40712  0.38210000000000005  1.0000
  H   H53       1.0  0.50102  0.22452000000000003  0.4412100000000001  1.0000
  H   H54       1.0  0.57532  0.25551  0.38863000000000003  1.0000
  H   H55       1.0  0.61111  0.37643  0.5009400000000002  1.0000
  H   H56       1.0  0.6227499999999998  0.38252  0.4117  1.0000
  H   H57       1.0  0.33928  0.36397  0.15949  1.0000
  H   H58       1.0  0.28142  0.34487  0.68874  1.0000
  H   H59       1.0  0.3462399999999999  0.35057  0.57902  1.0000
  H   H60       1.0  0.6239499999999998  0.01565  0.43953000000000003  1.0000
  H   H61       1.0  0.37819  0.3785  0.27859  1.0000
  H   H62       1.0  0.5711799999999998  0.13336  0.4145  1.0000
  H   H63       1.0  0.59461  0.68673  0.49955000000000005  1.0000
  H   H64       1.0  0.51248  0.58662  0.46418000000000004  1.0000
  H   H65       1.0  0.6033299999999998  0.30832  0.22811000000000003  1.0000
  H   H66       1.0  0.56123  0.28998  0.10893  1.0000
  H   H67       1.0  0.7041699999999999  0.44736000000000004  0.4822900000000001  1.0000
  H   H68       1.0  0.7833999999999998  0.54653  0.5202700000000001  1.0000
  H   H69       1.0  0.69433  0.21867  0.58306  1.0000
  H   H70       1.0  0.75008  0.09942  0.60549  1.0000
  H   H71       1.0  0.55969  0.30921  0.67761  1.0000
  H   H72       1.0  0.4937099999999999  0.30813  0.7885700000000002  1.0000
  H   H73       1.0  0.93402  0.89556  0.9974800000000001  1.0000
  H   H74       1.0  0.91402  0.80465  0.00495  1.0000
  H   H75       1.0  0.92463  0.81527  0.12693000000000002  1.0000
  H   H76       1.0  0.94711  0.9063600000000002  0.11826  1.0000
  H   H77       1.0  0.00135  0.72435  0.05979000000000001  1.0000
  H   H78       1.0  0.07599  0.75548  0.1124  1.0000
  H   H79       1.0  0.11123999999999998  0.8765700000000001  0.00086  1.0000
  H   H80       1.0  0.12285  0.8823900000000001  0.09016  1.0000
  H   H81       1.0  0.8387  0.8656400000000001  0.33927  1.0000
  H   H82       1.0  0.7805399999999998  0.84541  0.81125  1.0000
  H   H83       1.0  0.84579  0.8509900000000001  0.92141  1.0000
  H   H84       1.0  0.12265  0.51442  0.05958000000000001  1.0000
  H   H85       1.0  0.8786699999999998  0.8793300000000001  0.22079000000000001  1.0000
  H   H86       1.0  0.071  0.63208  0.08584000000000003  1.0000
  H   H87       1.0  0.09405999999999998  0.18665  0.0006000000000000001  1.0000
  H   H88       1.0  0.012509999999999997  0.08673  0.03639  1.0000
  H   H89       1.0  0.10285999999999997  0.80779  0.27454000000000006  1.0000
  H   H90       1.0  0.059949999999999996  0.79114  0.39333000000000007  1.0000
  H   H91       1.0  0.20420999999999997  0.9475600000000001  0.01898  1.0000
  H   H92       1.0  0.28283  0.04661  0.98067  1.0000
  H   H93       1.0  0.19544999999999998  0.71888  0.9196500000000002  1.0000
  H   H94       1.0  0.25032  0.59961  0.89625  1.0000
  H   H95       1.0  0.058789999999999995  0.80935  0.82367  1.0000
  H   H96       1.0  0.99231  0.8082900000000001  0.71244  1.0000
  C   C1        1.0  0.65624  0.8264  0.18909000000000006  1.0000
  C   C2        1.0  0.27911  0.47967  0.46236000000000005  1.0000
  C   C3        1.0  0.48387  0.8369500000000001  0.55577  1.0000
  C   C4        1.0  0.54022  0.8429399999999999  0.49766  1.0000
  C   C5        1.0  0.52909  0.8534999999999999  0.6203000000000001  1.0000
  C   C6        1.0  0.30997  0.55023  0.47703  1.0000
  C   C7        1.0  0.45225999999999994  0.76213  0.56229  1.0000
  C   C8        1.0  0.41754999999999987  0.88798  0.54667  1.0000
  C   C9        1.0  0.50627  0.8437300000000001  0.73967  1.0000
  C   C10       1.0  0.60276  0.8528500000000001  0.82523  1.0000
  C   C11       1.0  0.5520499999999998  0.8278  0.87352  1.0000
  C   C12       1.0  0.6577499999999997  0.83703  0.3140100000000001  1.0000
  C   C13       1.0  0.6212699999999999  0.8394600000000001  0.3758000000000001  1.0000
  C   C14       1.0  0.3707  0.68327  0.5022700000000001  1.0000
  C   C15       1.0  0.36063999999999996  0.56047  0.53041  1.0000
  C   C16       1.0  0.61725  0.82557  0.25424  1.0000
  C   C17       1.0  0.58078  0.8605000000000002  0.75817  1.0000
  C   C18       1.0  0.39804  0.01036  0.52716  1.0000
  C   C19       1.0  0.30645  0.12299000000000002  0.48623  1.0000
  C   C20       1.0  0.3906199999999999  0.62672  0.54383  1.0000
  C   C21       1.0  0.5425599999999998  0.82914  0.37811  1.0000
  C   C22       1.0  0.25731  0.1815  0.46355  1.0000
  C   C23       1.0  0.57759  0.8114  0.9426500000000002  1.0000
  C   C24       1.0  0.38288999999999995  0.13383  0.50322  1.0000
  C   C25       1.0  0.42854999999999993  0.07836  0.5233000000000001  1.0000
  C   C26       1.0  0.45425  0.82073  0.7880900000000001  1.0000
  C   C27       1.0  0.47724999999999995  0.81207  0.85408  1.0000
  C   C28       1.0  0.32113999999999987  0.9991700000000001  0.51268  1.0000
  C   C29       1.0  0.27626  0.05525  0.49201000000000006  1.0000
  C   C30       1.0  0.32008  0.67346  0.44839  1.0000
  C   C31       1.0  0.28956  0.60764  0.4364200000000001  1.0000
  C   C32       1.0  0.50129  0.81696  0.31863  1.0000
  C   C33       1.0  0.53825  0.81583  0.25748  1.0000
  C   C34       1.0  0.15656  0.32645  0.31157  1.0000
  C   C35       1.0  0.7770399999999998  0.9814200000000001  0.04037000000000001  1.0000
  C   C36       1.0  0.98367  0.33701  0.9439900000000002  1.0000
  C   C37       1.0  0.03991  0.34308  0.00241  1.0000
  C   C38       1.0  0.02911  0.35334  0.88003  1.0000
  C   C39       1.0  0.80843  0.05146  0.02426  1.0000
  C   C40       1.0  0.9520699999999999  0.26213  0.93716  1.0000
  C   C41       1.0  0.91738  0.38822  0.95226  1.0000
  C   C42       1.0  0.00579  0.34317  0.76078  1.0000
  C   C43       1.0  0.10234  0.35174000000000005  0.67604  1.0000
  C   C44       1.0  0.05167  0.32622  0.6275600000000001  1.0000
  C   C45       1.0  0.15815  0.33738  0.18638  1.0000
  C   C46       1.0  0.12135999999999998  0.33977  0.12441000000000003  1.0000
  C   C47       1.0  0.87017  0.18364  0.9971000000000001  1.0000
  C   C48       1.0  0.8593799999999998  0.06033  0.97124  1.0000
  C   C49       1.0  0.11784999999999998  0.3258  0.24594000000000002  1.0000
  C   C50       1.0  0.08029  0.35982  0.7428300000000002  1.0000
  C   C51       1.0  0.8977899999999998  0.51071  0.97169  1.0000
  C   C52       1.0  0.80654  0.62315  0.014210000000000004  1.0000
  C   C53       1.0  0.8898199999999999  0.12618  0.9566800000000002  1.0000
  C   C54       1.0  0.04264  0.3293  0.12172000000000001  1.0000
  C   C55       1.0  0.75757  0.68151  0.03765  1.0000
  C   C56       1.0  0.07756  0.30971  0.5587300000000001  1.0000
  C   C57       1.0  0.8827  0.63409  0.9967600000000001  1.0000
  C   C58       1.0  0.92814  0.5788  0.9759800000000001  1.0000
  C   C59       1.0  0.95376  0.31973  0.71217  1.0000
  C   C60       1.0  0.9768299999999999  0.31056  0.64642  1.0000
  C   C61       1.0  0.82102  0.49954000000000004  0.98627  1.0000
  C   C62       1.0  0.77642  0.55544  0.00766  1.0000
  C   C63       1.0  0.8189  0.17532  0.050330000000000014  1.0000
  C   C64       1.0  0.78767  0.11001  0.06309  1.0000
  C   C65       1.0  0.00165  0.31698  0.18097  1.0000
  C   C66       1.0  0.03889  0.31589  0.24224  1.0000
  C   C67       1.0  0.34412  0.32629  0.81094  1.0000
  C   C68       1.0  0.7210099999999999  0.97971  0.53912  1.0000
  C   C69       1.0  0.5162  0.33718  0.4441  1.0000
  C   C70       1.0  0.4597399999999999  0.34317  0.50215  1.0000
  C   C71       1.0  0.47099  0.35375  0.3795600000000001  1.0000
  C   C72       1.0  0.6901699999999997  0.05028  0.52397  1.0000
  C   C73       1.0  0.54788  0.26225  0.43761000000000005  1.0000
  C   C74       1.0  0.58249  0.38808  0.45329  1.0000
  C   C75       1.0  0.49378999999999995  0.34367  0.26033  1.0000
  C   C76       1.0  0.3969  0.35176  0.17503000000000002  1.0000
  C   C77       1.0  0.4475999999999999  0.32577000000000006  0.12713000000000002  1.0000
  C   C78       1.0  0.3422999999999999  0.3371  0.6859900000000001  1.0000
  C   C79       1.0  0.37873  0.33943  0.6241600000000002  1.0000
  C   C80       1.0  0.62951  0.18338  0.49791000000000013  1.0000
  C   C81       1.0  0.6395599999999998  0.06035  0.4705200000000001  1.0000
  C   C82       1.0  0.38298  0.32569  0.7457000000000003  1.0000
  C   C83       1.0  0.41914  0.3603  0.24192  1.0000
  C   C84       1.0  0.60221  0.51045  0.47281  1.0000
  C   C85       1.0  0.6938499999999997  0.62278  0.5145200000000001  1.0000
  C   C86       1.0  0.60969  0.12664  0.45661  1.0000
  C   C87       1.0  0.4574599999999999  0.32915  0.62172  1.0000
  C   C88       1.0  0.74265  0.68128  0.53776  1.0000
  C   C89       1.0  0.42239  0.30797  0.05835000000000001  1.0000
  C   C90       1.0  0.6174699999999999  0.63385  0.49711000000000005  1.0000
  C   C91       1.0  0.57182  0.5786200000000001  0.4767  1.0000
  C   C92       1.0  0.54592  0.3204  0.21208  1.0000
  C   C93       1.0  0.5226199999999999  0.31063  0.14638  1.0000
  C   C94       1.0  0.67914  0.49906  0.48735000000000006  1.0000
  C   C95       1.0  0.7239699999999998  0.55493  0.5084600000000001  1.0000
  C   C96       1.0  0.68021  0.17378  0.55181  1.0000
  C   C97       1.0  0.7106899999999999  0.10793  0.56417  1.0000
  C   C98       1.0  0.49889  0.31697  0.68112  1.0000
  C   C99       1.0  0.46198  0.31590000000000007  0.74233  1.0000
  C   C100      1.0  0.84335  0.82654  0.68908  1.0000
  C   C101      1.0  0.21927  0.47879  0.96045  1.0000
  C   C102      1.0  0.01641  0.83703  0.05683  1.0000
  C   C103      1.0  0.9597899999999999  0.84319  0.9985200000000001  1.0000
  C   C104      1.0  0.9710799999999999  0.85323  0.12105  1.0000
  C   C105      1.0  0.18895  0.54947  0.9759600000000002  1.0000
  C   C106      1.0  0.04824999999999999  0.76207  0.06336  1.0000
  C   C107      1.0  0.08258999999999997  0.88811  0.04829000000000001  1.0000
  C   C108      1.0  0.99376  0.8437100000000001  0.24054000000000006  1.0000
  C   C109      1.0  0.89639  0.85291  0.32477  1.0000
  C   C110      1.0  0.94674  0.82733  0.37368  1.0000
  C   C111      1.0  0.84144  0.83764  0.8143000000000001  1.0000
  C   C112      1.0  0.8781099999999997  0.8399700000000001  0.87634  1.0000
  C   C113      1.0  0.12952999999999995  0.68289  0.0033  1.0000
  C   C114      1.0  0.1386  0.55939  0.029260000000000005  1.0000
  C   C115      1.0  0.88187  0.82611  0.7548  1.0000
  C   C116      1.0  0.9191099999999999  0.86082  0.25807  1.0000
  C   C117      1.0  0.10221  0.01051  0.028370000000000003  1.0000
  C   C118      1.0  0.19333  0.1228  0.98581  1.0000
  C   C119      1.0  0.10942  0.62577  0.04388  1.0000
  C   C120      1.0  0.95687  0.8294900000000001  0.87908  1.0000
  C   C121      1.0  0.24226  0.181  0.9622000000000002  1.0000
  C   C122      1.0  0.9213699999999999  0.81105  0.44273  1.0000
  C   C123      1.0  0.11711999999999999  0.13385  0.00326  1.0000
  C   C124      1.0  0.07176  0.07864  0.02406  1.0000
  C   C125      1.0  0.04536  0.82035  0.28961000000000003  1.0000
  C   C126      1.0  0.02166999999999999  0.81157  0.35522  1.0000
  C   C127      1.0  0.17901  0.99919  0.01385  1.0000
  C   C128      1.0  0.22352  0.05501000000000001  0.9924  1.0000
  C   C129      1.0  0.18068  0.6736  0.9500600000000001  1.0000
  C   C130      1.0  0.21058  0.60768  0.9370700000000001  1.0000
  C   C131      1.0  0.9979899999999999  0.81722  0.81986  1.0000
  C   C132      1.0  0.9608599999999999  0.81619  0.7585600000000001  1.0000
  O   O1        1.0  0.72725  0.83346  0.18467  1.0000
  O   O2        1.0  0.6136599999999999  0.82303  0.13472000000000003  1.0000
  O   O3        1.0  0.22441999999999998  0.47231  0.42105000000000004  1.0000
  O   O4        1.0  0.31  0.42596000000000006  0.49139  1.0000
  O   O5        1.0  0.47753  0.84748  0.6757900000000001  1.0000
  O   O6        1.0  0.64408  0.82636  0.96299  1.0000
  O   O7        1.0  0.5006  0.8300000000000001  0.43537000000000003  1.0000
  O   O8        1.0  0.44716  0.95838  0.54556  1.0000
  O   O9        1.0  0.28387  0.24351000000000003  0.46119000000000004  1.0000
  O   O10       1.0  0.3979499999999999  0.74994  0.50947  1.0000
  O   O11       1.0  0.52944  0.77713  0.9796600000000001  1.0000
  O   O12       1.0  0.18885999999999994  0.16334  0.44751  1.0000
  O   O13       1.0  0.22748999999999997  0.33333  0.31688  1.0000
  O   O14       1.0  0.11352  0.32302  0.3653700000000001  1.0000
  O   O15       1.0  0.71941  0.9754300000000001  0.0778  1.0000
  O   O16       1.0  0.8109  0.9266300000000001  0.01607  1.0000
  O   O17       1.0  0.9772999999999998  0.34748  0.8244600000000001  1.0000
  O   O18       1.0  0.14353  0.32612  0.53862  1.0000
  O   O19       1.0  0.00044  0.32996  0.0643  1.0000
  O   O20       1.0  0.9468399999999999  0.45878  0.95291  1.0000
  O   O21       1.0  0.78389  0.74354  0.04039  1.0000
  O   O22       1.0  0.89769  0.25011  0.98941  1.0000
  O   O23       1.0  0.030039999999999997  0.27412  0.52181  1.0000
  O   O24       1.0  0.6892499999999999  0.66317  0.05389  1.0000
  O   O25       1.0  0.27301  0.33324  0.8152500000000001  1.0000
  O   O26       1.0  0.3866099999999999  0.32274  0.8653200000000002  1.0000
  O   O27       1.0  0.77679  0.9724600000000001  0.5791400000000001  1.0000
  O   O28       1.0  0.6889599999999998  0.9257900000000001  0.51163  1.0000
  O   O29       1.0  0.52258  0.3476  0.32416000000000006  1.0000
  O   O30       1.0  0.35712  0.32529  0.03651000000000001  1.0000
  O   O31       1.0  0.49934999999999996  0.33002  0.56441  1.0000
  O   O32       1.0  0.55296  0.45864  0.45443  1.0000
  O   O33       1.0  0.71607  0.74339  0.53883  1.0000
  O   O34       1.0  0.60219  0.25005  0.49040000000000006  1.0000
  O   O35       1.0  0.46978999999999993  0.27049  0.023300000000000005  1.0000
  O   O36       1.0  0.81075  0.66325  0.55557  1.0000
  O   O37       1.0  0.77239  0.83333  0.68341  1.0000
  O   O38       1.0  0.88663  0.8229  0.63558  1.0000
  O   O39       1.0  0.2760199999999999  0.47203999999999996  0.9217200000000001  1.0000
  O   O40       1.0  0.18641999999999995  0.42455  0.98642  1.0000
  O   O41       1.0  0.02268  0.8474900000000001  0.17694  1.0000
  O   O42       1.0  0.85446  0.82539  0.46191  1.0000
  O   O43       1.0  0.9991299999999999  0.83007  0.9364700000000002  1.0000
  O   O44       1.0  0.05313  0.95873  0.04711  1.0000
  O   O45       1.0  0.21579999999999994  0.24317  0.95965  1.0000
  O   O46       1.0  0.10233000000000002  0.74967  0.010790000000000003  1.0000
  O   O47       1.0  0.9700099999999998  0.77788  0.48083  1.0000
  O   O48       1.0  0.31052  0.16281  0.9458500000000001  1.0000
