data_image0
_chemical_formula_structural       Co4H92C100N16O20
_chemical_formula_sum              "Co4 H92 C100 N16 O20"
_cell_length_a       9.76576
_cell_length_b       16.557049999999997
_cell_length_c       16.55947
_cell_angle_alpha    90.0
_cell_angle_beta     90.0
_cell_angle_gamma    95.24498

_space_group_name_H-M_alt    "P 1"
_space_group_IT_number       1

loop_
  _space_group_symop_operation_xyz
  'x, y, z'

loop_
  _atom_site_type_symbol
  _atom_site_label
  _atom_site_symmetry_multiplicity
  _atom_site_fract_x
  _atom_site_fract_y
  _atom_site_fract_z
  _atom_site_occupancy
  Co  Co1       1.0  0.87159  0.29204  0.29289  1.0000
  Co  Co2       1.0  0.62839  0.20796  0.79288  1.0000
  Co  Co3       1.0  0.12842  0.70795  0.70711  1.0000
  Co  Co4       1.0  0.37158  0.79205  0.2071  1.0000
  H   H1        1.0  0.12875  0.52226  0.2712  1.0000
  H   H2        1.0  0.53096  0.60419  0.35872  1.0000
  H   H3        1.0  0.36589  0.3555  0.39684  1.0000
  H   H4        1.0  0.67173  0.56548  0.46272  1.0000
  H   H5        1.0  0.7301  0.53392  0.36667  1.0000
  H   H6        1.0  0.82759  0.41532  0.43319  1.0000
  H   H7        1.0  0.77169  0.44762  0.52785  1.0000
  H   H8        1.0  0.9283899999999999  0.57788  0.51296  1.0000
  H   H9        1.0  0.9849999999999999  0.54374  0.41925  1.0000
  H   H10       1.0  0.54427  0.26393  0.24113  1.0000
  H   H11       1.0  0.83229  0.46903  0.23107  1.0000
  H   H12       1.0  0.41273  0.39582  0.18372  1.0000
  H   H13       1.0  0.6974  0.57176  0.16554  1.0000
  H   H14       1.0  0.5246099999999999  0.56664  0.19928  1.0000
  H   H15       1.0  0.74682  0.49453  0.03319  1.0000
  H   H16       1.0  0.338  0.54238  0.10434  1.0000
  H   H17       1.0  0.5952400000000001  0.25379  0.38765  1.0000
  H   H18       1.0  0.002390000000000003  0.2505  0.47033  1.0000
  H   H19       1.0  0.8224199999999999  0.18673  0.59098  1.0000
  H   H20       1.0  0.45928  0.20592999999999997  0.51272  1.0000
  H   H21       1.0  0.54747  0.18445999999999999  0.60197  1.0000
  H   H22       1.0  0.5823  0.09542  0.39063  1.0000
  H   H23       1.0  0.46044  0.05102  0.63843  1.0000
  H   H24       1.0  0.37124999999999997  0.9777399999999999  0.7712  1.0000
  H   H25       1.0  0.96904  0.89582  0.85872  1.0000
  H   H26       1.0  0.1341  0.1445  0.89685  1.0000
  H   H27       1.0  0.82826  0.93452  0.96273  1.0000
  H   H28       1.0  0.7699  0.96608  0.86667  1.0000
  H   H29       1.0  0.6724  0.08468  0.93319  1.0000
  H   H30       1.0  0.7283  0.05238  0.02785  1.0000
  H   H31       1.0  0.5716  0.92212  0.01296  1.0000
  H   H32       1.0  0.51499  0.9562499999999998  0.91925  1.0000
  H   H33       1.0  0.95572  0.23607  0.74113  1.0000
  H   H34       1.0  0.66771  0.03098  0.73107  1.0000
  H   H35       1.0  0.08726  0.10419  0.68372  1.0000
  H   H36       1.0  0.8026  0.9282399999999997  0.66554  1.0000
  H   H37       1.0  0.9753799999999999  0.93336  0.69929  1.0000
  H   H38       1.0  0.75318  0.00546  0.53319  1.0000
  H   H39       1.0  0.16199  0.95761  0.60434  1.0000
  H   H40       1.0  0.90476  0.24620000000000003  0.88765  1.0000
  H   H41       1.0  0.49761000000000005  0.24949  0.9703400000000001  1.0000
  H   H42       1.0  0.67758  0.31327  0.09098  1.0000
  H   H43       1.0  0.04072  0.29407  0.01272  1.0000
  H   H44       1.0  0.9525299999999999  0.31554  0.10197  1.0000
  H   H45       1.0  0.9176999999999998  0.40457  0.89063  1.0000
  H   H46       1.0  0.039560000000000005  0.44898  0.13843  1.0000
  H   H47       1.0  0.8712600000000001  0.47777  0.7288  1.0000
  H   H48       1.0  0.46902999999999995  0.39584  0.64128  1.0000
  H   H49       1.0  0.63409  0.64451  0.60315  1.0000
  H   H50       1.0  0.32827  0.43454  0.53727  1.0000
  H   H51       1.0  0.26989  0.46609  0.63333  1.0000
  H   H52       1.0  0.17237  0.58468  0.5668  1.0000
  H   H53       1.0  0.22827  0.55238  0.47214  1.0000
  H   H54       1.0  0.07159  0.42212  0.48704  1.0000
  H   H55       1.0  0.014979999999999997  0.45625  0.58075  1.0000
  H   H56       1.0  0.45572  0.73606  0.75887  1.0000
  H   H57       1.0  0.16771  0.53096  0.76893  1.0000
  H   H58       1.0  0.58726  0.60418  0.81628  1.0000
  H   H59       1.0  0.30259999999999987  0.42824  0.83446  1.0000
  H   H60       1.0  0.47538  0.4333499999999999  0.80072  1.0000
  H   H61       1.0  0.25318  0.50546  0.96681  1.0000
  H   H62       1.0  0.662  0.45761  0.89566  1.0000
  H   H63       1.0  0.40475999999999995  0.7462  0.61235  1.0000
  H   H64       1.0  0.9976099999999999  0.74949  0.52967  1.0000
  H   H65       1.0  0.17758  0.81326  0.40901  1.0000
  H   H66       1.0  0.5407199999999999  0.7940699999999998  0.48728  1.0000
  H   H67       1.0  0.45253  0.81553  0.39803  1.0000
  H   H68       1.0  0.4177  0.90458  0.60937  1.0000
  H   H69       1.0  0.53956  0.94898  0.36157  1.0000
  H   H70       1.0  0.62874  0.022239999999999992  0.2288  1.0000
  H   H71       1.0  0.03097  0.10417  0.14128  1.0000
  H   H72       1.0  0.8659  0.85549  0.10315  1.0000
  H   H73       1.0  0.17173  0.06547  0.03727  1.0000
  H   H74       1.0  0.23011  0.03391  0.13333  1.0000
  H   H75       1.0  0.32761  0.91532  0.0668  1.0000
  H   H76       1.0  0.27170999999999995  0.9476099999999997  0.97215  1.0000
  H   H77       1.0  0.42839999999999995  0.07787999999999998  0.9870399999999999  1.0000
  H   H78       1.0  0.48501  0.04375  0.08075  1.0000
  H   H79       1.0  0.044270000000000004  0.76393  0.25887  1.0000
  H   H80       1.0  0.33228  0.96903  0.26893  1.0000
  H   H81       1.0  0.91273  0.89582  0.31628  1.0000
  H   H82       1.0  0.1974  0.07176  0.33446  1.0000
  H   H83       1.0  0.02461  0.06665  0.30072  1.0000
  H   H84       1.0  0.24680999999999992  0.9945299999999999  0.46681  1.0000
  H   H85       1.0  0.8379999999999999  0.04238  0.39566  1.0000
  H   H86       1.0  0.09523000000000001  0.75379  0.11235  1.0000
  H   H87       1.0  0.50238  0.7505  0.02967  1.0000
  H   H88       1.0  0.32242  0.68673  0.90902  1.0000
  H   H89       1.0  0.9592700000000002  0.70592  0.98728  1.0000
  H   H90       1.0  0.047459999999999974  0.68446  0.89803  1.0000
  H   H91       1.0  0.08229999999999994  0.5954199999999997  0.10937  1.0000
  H   H92       1.0  0.96043  0.55102  0.86157  1.0000
  C   C1        1.0  0.12184999999999999  0.36559  0.32508  1.0000
  C   C2        1.0  0.23520999999999997  0.43206  0.33419  1.0000
  C   C3        1.0  0.2218  0.5094  0.30264  1.0000
  C   C4        1.0  0.32892  0.57044  0.31204  1.0000
  C   C5        1.0  0.45006  0.55506  0.35288  1.0000
  C   C6        1.0  0.46419  0.47735  0.38312  1.0000
  C   C7        1.0  0.35582  0.41625  0.37403  1.0000
  C   C8        1.0  0.31609  0.6514  0.27469  1.0000
  C   C9        1.0  0.69823  0.51277  0.42748  1.0000
  C   C10       1.0  0.80978  0.46937  0.4686  1.0000
  C   C11       1.0  0.94534  0.52282  0.47857  1.0000
  C   C12       1.0  0.58245  0.32668  0.23187  1.0000
  C   C13       1.0  0.73641  0.43098  0.22681  1.0000
  C   C14       1.0  0.51751  0.39072  0.20264  1.0000
  C   C15       1.0  0.59765  0.53561  0.16298  1.0000
  C   C16       1.0  0.54823  0.52158  0.07744  1.0000
  C   C17       1.0  0.63887  0.49757  0.01848  1.0000
  C   C18       1.0  0.40892  0.52389  0.0586  1.0000
  C   C19       1.0  0.6824  0.24495  0.42582  1.0000
  C   C20       1.0  0.89121  0.24158  0.47214  1.0000
  C   C21       1.0  0.80374  0.21014  0.53143  1.0000
  C   C22       1.0  0.5446000000000001  0.17403  0.53648  1.0000
  C   C23       1.0  0.52281  0.08396  0.51686  1.0000
  C   C24       1.0  0.54499  0.0543  0.43896  1.0000
  C   C25       1.0  0.47767  0.02875  0.57755  1.0000
  C   C26       1.0  0.37815  0.13441  0.82508  1.0000
  C   C27       1.0  0.26478  0.06794  0.83419  1.0000
  C   C28       1.0  0.2782  0.99059  0.80264  1.0000
  C   C29       1.0  0.17108  0.92956  0.81204  1.0000
  C   C30       1.0  0.04993000000000002  0.94494  0.85288  1.0000
  C   C31       1.0  0.0358  0.022649999999999993  0.88312  1.0000
  C   C32       1.0  0.14418  0.08375  0.87403  1.0000
  C   C33       1.0  0.18389999999999998  0.8486  0.7747  1.0000
  C   C34       1.0  0.80176  0.98723  0.92748  1.0000
  C   C35       1.0  0.69021  0.030629999999999998  0.9686  1.0000
  C   C36       1.0  0.55465  0.97717  0.97857  1.0000
  C   C37       1.0  0.9175399999999999  0.17333  0.73187  1.0000
  C   C38       1.0  0.76359  0.06902  0.72681  1.0000
  C   C39       1.0  0.98248  0.10928  0.70264  1.0000
  C   C40       1.0  0.9023499999999999  0.96439  0.66298  1.0000
  C   C41       1.0  0.9517599999999999  0.97842  0.57744  1.0000
  C   C42       1.0  0.86113  0.00243  0.51848  1.0000
  C   C43       1.0  0.09108  0.97611  0.5586  1.0000
  C   C44       1.0  0.8176  0.25505  0.92582  1.0000
  C   C45       1.0  0.60879  0.25842  0.97214  1.0000
  C   C46       1.0  0.69626  0.28986  0.03143  1.0000
  C   C47       1.0  0.9554000000000001  0.32597  0.03648  1.0000
  C   C48       1.0  0.97719  0.41604  0.01686  1.0000
  C   C49       1.0  0.9550099999999999  0.44568999999999986  0.93896  1.0000
  C   C50       1.0  0.02231999999999999  0.47125  0.07755  1.0000
  C   C51       1.0  0.8781500000000001  0.63442  0.67491  1.0000
  C   C52       1.0  0.76478  0.56795  0.6658  1.0000
  C   C53       1.0  0.7782  0.49060999999999994  0.69736  1.0000
  C   C54       1.0  0.67108  0.42957  0.68796  1.0000
  C   C55       1.0  0.54993  0.4449599999999999  0.64712  1.0000
  C   C56       1.0  0.5358  0.5226599999999998  0.61689  1.0000
  C   C57       1.0  0.64418  0.58377  0.62596  1.0000
  C   C58       1.0  0.68387  0.34861  0.72529  1.0000
  C   C59       1.0  0.30176  0.48724  0.57252  1.0000
  C   C60       1.0  0.19020000000000004  0.53063  0.5314  1.0000
  C   C61       1.0  0.054650000000000004  0.47717  0.52143  1.0000
  C   C62       1.0  0.41754  0.67332  0.76813  1.0000
  C   C63       1.0  0.26359  0.56901  0.77319  1.0000
  C   C64       1.0  0.48247999999999996  0.6092699999999998  0.79736  1.0000
  C   C65       1.0  0.40235  0.4643799999999999  0.83702  1.0000
  C   C66       1.0  0.45177  0.47841  0.92256  1.0000
  C   C67       1.0  0.3611299999999999  0.50243  0.9815200000000001  1.0000
  C   C68       1.0  0.59108  0.47611  0.9414  1.0000
  C   C69       1.0  0.3176  0.7550499999999998  0.57418  1.0000
  C   C70       1.0  0.10879  0.75842  0.52786  1.0000
  C   C71       1.0  0.19626  0.78985  0.46857  1.0000
  C   C72       1.0  0.4554  0.82597  0.46352  1.0000
  C   C73       1.0  0.47718999999999995  0.91604  0.48314  1.0000
  C   C74       1.0  0.45501  0.94569  0.56104  1.0000
  C   C75       1.0  0.52232  0.97125  0.42245  1.0000
  C   C76       1.0  0.62185  0.8655799999999999  0.17492  1.0000
  C   C77       1.0  0.73522  0.93205  0.16581  1.0000
  C   C78       1.0  0.7218  0.0094  0.19736  1.0000
  C   C79       1.0  0.8289199999999999  0.07043  0.18796  1.0000
  C   C80       1.0  0.95007  0.05505  0.14712  1.0000
  C   C81       1.0  0.9642  0.9773399999999999  0.11688  1.0000
  C   C82       1.0  0.8558199999999999  0.9162399999999998  0.12596  1.0000
  C   C83       1.0  0.81611  0.15139  0.2253  1.0000
  C   C84       1.0  0.19824  0.012759999999999997  0.07252  1.0000
  C   C85       1.0  0.30979  0.96936  0.0314  1.0000
  C   C86       1.0  0.4453500000000001  0.02283  0.02143  1.0000
  C   C87       1.0  0.08243999999999997  0.82668  0.26813  1.0000
  C   C88       1.0  0.2364  0.93099  0.27319  1.0000
  C   C89       1.0  0.017509999999999987  0.89072  0.29736  1.0000
  C   C90       1.0  0.09764  0.03562  0.33702  1.0000
  C   C91       1.0  0.04823  0.02158  0.42256  1.0000
  C   C92       1.0  0.13886  0.99757  0.48152  1.0000
  C   C93       1.0  0.90892  0.02389  0.4414  1.0000
  C   C94       1.0  0.18239000000000002  0.74495  0.07417  1.0000
  C   C95       1.0  0.3912  0.74158  0.02786  1.0000
  C   C96       1.0  0.30374  0.71014  0.96857  1.0000
  C   C97       1.0  0.0446  0.67403  0.96352  1.0000
  C   C98       1.0  0.02281  0.58396  0.98314  1.0000
  C   C99       1.0  0.04499  0.5543  0.061040000000000004  1.0000
  C   C100      1.0  0.97767  0.52875  0.92245  1.0000
  N   N1        1.0  0.81427  0.26251  0.40618  1.0000
  N   N2        1.0  0.67145  0.21286  0.50127  1.0000
  N   N3        1.0  0.71934  0.35244  0.24677000000000002  1.0000
  N   N4        1.0  0.61605  0.4564  0.20007  1.0000
  N   N5        1.0  0.68573  0.23749  0.90618  1.0000
  N   N6        1.0  0.8285500000000001  0.28713  0.00127  1.0000
  N   N7        1.0  0.7806499999999998  0.14755999999999994  0.74677  1.0000
  N   N8        1.0  0.88394  0.0436  0.70007  1.0000
  N   N9        1.0  0.18573000000000003  0.73748  0.59382  1.0000
  N   N10       1.0  0.32855  0.78713  0.49872999999999995  1.0000
  N   N11       1.0  0.28066  0.64755  0.75322  1.0000
  N   N12       1.0  0.38394999999999996  0.5435899999999998  0.79993  1.0000
  N   N13       1.0  0.31426  0.76251  0.09382  1.0000
  N   N14       1.0  0.17144999999999996  0.71286  0.9987300000000001  1.0000
  N   N15       1.0  0.21933  0.85245  0.25322  1.0000
  N   N16       1.0  0.11605  0.9564  0.29993  1.0000
  O   O1        1.0  0.1318  0.2968  0.35455  1.0000
  O   O2        1.0  0.013360000000000009  0.38488  0.28566  1.0000
  O   O3        1.0  0.2079  0.66632  0.23829  1.0000
  O   O4        1.0  0.42352  0.70394  0.27828  1.0000
  O   O5        1.0  0.57861  0.45440999999999987  0.42099  1.0000
  O   O6        1.0  0.3682  0.20319  0.85455  1.0000
  O   O7        1.0  0.48663  0.11512  0.78566  1.0000
  O   O8        1.0  0.29209  0.83367  0.7383  1.0000
  O   O9        1.0  0.07646  0.79607  0.77827  1.0000
  O   O10       1.0  0.92139  0.04559  0.92099  1.0000
  O   O11       1.0  0.8682000000000001  0.7032  0.64544  1.0000
  O   O12       1.0  0.98664  0.61512  0.71433  1.0000
  O   O13       1.0  0.79207  0.3336599999999999  0.76167  1.0000
  O   O14       1.0  0.57641  0.2961  0.72174  1.0000
  O   O15       1.0  0.4213799999999999  0.54561  0.57902  1.0000
  O   O16       1.0  0.6317999999999999  0.7968  0.14544  1.0000
  O   O17       1.0  0.51337  0.8848699999999998  0.21434  1.0000
  O   O18       1.0  0.70792  0.16633  0.26169  1.0000
  O   O19       1.0  0.92357  0.20391  0.22174  1.0000
  O   O20       1.0  0.07861  0.95439  0.07901  1.0000
