data_image0
_chemical_formula_structural       Cd4H104C104N16O20
_chemical_formula_sum              "Cd4 H104 C104 N16 O20"
_cell_length_a       9.55278
_cell_length_b       11.626150000000003
_cell_length_c       27.52599
_cell_angle_alpha    90.0
_cell_angle_beta     90.0
_cell_angle_gamma    114.17375

_space_group_name_H-M_alt    "P 1"
_space_group_IT_number       1

loop_
  _space_group_symop_operation_xyz
  'x, y, z'

loop_
  _atom_site_type_symbol
  _atom_site_label
  _atom_site_symmetry_multiplicity
  _atom_site_fract_x
  _atom_site_fract_y
  _atom_site_fract_z
  _atom_site_occupancy
  Cd  Cd1       1.0  0.63942  0.9994900000000001  0.4999899999999999  1.0000
  Cd  Cd2       1.0  0.36058  0.00051  0.9999899999999999  1.0000
  Cd  Cd3       1.0  0.74572  0.49306  0.24952999999999995  1.0000
  Cd  Cd4       1.0  0.25429  0.50694  0.7495299999999999  1.0000
  H   H1        1.0  0.7253199999999999  0.60729  0.51307  1.0000
  H   H2        1.0  0.89802  0.49526  0.49952999999999986  1.0000
  H   H3        1.0  0.13962  0.76324  0.38849  1.0000
  H   H4        1.0  0.96656  0.8741300000000001  0.40224  1.0000
  H   H5        1.0  0.42425  0.66499  0.45242999999999994  1.0000
  H   H6        1.0  0.61047  0.66412  0.38842  1.0000
  H   H7        1.0  0.23922000000000002  0.51257  0.2859  1.0000
  H   H8        1.0  0.05494999999999999  0.51505  0.34876  1.0000
  H   H9        1.0  0.47902  0.22625  0.26079  1.0000
  H   H10       1.0  0.31206  0.24217  0.24064999999999995  1.0000
  H   H11       1.0  0.33848  0.10265999999999999  0.22600999999999993  1.0000
  H   H12       1.0  0.763  0.46918  0.12539  1.0000
  H   H13       1.0  0.50726  0.3177  0.06946999999999999  1.0000
  H   H14       1.0  0.26685  0.12749  0.08914  1.0000
  H   H15       1.0  0.23055000000000003  0.07196  0.1493  1.0000
  H   H16       1.0  0.16254000000000002  0.25771  0.17012  1.0000
  H   H17       1.0  0.19518  0.3057  0.10922999999999997  1.0000
  H   H18       1.0  0.98425  0.10192  0.0824  1.0000
  H   H19       1.0  0.95105  0.04956  0.143  1.0000
  H   H20       1.0  0.91876  0.28663  0.10532999999999997  1.0000
  H   H21       1.0  0.8775299999999999  0.22750000000000004  0.1648  1.0000
  H   H22       1.0  0.63135  0.01312  0.17764999999999995  1.0000
  H   H23       1.0  0.37703  0.89526  0.11753  1.0000
  H   H24       1.0  0.69086  0.16209  0.99146  1.0000
  H   H25       1.0  0.76571  0.29383  0.031249999999999993  1.0000
  H   H26       1.0  0.8679800000000001  0.19832  0.02139  1.0000
  H   H27       1.0  0.27468  0.39271  0.013079999999999996  1.0000
  H   H28       1.0  0.10197999999999997  0.50475  0.9995299999999999  1.0000
  H   H29       1.0  0.86039  0.23677  0.88849  1.0000
  H   H30       1.0  0.03344  0.12587  0.90224  1.0000
  H   H31       1.0  0.57575  0.33501  0.95243  1.0000
  H   H32       1.0  0.38953  0.33588  0.88842  1.0000
  H   H33       1.0  0.76078  0.48743000000000003  0.7859  1.0000
  H   H34       1.0  0.9450599999999999  0.48496  0.8487599999999998  1.0000
  H   H35       1.0  0.52099  0.77376  0.76079  1.0000
  H   H36       1.0  0.68795  0.75784  0.7406499999999998  1.0000
  H   H37       1.0  0.66152  0.89734  0.72601  1.0000
  H   H38       1.0  0.23700000000000002  0.53082  0.62539  1.0000
  H   H39       1.0  0.49274000000000007  0.6823  0.5694699999999999  1.0000
  H   H40       1.0  0.73315  0.87251  0.5891299999999999  1.0000
  H   H41       1.0  0.76946  0.92804  0.6493  1.0000
  H   H42       1.0  0.8374599999999999  0.74229  0.6701199999999999  1.0000
  H   H43       1.0  0.8048300000000002  0.6943  0.6092299999999998  1.0000
  H   H44       1.0  0.015749999999999972  0.89808  0.5824  1.0000
  H   H45       1.0  0.048960000000000045  0.9504400000000001  0.64299  1.0000
  H   H46       1.0  0.08124999999999999  0.71337  0.60533  1.0000
  H   H47       1.0  0.12247999999999994  0.7724999999999999  0.6648  1.0000
  H   H48       1.0  0.36866  0.98688  0.67764  1.0000
  H   H49       1.0  0.62298  0.10474000000000001  0.6175299999999999  1.0000
  H   H50       1.0  0.30915  0.83791  0.4914599999999999  1.0000
  H   H51       1.0  0.23428999999999994  0.70617  0.5312499999999999  1.0000
  H   H52       1.0  0.13202000000000005  0.8016800000000001  0.52139  1.0000
  H   H53       1.0  0.8848200000000002  0.60982  0.9870399999999998  1.0000
  H   H54       1.0  0.60058  0.49649  0.00043  1.0000
  H   H55       1.0  0.6244100000000001  0.76363  0.11176999999999997  1.0000
  H   H56       1.0  0.90784  0.8754600000000001  0.09798  1.0000
  H   H57       1.0  0.24228  0.66463  0.04699  1.0000
  H   H58       1.0  0.05308000000000001  0.66335  0.11032  1.0000
  H   H59       1.0  0.27082  0.51222  0.21387  1.0000
  H   H60       1.0  0.45940000000000003  0.51464  0.15162  1.0000
  H   H61       1.0  0.74939  0.22896000000000002  0.23886  1.0000
  H   H62       1.0  0.93187  0.24453000000000003  0.25928  1.0000
  H   H63       1.0  0.76606  0.10481  0.27345  1.0000
  H   H64       1.0  0.70611  0.4714499999999999  0.37401  1.0000
  H   H65       1.0  0.8095  0.31963  0.43021999999999994  1.0000
  H   H66       1.0  0.86025  0.12886  0.41074  1.0000
  H   H67       1.0  0.8414099999999999  0.07343  0.3505199999999999  1.0000
  H   H68       1.0  0.09508999999999997  0.25869  0.32984999999999987  1.0000
  H   H69       1.0  0.11046  0.30656  0.3907599999999999  1.0000
  H   H70       1.0  0.11694  0.10213000000000001  0.4174599999999999  1.0000
  H   H71       1.0  0.09808  0.05016  0.35679999999999995  1.0000
  H   H72       1.0  0.36661  0.28719  0.39467  1.0000
  H   H73       1.0  0.34938  0.22811999999999996  0.33519  1.0000
  H   H74       1.0  0.38228  0.01396  0.3224399999999999  1.0000
  H   H75       1.0  0.51908  0.89618  0.38263  1.0000
  H   H76       1.0  0.47047  0.16284  0.50862  1.0000
  H   H77       1.0  0.52742  0.29473  0.46891  1.0000
  H   H78       1.0  0.32984  0.19940000000000002  0.47859  1.0000
  H   H79       1.0  0.11518999999999999  0.39017999999999997  0.48703999999999986  1.0000
  H   H80       1.0  0.39942  0.50352  0.50043  1.0000
  H   H81       1.0  0.3755899999999999  0.23637  0.61177  1.0000
  H   H82       1.0  0.09217  0.12454  0.5979799999999998  1.0000
  H   H83       1.0  0.7577300000000001  0.33537  0.54698  1.0000
  H   H84       1.0  0.94693  0.33665  0.61031  1.0000
  H   H85       1.0  0.7291900000000001  0.48777999999999994  0.71386  1.0000
  H   H86       1.0  0.54061  0.48537  0.6516199999999999  1.0000
  H   H87       1.0  0.25062  0.77104  0.73886  1.0000
  H   H88       1.0  0.06813  0.75548  0.75927  1.0000
  H   H89       1.0  0.23394  0.8952  0.77345  1.0000
  H   H90       1.0  0.29389000000000004  0.52856  0.87401  1.0000
  H   H91       1.0  0.19051000000000004  0.68038  0.93021  1.0000
  H   H92       1.0  0.13975999999999997  0.87114  0.91073  1.0000
  H   H93       1.0  0.15860000000000007  0.92657  0.85052  1.0000
  H   H94       1.0  0.90491  0.74131  0.82984  1.0000
  H   H95       1.0  0.88955  0.69345  0.89075  1.0000
  H   H96       1.0  0.8830600000000001  0.89787  0.9174499999999998  1.0000
  H   H97       1.0  0.90193  0.9498500000000001  0.8567999999999998  1.0000
  H   H98       1.0  0.6334  0.71281  0.8946699999999997  1.0000
  H   H99       1.0  0.65063  0.77188  0.83519  1.0000
  H   H100      1.0  0.6177299999999999  0.9860400000000001  0.82244  1.0000
  H   H101      1.0  0.48092000000000007  0.10382  0.88263  1.0000
  H   H102      1.0  0.52953  0.83716  0.00863  1.0000
  H   H103      1.0  0.47258000000000006  0.70528  0.9689099999999998  1.0000
  H   H104      1.0  0.6701600000000001  0.8006000000000001  0.97859  1.0000
  C   C1        1.0  0.74555  0.82369  0.46937  1.0000
  C   C2        1.0  0.8367799999999999  0.7488  0.45869  1.0000
  C   C3        1.0  0.81534  0.64046  0.4857799999999999  1.0000
  C   C4        1.0  0.90977  0.57747  0.47821999999999987  1.0000
  C   C5        1.0  0.027369999999999974  0.62367  0.4436599999999999  1.0000
  C   C6        1.0  0.04759000000000002  0.72871  0.41509999999999997  1.0000
  C   C7        1.0  0.95178  0.79046  0.4229999999999999  1.0000
  C   C8        1.0  0.22935999999999995  0.58472  0.40443  1.0000
  C   C9        1.0  0.38512  0.63084  0.4159299999999999  1.0000
  C   C10       1.0  0.48876000000000003  0.63083  0.3802  1.0000
  C   C11       1.0  0.43658  0.58455  0.3335199999999999  1.0000
  C   C12       1.0  0.28071  0.54624  0.32217  1.0000
  C   C13       1.0  0.17626000000000006  0.54712  0.3572999999999999  1.0000
  C   C14       1.0  0.54348  0.56513  0.29792999999999986  1.0000
  C   C15       1.0  0.3973400000000001  0.20529000000000003  0.23061999999999996  1.0000
  C   C16       1.0  0.48151  0.26766  0.18592  1.0000
  C   C17       1.0  0.65562  0.39349999999999996  0.13588999999999998  1.0000
  C   C18       1.0  0.53152  0.32123  0.10801  1.0000
  C   C19       1.0  0.2656  0.15702  0.1268  1.0000
  C   C20       1.0  0.15581999999999996  0.22213  0.13279  1.0000
  C   C21       1.0  0.99047  0.13458  0.12016  1.0000
  C   C22       1.0  0.88109  0.19985  0.1269  1.0000
  C   C23       1.0  0.61219  0.027809999999999998  0.13986999999999997  1.0000
  C   C24       1.0  0.48801  0.9705  0.10991999999999998  1.0000
  C   C25       1.0  0.66747  0.11346  0.06611  1.0000
  C   C26       1.0  0.75279  0.19634999999999997  0.025619999999999993  1.0000
  C   C27       1.0  0.25445  0.17631  0.96937  1.0000
  C   C28       1.0  0.16322  0.2512  0.9586899999999999  1.0000
  C   C29       1.0  0.18466  0.35954  0.9857799999999998  1.0000
  C   C30       1.0  0.09023000000000002  0.42253  0.97822  1.0000
  C   C31       1.0  0.9726400000000001  0.37633  0.94366  1.0000
  C   C32       1.0  0.9524200000000002  0.27129  0.9150999999999998  1.0000
  C   C33       1.0  0.04822000000000002  0.20955000000000001  0.923  1.0000
  C   C34       1.0  0.77064  0.41528  0.9044299999999998  1.0000
  C   C35       1.0  0.61488  0.36917  0.9159299999999998  1.0000
  C   C36       1.0  0.51124  0.36917  0.8801999999999999  1.0000
  C   C37       1.0  0.56343  0.41545  0.83352  1.0000
  C   C38       1.0  0.7193  0.45377000000000006  0.8221699999999997  1.0000
  C   C39       1.0  0.8237500000000002  0.45288  0.8573  1.0000
  C   C40       1.0  0.4565200000000001  0.43487000000000003  0.79793  1.0000
  C   C41       1.0  0.60266  0.7947100000000001  0.73061  1.0000
  C   C42       1.0  0.5185  0.73234  0.6859199999999998  1.0000
  C   C43       1.0  0.34438  0.60651  0.63589  1.0000
  C   C44       1.0  0.4684900000000001  0.67877  0.6080099999999998  1.0000
  C   C45       1.0  0.7344  0.84298  0.6268  1.0000
  C   C46       1.0  0.84419  0.77787  0.63279  1.0000
  C   C47       1.0  0.00952999999999996  0.86542  0.6201599999999999  1.0000
  C   C48       1.0  0.11890999999999997  0.80015  0.6269  1.0000
  C   C49       1.0  0.38781  0.97219  0.63987  1.0000
  C   C50       1.0  0.5119900000000001  0.0295  0.60992  1.0000
  C   C51       1.0  0.33254  0.88654  0.5661099999999999  1.0000
  C   C52       1.0  0.24721999999999994  0.80365  0.52562  1.0000
  C   C53       1.0  0.07927000000000008  0.8252400000000001  0.03052  1.0000
  C   C54       1.0  0.9135  0.75044  0.04143  1.0000
  C   C55       1.0  0.8271500000000002  0.64215  0.01436  1.0000
  C   C56       1.0  0.67001  0.57864  0.0219  1.0000
  C   C57       1.0  0.59815  0.62441  0.056539999999999986  1.0000
  C   C58       1.0  0.6824300000000001  0.72955  0.08511999999999997  1.0000
  C   C59       1.0  0.83977  0.79178  0.07716  1.0000
  C   C60       1.0  0.35629  0.58475  0.09551  1.0000
  C   C61       1.0  0.24649  0.63057  0.08355  1.0000
  C   C62       1.0  0.14177  0.63047  0.11889999999999998  1.0000
  C   C63       1.0  0.14681  0.58454  0.16572  1.0000
  C   C64       1.0  0.26417  0.54616  0.17753  1.0000
  C   C65       1.0  0.37045  0.54692  0.14273  1.0000
  C   C66       1.0  0.02001  0.56572  0.20102999999999993  1.0000
  C   C67       1.0  0.80962  0.20751  0.26908  1.0000
  C   C68       1.0  0.78685  0.26949  0.31377  1.0000
  C   C69       1.0  0.73798  0.39562  0.36358999999999997  1.0000
  C   C70       1.0  0.7893699999999999  0.32315  0.39164  1.0000
  C   C71       1.0  0.8913000000000001  0.15841  0.37307  1.0000
  C   C72       1.0  0.06605  0.22304  0.36715999999999993  1.0000
  C   C73       1.0  0.14356  0.13503  0.37973  1.0000
  C   C74       1.0  0.31809  0.2004  0.37308  1.0000
  C   C75       1.0  0.4159  0.028620000000000003  0.36021999999999993  1.0000
  C   C76       1.0  0.48298  0.97135  0.3902  1.0000
  C   C77       1.0  0.44589  0.11435999999999999  0.4339699999999999  1.0000
  C   C78       1.0  0.44302  0.19726000000000002  0.47445  1.0000
  C   C79       1.0  0.92073  0.17476  0.53052  1.0000
  C   C80       1.0  0.0865  0.24957  0.5414299999999999  1.0000
  C   C81       1.0  0.17285  0.35786  0.51436  1.0000
  C   C82       1.0  0.32999  0.42136  0.5219  1.0000
  C   C83       1.0  0.40185000000000004  0.37559  0.55654  1.0000
  C   C84       1.0  0.31758000000000003  0.27045  0.58512  1.0000
  C   C85       1.0  0.16023  0.20822  0.57716  1.0000
  C   C86       1.0  0.64372  0.41525  0.59551  1.0000
  C   C87       1.0  0.75351  0.36944  0.58355  1.0000
  C   C88       1.0  0.8582300000000002  0.36953  0.6189  1.0000
  C   C89       1.0  0.85319  0.41545999999999994  0.6657099999999998  1.0000
  C   C90       1.0  0.73584  0.45384  0.67753  1.0000
  C   C91       1.0  0.62956  0.45309  0.64273  1.0000
  C   C92       1.0  0.97999  0.43428000000000005  0.70103  1.0000
  C   C93       1.0  0.19038  0.79249  0.76908  1.0000
  C   C94       1.0  0.21315999999999996  0.73051  0.8137699999999998  1.0000
  C   C95       1.0  0.26203  0.60438  0.86359  1.0000
  C   C96       1.0  0.21063999999999994  0.67685  0.89163  1.0000
  C   C97       1.0  0.10871000000000001  0.8416  0.87307  1.0000
  C   C98       1.0  0.9339600000000001  0.77696  0.86716  1.0000
  C   C99       1.0  0.85644  0.8649699999999999  0.8797299999999999  1.0000
  C   C100      1.0  0.6819200000000001  0.7996  0.87308  1.0000
  C   C101      1.0  0.5840999999999998  0.9713799999999999  0.8602199999999998  1.0000
  C   C102      1.0  0.51703  0.02865  0.8902  1.0000
  C   C103      1.0  0.5541100000000001  0.8856400000000001  0.93397  1.0000
  C   C104      1.0  0.5569800000000001  0.8027500000000001  0.9744499999999998  1.0000
  N   N1        1.0  0.62375  0.35903  0.18431  1.0000
  N   N2        1.0  0.42267000000000005  0.24161  0.13999  1.0000
  N   N3        1.0  0.72435  0.11879000000000002  0.11191  1.0000
  N   N4        1.0  0.52393  0.02437  0.06414999999999998  1.0000
  N   N5        1.0  0.37625  0.64097  0.68431  1.0000
  N   N6        1.0  0.57733  0.75839  0.63999  1.0000
  N   N7        1.0  0.27565  0.88121  0.61191  1.0000
  N   N8        1.0  0.47607  0.97563  0.56415  1.0000
  N   N9        1.0  0.73599  0.36107  0.31522  1.0000
  N   N10       1.0  0.81914  0.24342000000000003  0.3597799999999999  1.0000
  N   N11       1.0  0.39428  0.11957  0.3881599999999999  1.0000
  N   N12       1.0  0.50064  0.02526  0.4359699999999999  1.0000
  N   N13       1.0  0.2640100000000001  0.63893  0.8152199999999997  1.0000
  N   N14       1.0  0.18087000000000003  0.7565800000000001  0.85978  1.0000
  N   N15       1.0  0.60573  0.88043  0.88816  1.0000
  N   N16       1.0  0.49937000000000004  0.9747400000000002  0.93596  1.0000
  O   O1        1.0  0.64292  0.7869499999999999  0.50273  1.0000
  O   O2        1.0  0.77736  0.9256499999999999  0.44540999999999986  1.0000
  O   O3        1.0  0.12670000000000006  0.56489  0.44284  1.0000
  O   O4        1.0  0.68796  0.61659  0.30689  1.0000
  O   O5        1.0  0.48615  0.49183  0.26196  1.0000
  O   O6        1.0  0.35709  0.21305  0.00274  1.0000
  O   O7        1.0  0.22265000000000001  0.07435  0.94541  1.0000
  O   O8        1.0  0.8733000000000001  0.43511000000000005  0.9428399999999998  1.0000
  O   O9        1.0  0.31205  0.38341000000000003  0.80689  1.0000
  O   O10       1.0  0.51385  0.50817  0.76196  1.0000
  O   O11       1.0  0.14572000000000002  0.78802  0.99743  1.0000
  O   O12       1.0  0.1487100000000001  0.92792  0.054069999999999986  1.0000
  O   O13       1.0  0.44015  0.56544  0.05726999999999999  1.0000
  O   O14       1.0  0.9235000000000001  0.61292  0.19068999999999994  1.0000
  O   O15       1.0  0.00709  0.49697  0.23825999999999994  1.0000
  O   O16       1.0  0.8542900000000001  0.21198  0.49743  1.0000
  O   O17       1.0  0.8513000000000001  0.07208  0.55407  1.0000
  O   O18       1.0  0.55985  0.43456  0.55726  1.0000
  O   O19       1.0  0.07649999999999997  0.3870799999999999  0.6906899999999998  1.0000
  O   O20       1.0  0.9929100000000001  0.50303  0.73826  1.0000
