data_image0
_chemical_formula_structural       Mn10H88C168O64
_chemical_formula_sum              "Mn10 H88 C168 O64"
_cell_length_a       12.89517
_cell_length_b       13.03696
_cell_length_c       25.10242
_cell_angle_alpha    95.00696
_cell_angle_beta     90.03333
_cell_angle_gamma    90.18972

_space_group_name_H-M_alt    "P 1"
_space_group_IT_number       1

loop_
  _space_group_symop_operation_xyz
  'x, y, z'

loop_
  _atom_site_type_symbol
  _atom_site_label
  _atom_site_symmetry_multiplicity
  _atom_site_fract_x
  _atom_site_fract_y
  _atom_site_fract_z
  _atom_site_occupancy
  Mn  Mn1       1.0  0.04076  0.76118  0.48852  1.0000
  Mn  Mn2       1.0  0.54232  0.73686  0.01249  1.0000
  Mn  Mn3       1.0  0.3169200000000001  0.4574499999999999  0.9878799999999999  1.0000
  Mn  Mn4       1.0  0.5003900000000001  0.9991199999999999  0.00076  1.0000
  Mn  Mn5       1.0  0.18279000000000006  0.9596699999999999  0.48839  1.0000
  Mn  Mn6       1.0  0.6844000000000001  0.53962  0.01312  1.0000
  Mn  Mn7       1.0  0.8175300000000002  0.03732  0.51228  1.0000
  Mn  Mn8       1.0  0.9567200000000001  0.23539999999999994  0.51276  1.0000
  Mn  Mn9       1.0  0.99886  0.49830999999999986  0.50022  1.0000
  Mn  Mn10      1.0  0.45922000000000013  0.26163999999999993  0.98739  1.0000
  H   H1        1.0  0.8641800000000002  0.041529999999999984  0.35202999999999995  1.0000
  H   H2        1.0  0.63233  0.6936999999999998  0.8874599999999999  1.0000
  H   H3        1.0  0.62959  0.3478199999999999  0.15269  1.0000
  H   H4        1.0  0.8310100000000001  0.37134999999999996  0.14248  1.0000
  H   H5        1.0  0.8598900000000003  0.16158999999999996  0.16809999999999997  1.0000
  H   H6        1.0  0.48428000000000004  0.17073999999999995  0.7301499999999999  1.0000
  H   H7        1.0  0.7435900000000002  0.5945  0.58496  1.0000
  H   H8        1.0  0.65143  0.72977  0.79153  1.0000
  H   H9        1.0  0.32336  0.01395  0.14721  1.0000
  H   H10       1.0  0.8034600000000002  0.8113599999999997  0.38929  1.0000
  H   H11       1.0  0.8305000000000002  0.8641799999999997  0.22953999999999997  1.0000
  H   H12       1.0  0.9427600000000002  0.8805999999999998  0.829  1.0000
  H   H13       1.0  0.13108000000000003  0.8019799999999998  0.61615  1.0000
  H   H14       1.0  0.35673  0.33879  0.33386  1.0000
  H   H15       1.0  0.13816000000000003  0.8362799999999999  0.83468  1.0000
  H   H16       1.0  0.25517  0.40445999999999993  0.41499  1.0000
  H   H17       1.0  0.84431  0.23158999999999996  0.28895  1.0000
  H   H18       1.0  0.72938  0.80062  0.14835  1.0000
  H   H19       1.0  0.016270000000000003  0.67272  0.23468  1.0000
  H   H20       1.0  0.6391400000000003  0.54295  0.85078  1.0000
  H   H21       1.0  0.50527  0.95404  0.87571  1.0000
  H   H22       1.0  0.16688  0.62586  0.85814  1.0000
  H   H23       1.0  0.51209  0.8266999999999998  0.26903  1.0000
  H   H24       1.0  0.6428200000000001  0.66115  0.66639  1.0000
  H   H25       1.0  0.4108300000000001  0.8135199999999999  0.3542  1.0000
  H   H26       1.0  0.27468000000000004  0.19516999999999995  0.84978  1.0000
  H   H27       1.0  0.41722000000000004  0.6506399999999998  0.57313  1.0000
  H   H28       1.0  0.048590000000000015  0.93759  0.21492  1.0000
  H   H29       1.0  0.9261200000000003  0.35291999999999996  0.22803999999999996  1.0000
  H   H30       1.0  0.6289900000000003  0.13769  0.27706  1.0000
  H   H31       1.0  0.3734  0.64908  0.8468899999999999  1.0000
  H   H32       1.0  0.17507000000000006  0.5138999999999999  0.64811  1.0000
  H   H33       1.0  0.7570800000000002  0.09663999999999998  0.08698999999999998  1.0000
  H   H34       1.0  0.20935000000000004  0.6702199999999998  0.19734  1.0000
  H   H35       1.0  0.67566  0.9841899999999997  0.85366  1.0000
  H   H36       1.0  0.30198  0.6864999999999999  0.11064999999999998  1.0000
  H   H37       1.0  0.08148  0.15124  0.07265  1.0000
  H   H38       1.0  0.24437000000000006  0.9022099999999998  0.9143799999999999  1.0000
  H   H39       1.0  0.3421000000000001  0.26519  0.21203  1.0000
  H   H40       1.0  0.49408000000000013  0.04472  0.12338  1.0000
  H   H41       1.0  0.71125  0.8264  0.30234  1.0000
  H   H42       1.0  0.76762  0.29884999999999995  0.6468199999999998  1.0000
  H   H43       1.0  0.15601  0.7653999999999997  0.71168  1.0000
  H   H44       1.0  0.12808  0.14748999999999998  0.34735  1.0000
  H   H45       1.0  0.23035000000000005  0.7002799999999998  0.35341  1.0000
  H   H46       1.0  0.12808  0.35723  0.22284  1.0000
  H   H47       1.0  0.7894600000000003  0.3269  0.80202  1.0000
  H   H48       1.0  0.86652  0.6368599999999999  0.7781599999999999  1.0000
  H   H49       1.0  0.36818  0.30304999999999993  0.11704  1.0000
  H   H50       1.0  0.16984  0.13054999999999994  0.7702499999999999  1.0000
  H   H51       1.0  0.8682100000000003  0.19498  0.38435  1.0000
  H   H52       1.0  0.0016599999999999998  0.5441499999999999  0.62454  1.0000
  H   H53       1.0  0.92064  0.84657  0.92594  1.0000
  H   H54       1.0  0.6696000000000002  0.8656299999999998  0.64367  1.0000
  H   H55       1.0  0.9839700000000002  0.32222  0.76683  1.0000
  H   H56       1.0  0.13608  0.9544499999999998  0.65051  1.0000
  H   H57       1.0  0.5890000000000001  0.18488999999999994  0.6459999999999999  1.0000
  H   H58       1.0  0.99727  0.4518599999999999  0.3772  1.0000
  H   H59       1.0  0.6683700000000001  0.3638899999999999  0.72823  1.0000
  H   H60       1.0  0.33064000000000004  0.6362799999999997  0.27229  1.0000
  H   H61       1.0  0.6223300000000003  0.65944  0.13103  1.0000
  H   H62       1.0  0.37992  0.33778999999999987  0.86905  1.0000
  H   H63       1.0  0.12335  0.8376799999999998  0.37  1.0000
  H   H64       1.0  0.19539000000000004  0.18651  0.61096  1.0000
  H   H65       1.0  0.82327  0.48353999999999997  0.3539399999999999  1.0000
  H   H66       1.0  0.33014000000000004  0.133  0.35674  1.0000
  H   H67       1.0  0.4533000000000001  0.43796999999999997  0.71395  1.0000
  H   H68       1.0  0.23530000000000006  0.9976499999999999  0.2347  1.0000
  H   H69       1.0  0.36877  0.8589199999999999  0.72262  1.0000
  H   H70       1.0  0.5811800000000001  0.34524999999999995  0.42665999999999993  1.0000
  H   H71       1.0  0.73585  0.49886  0.26605  1.0000
  H   H72       1.0  0.4453600000000001  0.6161899999999998  0.6694900000000001  1.0000
  H   H73       1.0  0.07057000000000001  0.64265  0.77296  1.0000
  H   H74       1.0  0.5486700000000001  0.55879  0.28599  1.0000
  H   H75       1.0  0.5727  0.8524099999999996  0.72896  1.0000
  H   H76       1.0  0.29009  0.17021999999999995  0.6969299999999999  1.0000
  H   H77       1.0  0.2655600000000001  0.4974299999999999  0.73493  1.0000
  H   H78       1.0  0.6984900000000003  0.31186999999999987  0.88926  1.0000
  H   H79       1.0  0.91366  0.6913899999999997  0.15027  1.0000
  H   H80       1.0  0.8779900000000003  0.15899  0.63093  1.0000
  H   H81       1.0  0.053760000000000016  0.11404  0.16844  1.0000
  H   H82       1.0  0.08844000000000003  0.3049200000000001  0.85072  1.0000
  H   H83       1.0  0.55474  0.38095999999999997  0.33036999999999994  1.0000
  H   H84       1.0  0.35949000000000003  0.4589199999999999  0.14955  1.0000
  H   H85       1.0  0.8676800000000002  0.8473499999999999  0.65409  1.0000
  H   H86       1.0  0.42473000000000005  0.14555  0.27066  1.0000
  H   H87       1.0  0.7613600000000003  0.9995099999999999  0.76548  1.0000
  H   H88       1.0  0.9480100000000002  0.058329999999999986  0.78624  1.0000
  C   C1        1.0  0.4761700000000001  0.9873499999999997  0.26624  1.0000
  C   C2        1.0  0.30252  0.96391  0.4093  1.0000
  C   C3        1.0  0.6701800000000002  0.5820799999999998  0.66147  1.0000
  C   C4        1.0  0.24493  0.11682  0.8462  1.0000
  C   C5        1.0  0.47220000000000006  0.8927399999999999  0.28893  1.0000
  C   C6        1.0  0.9260400000000001  0.4258299999999999  0.21023  1.0000
  C   C7        1.0  0.63377  0.02545  0.63967  1.0000
  C   C8        1.0  0.22736000000000003  0.95126  0.88265  1.0000
  C   C9        1.0  0.9364100000000002  0.58203  0.70301  1.0000
  C   C10       1.0  0.23383000000000007  0.55526  0.38809  1.0000
  C   C11       1.0  0.58271  0.11241000000000001  0.6642700000000001  1.0000
  C   C12       1.0  0.57312  0.6154299999999999  0.15586  1.0000
  C   C13       1.0  0.7882100000000001  0.7434699999999997  0.36213  1.0000
  C   C14       1.0  0.9670100000000003  0.7214099999999999  0.57912  1.0000
  C   C15       1.0  0.5208300000000001  0.010579999999999999  0.73328  1.0000
  C   C16       1.0  0.06025  0.4132799999999999  0.29846  1.0000
  C   C17       1.0  0.008920000000000004  0.055640000000000016  0.63436  1.0000
  C   C18       1.0  0.74001  0.3777599999999999  0.65155  1.0000
  C   C19       1.0  0.13409  0.24474  0.28129  1.0000
  C   C20       1.0  0.21221000000000007  0.7393499999999995  0.68124  1.0000
  C   C21       1.0  0.15032000000000004  0.9790099999999999  0.7978199999999999  1.0000
  C   C22       1.0  0.8208200000000002  0.6468599999999998  0.37654  1.0000
  C   C23       1.0  0.08151000000000001  0.37847  0.83364  1.0000
  C   C24       1.0  0.12613  0.56025  0.8380499999999999  1.0000
  C   C25       1.0  0.16850000000000007  0.9145  0.83861  1.0000
  C   C26       1.0  0.62336  0.3411199999999999  0.3429  1.0000
  C   C27       1.0  0.95258  0.9971499999999999  0.28081  1.0000
  C   C28       1.0  0.4164600000000001  0.88599  0.33589  1.0000
  C   C29       1.0  0.31453  0.58598  0.30362  1.0000
  C   C30       1.0  0.21830000000000002  0.8328699999999999  0.22071  1.0000
  C   C31       1.0  0.6981500000000002  0.30817  0.30504  1.0000
  C   C32       1.0  0.28613000000000005  0.23930999999999997  0.18136  1.0000
  C   C33       1.0  0.6379100000000001  0.32097  0.39608  1.0000
  C   C34       1.0  0.8385300000000002  0.40968  0.56912  1.0000
  C   C35       1.0  0.78017  0.16414999999999993  0.77936  1.0000
  C   C36       1.0  0.6108100000000001  0.15518  0.23663  1.0000
  C   C37       1.0  0.71945  0.6634700000000001  0.27962  1.0000
  C   C38       1.0  0.8624800000000002  0.8217099999999998  0.89607  1.0000
  C   C39       1.0  0.07034000000000001  0.9980499999999999  0.66706  1.0000
  C   C40       1.0  0.09456  0.8814299999999999  0.29021  1.0000
  C   C41       1.0  0.07483  0.88228  0.34519  1.0000
  C   C42       1.0  0.024310000000000005  0.38757  0.78741  1.0000
  C   C43       1.0  0.61787  0.14183  0.92649  1.0000
  C   C44       1.0  0.28745000000000004  0.7540599999999997  0.13809  1.0000
  C   C45       1.0  0.6354900000000002  0.25071999999999994  0.21873  1.0000
  C   C46       1.0  0.74853  0.06712999999999998  0.79307  1.0000
  C   C47       1.0  0.90481  0.11499999999999999  0.71073  1.0000
  C   C48       1.0  0.7739900000000001  0.046769999999999985  0.11837999999999999  1.0000
  C   C49       1.0  0.4652700000000001  0.5578499999999998  0.07559  1.0000
  C   C50       1.0  0.5252200000000001  0.10511999999999996  0.7105799999999999  1.0000
  C   C51       1.0  0.37641  0.6557  0.65708  1.0000
  C   C52       1.0  0.03746  0.39458  0.3508299999999999  1.0000
  C   C53       1.0  0.69813  0.035139999999999984  0.59149  1.0000
  C   C54       1.0  0.7876900000000001  0.25751  0.31918  1.0000
  C   C55       1.0  0.88378  0.64144  0.42608  1.0000
  C   C56       1.0  0.75789  0.8793699999999999  0.15314  1.0000
  C   C57       1.0  0.67978  0.14729  0.87657  1.0000
  C   C58       1.0  0.22658000000000003  0.22984999999999997  0.08909999999999998  1.0000
  C   C59       1.0  0.9607000000000002  0.60113  0.6508  1.0000
  C   C60       1.0  0.7995000000000002  0.5584  0.34234  1.0000
  C   C61       1.0  0.69893  0.7360099999999999  0.87449  1.0000
  C   C62       1.0  0.62843  0.9315699999999999  0.66281  1.0000
  C   C63       1.0  0.56279  0.19729999999999998  0.13218  1.0000
  C   C64       1.0  0.73763  0.24130999999999997  0.46775999999999995  1.0000
  C   C65       1.0  0.71266  0.24396999999999994  0.86204  1.0000
  C   C66       1.0  0.06334  0.29860999999999993  0.36811  1.0000
  C   C67       1.0  0.4080800000000001  0.3816499999999999  0.78937  1.0000
  C   C68       1.0  0.34689  0.48311999999999994  0.29823  1.0000
  C   C69       1.0  0.13803000000000004  0.17544  0.10345  1.0000
  C   C70       1.0  0.53555  0.44320999999999994  0.92464  1.0000
  C   C71       1.0  0.61176  0.27294  0.16644  1.0000
  C   C72       1.0  0.2724500000000001  0.72878  0.58922  1.0000
  C   C73       1.0  0.12248000000000003  0.15471999999999994  0.15648  1.0000
  C   C74       1.0  0.23596000000000006  0.74464  0.18618999999999997  1.0000
  C   C75       1.0  0.53555  0.10161  0.14958  1.0000
  C   C76       1.0  0.6596000000000002  0.91229  0.07067  1.0000
  C   C77       1.0  0.1773  0.35096  0.6245  1.0000
  C   C78       1.0  0.19478000000000004  0.45287  0.90823  1.0000
  C   C79       1.0  0.46402  0.8966299999999999  0.8497099999999999  1.0000
  C   C80       1.0  0.29951000000000005  0.93883  0.15858  1.0000
  C   C81       1.0  0.36096  0.6753099999999999  0.60389  1.0000
  C   C82       1.0  0.23923  0.25582999999999995  0.03234  1.0000
  C   C83       1.0  0.03369  0.9383899999999998  0.25753  1.0000
  C   C84       1.0  0.8725700000000001  0.4360499999999999  0.16297  1.0000
  C   C85       1.0  0.4241300000000001  0.07414999999999997  0.28985  1.0000
  C   C86       1.0  0.21083000000000002  0.25411999999999996  0.6383  1.0000
  C   C87       1.0  0.25873  0.7522299999999997  0.53226  1.0000
  C   C88       1.0  0.7499  0.5664299999999999  0.29354  1.0000
  C   C89       1.0  0.73458  0.94575  0.11372  1.0000
  C   C90       1.0  0.3877  0.84182  0.76302  1.0000
  C   C91       1.0  0.34325  0.08513999999999997  0.92935  1.0000
  C   C92       1.0  0.4500200000000001  0.50182  0.22045  1.0000
  C   C93       1.0  0.25066  0.43005000000000004  0.7074100000000001  1.0000
  C   C94       1.0  0.7979100000000002  0.8071399999999997  0.80576  1.0000
  C   C95       1.0  0.26335  0.24466999999999994  0.68612  1.0000
  C   C96       1.0  0.8852200000000002  0.65431  0.73778  1.0000
  C   C97       1.0  0.1315  0.46486999999999995  0.85982  1.0000
  C   C98       1.0  0.81485  0.9145  0.19818  1.0000
  C   C99       1.0  0.53116  0.22062  0.0777  1.0000
  C   C100      1.0  0.86884  0.5314  0.14121  1.0000
  C   C101      1.0  0.4889500000000001  0.55826  0.13385  1.0000
  C   C102      1.0  0.96426  0.05763999999999998  0.74378  1.0000
  C   C103      1.0  0.36612  0.97317  0.3607699999999999  1.0000
  C   C104      1.0  0.6996800000000001  0.05907999999999996  0.8420599999999999  1.0000
  C   C105      1.0  0.93497  0.69727  0.63353  1.0000
  C   C106      1.0  0.5736700000000001  0.92397  0.70996  1.0000
  C   C107      1.0  0.55892  0.08291999999999998  0.20188999999999996  1.0000
  C   C108      1.0  0.11006000000000003  0.34036  0.26339  1.0000
  C   C109      1.0  0.3899600000000001  0.7242299999999998  0.8331399999999999  1.0000
  C   C110      1.0  0.32886  0.4176699999999999  0.33866  1.0000
  C   C111      1.0  0.76536  0.74218  0.96909  1.0000
  C   C112      1.0  0.3836400000000001  0.8569999999999998  0.07445  1.0000
  C   C113      1.0  0.97882  0.51169  0.235  1.0000
  C   C114      1.0  0.11397000000000002  0.3569  0.57497  1.0000
  C   C115      1.0  0.73722  0.7521899999999999  0.31383  1.0000
  C   C116      1.0  0.30173  0.68827  0.6950599999999999  1.0000
  C   C117      1.0  0.7639000000000002  0.44374  0.61201  1.0000
  C   C118      1.0  0.37086  0.06691999999999997  0.33743999999999996  1.0000
  C   C119      1.0  0.28224  0.33283  0.72062  1.0000
  C   C120      1.0  0.76307  0.25275999999999993  0.81363  1.0000
  C   C121      1.0  0.6523500000000001  0.5167499999999999  0.7019699999999999  1.0000
  C   C122      1.0  0.19933000000000003  0.43875000000000003  0.65909  1.0000
  C   C123      1.0  0.51148  0.4414699999999998  0.8663699999999999  1.0000
  C   C124      1.0  0.6843100000000002  0.41377999999999987  0.6967099999999999  1.0000
  C   C125      1.0  0.9667800000000002  0.9412099999999998  0.42541  1.0000
  C   C126      1.0  0.9259400000000002  0.11432999999999999  0.6559600000000001  1.0000
  C   C127      1.0  0.42856  0.3824999999999999  0.8442799999999999  1.0000
  C   C128      1.0  0.25809  0.62145  0.34867999999999993  1.0000
  C   C129      1.0  0.57363  0.4989699999999999  0.8338799999999998  1.0000
  C   C130      1.0  0.5500500000000001  0.49783999999999995  0.77974  1.0000
  C   C131      1.0  0.8603800000000003  0.7495099999999999  0.71968  1.0000
  C   C132      1.0  0.72601  0.54507  0.6165  1.0000
  C   C133      1.0  0.18596000000000001  0.08100999999999997  0.8019  1.0000
  C   C134      1.0  0.80554  0.54297  0.09289  1.0000
  C   C135      1.0  0.70914  0.7563699999999998  0.82116  1.0000
  C   C136      1.0  0.26829  0.05174  0.88621  1.0000
  C   C137      1.0  0.8310800000000003  0.08284999999999997  0.16322  1.0000
  C   C138      1.0  0.8746000000000003  0.84098  0.8425799999999999  1.0000
  C   C139      1.0  0.24935000000000004  0.9302  0.20718  1.0000
  C   C140      1.0  0.80053  0.23650999999999994  0.37233  1.0000
  C   C141      1.0  0.04553  0.9986199999999998  0.72097  1.0000
  C   C142      1.0  0.4386800000000001  0.80048  0.86718  1.0000
  C   C143      1.0  0.36464  0.7459999999999999  0.78102  1.0000
  C   C144      1.0  0.3208400000000001  0.85095  0.12407  1.0000
  C   C145      1.0  0.7259700000000001  0.26706  0.41098  1.0000
  C   C146      1.0  0.01904  0.4838099999999999  0.76637  1.0000
  C   C147      1.0  0.97538  0.60794  0.21388  1.0000
  C   C148      1.0  0.9918300000000001  0.94055  0.36732  1.0000
  C   C149      1.0  0.47116000000000025  0.77722  0.9215599999999999  1.0000
  C   C150      1.0  0.5329  0.55902  0.2435  1.0000
  C   C151      1.0  0.84871  0.017059999999999992  0.20351  1.0000
  C   C152      1.0  0.7750400000000001  0.76771  0.91218  1.0000
  C   C153      1.0  0.9192300000000002  0.6176599999999998  0.16736999999999996  1.0000
  C   C154      1.0  0.19642000000000004  0.18776  0.19489999999999996  1.0000
  C   C155      1.0  0.5942100000000001  0.6154599999999998  0.21065  1.0000
  C   C156      1.0  0.11092  0.22257  0.33371  1.0000
  C   C157      1.0  0.4685300000000001  0.43893  0.7565499999999998  1.0000
  C   C158      1.0  0.43891000000000013  0.9149199999999997  0.79756  1.0000
  C   C159      1.0  0.9295000000000002  0.99795  0.33495  1.0000
  C   C160      1.0  0.07178000000000001  0.5698899999999999  0.79092  1.0000
  C   C161      1.0  0.03404  0.05463  0.57633  1.0000
  C   C162      1.0  0.4259000000000001  0.50161  0.16636999999999996  1.0000
  C   C163      1.0  0.15870000000000006  0.58861  0.43096  1.0000
  C   C164      1.0  0.8853400000000002  0.7723199999999998  0.66763  1.0000
  C   C165      1.0  0.03134  0.27617  0.42274  1.0000
  C   C166      1.0  0.30023  0.26071  0.12835  1.0000
  C   C167      1.0  0.27242000000000005  0.45419000000000004  0.38354000000000005  1.0000
  C   C168      1.0  0.19867000000000007  0.76019  0.62811  1.0000
  O   O1        1.0  0.40301  0.77173  0.04743  1.0000
  O   O2        1.0  0.03724  0.90975  0.45726  1.0000
  O   O3        1.0  0.68284  0.32803  0.25138  1.0000
  O   O4        1.0  0.6189400000000002  0.82311  0.07147  1.0000
  O   O5        1.0  0.4173800000000001  0.94514  0.06329  1.0000
  O   O6        1.0  0.46024  0.68728  0.93654  1.0000
  O   O7        1.0  0.23269000000000006  0.3655799999999999  0.91548  1.0000
  O   O8        1.0  0.13703000000000004  0.5249  0.46547  1.0000
  O   O9        1.0  0.9577500000000002  0.81156  0.56439  1.0000
  O   O10       1.0  0.67487  0.27252  0.50234  1.0000
  O   O11       1.0  0.77186  0.6311299999999999  0.0844  1.0000
  O   O12       1.0  0.68273  0.68306  0.97871  1.0000
  O   O13       1.0  0.4642500000000001  0.41053  0.9556999999999999  1.0000
  O   O14       1.0  0.12313000000000003  0.025129999999999982  0.56071  1.0000
  O   O15       1.0  0.18014  0.16726999999999997  0.24843  1.0000
  O   O16       1.0  0.8197900000000001  0.18129  0.47645  1.0000
  O   O17       1.0  0.8952700000000002  0.0607  0.25  1.0000
  O   O18       1.0  0.9846100000000002  0.34765  0.45273  1.0000
  O   O19       1.0  0.38543  0.17375999999999994  0.92846  1.0000
  O   O20       1.0  0.04209  0.18704999999999997  0.43859999999999993  1.0000
  O   O21       1.0  0.39196  0.43905  0.25147  1.0000
  O   O22       1.0  0.9635700000000003  0.48646  0.71951  1.0000
  O   O23       1.0  0.3761300000000001  0.5297399999999999  0.05882  1.0000
  O   O24       1.0  0.8795700000000002  0.32109  0.57117  1.0000
  O   O25       1.0  0.07991000000000001  0.4446199999999999  0.56381  1.0000
  O   O26       1.0  0.17616  0.22620999999999994  0.9976  1.0000
  O   O27       1.0  0.8775400000000001  0.9697899999999998  0.44122999999999996  1.0000
  O   O28       1.0  0.27322  0.04556999999999998  0.43846999999999997  1.0000
  O   O29       1.0  0.53793  0.58922  0.044829999999999995  1.0000
  O   O30       1.0  0.17813  0.81412  0.52371  1.0000
  O   O31       1.0  0.51762  0.84806  0.9523999999999999  1.0000
  O   O32       1.0  0.72436  0.95404  0.56098  1.0000
  O   O33       1.0  0.17402  0.81801  0.27017  1.0000
  O   O34       1.0  0.5448900000000001  0.30940999999999996  0.061799999999999994  1.0000
  O   O35       1.0  0.32246  0.31537  0.023769999999999996  1.0000
  O   O36       1.0  0.03208  0.50882  0.28249  1.0000
  O   O37       1.0  0.59727  0.22796999999999998  0.95254  1.0000
  O   O38       1.0  0.82512  0.17842  0.73006  1.0000
  O   O39       1.0  0.6240100000000002  0.47411999999999993  0.94108  1.0000
  O   O40       1.0  0.31845  0.7169499999999998  0.4971  1.0000
  O   O41       1.0  0.9632900000000002  0.08632999999999998  0.54474  1.0000
  O   O42       1.0  0.36502000000000007  0.020100000000000014  0.96316  1.0000
  O   O43       1.0  0.83045  0.77248  0.00275  1.0000
  O   O44       1.0  0.5294500000000001  0.9882699999999999  0.21866999999999998  1.0000
  O   O45       1.0  0.7823700000000002  0.46218999999999993  0.06104  1.0000
  O   O46       1.0  0.10068  0.93443  0.7523799999999999  1.0000
  O   O47       1.0  0.01121  0.65032  0.54779  1.0000
  O   O48       1.0  0.21367  0.5325  0.94158  1.0000
  O   O49       1.0  0.73013  0.12372999999999999  0.58148  1.0000
  O   O50       1.0  0.31742000000000004  0.66811  0.74866  1.0000
  O   O51       1.0  0.46590000000000004  0.010030000000000002  0.78042  1.0000
  O   O52       1.0  0.2746700000000001  0.87494  0.4211  1.0000
  O   O53       1.0  0.11606999999999999  0.6765199999999999  0.42874  1.0000
  O   O54       1.0  0.09495  0.27144  0.54779  1.0000
  O   O55       1.0  0.58639  0.05388  0.9388199999999999  1.0000
  O   O56       1.0  0.48219  0.15066  0.04746  1.0000
  O   O57       1.0  0.67587  0.67722  0.22989999999999997  1.0000
  O   O58       1.0  0.86144  0.4736299999999999  0.53492  1.0000
  O   O59       1.0  0.6361  0.97764  0.03725  1.0000
  O   O60       1.0  0.8099000000000001  0.8252299999999997  0.7516400000000001  1.0000
  O   O61       1.0  0.9161000000000001  0.5535299999999999  0.4376  1.0000
  O   O62       1.0  0.9044300000000002  0.7274199999999997  0.45253  1.0000
  O   O63       1.0  0.32813000000000003  0.31799999999999995  0.76975  1.0000
  O   O64       1.0  0.60767  0.5609299999999999  0.74873  1.0000
