data_image0
_chemical_formula_structural       Cu24H120C120I24N72
_chemical_formula_sum              "Cu24 H120 C120 I24 N72"
_cell_length_a       19.92405
_cell_length_b       19.92379
_cell_length_c       19.9241
_cell_angle_alpha    109.51202
_cell_angle_beta     109.51336
_cell_angle_gamma    109.51366999999999

_space_group_name_H-M_alt    "P 1"
_space_group_IT_number       1

loop_
  _space_group_symop_operation_xyz
  'x, y, z'

loop_
  _atom_site_type_symbol
  _atom_site_label
  _atom_site_symmetry_multiplicity
  _atom_site_fract_x
  _atom_site_fract_y
  _atom_site_fract_z
  _atom_site_occupancy
  Cu  Cu1       1.0  0.7535199999999996  0.6288899999999997  0.9575399999999997  1.0000
  Cu  Cu2       1.0  0.74711  0.7044899999999998  0.87577  1.0000
  Cu  Cu3       1.0  0.17128999999999997  0.7959199999999998  0.54294  1.0000
  Cu  Cu4       1.0  0.3287399999999999  0.8711499999999999  0.62454  1.0000
  Cu  Cu5       1.0  0.87576  0.24695  0.20441999999999994  1.0000
  Cu  Cu6       1.0  0.95746  0.25338  0.12879  1.0000
  Cu  Cu7       1.0  0.62428  0.8286499999999999  0.3711599999999999  1.0000
  Cu  Cu8       1.0  0.54289  0.6711899999999998  0.2960299999999999  1.0000
  Cu  Cu9       1.0  0.37111  0.12446  0.32868  1.0000
  Cu  Cu10      1.0  0.29591  0.04299999999999998  0.17123  1.0000
  Cu  Cu11      1.0  0.2045499999999999  0.3759299999999999  0.7471199999999998  1.0000
  Cu  Cu12      1.0  0.12882999999999983  0.4575199999999997  0.7534999999999997  1.0000
  Cu  Cu13      1.0  0.24682  0.87568  0.70436  1.0000
  Cu  Cu14      1.0  0.2534199999999999  0.9574899999999998  0.62886  1.0000
  Cu  Cu15      1.0  0.8286899999999997  0.6244299999999999  0.8711399999999998  1.0000
  Cu  Cu16      1.0  0.6712  0.54295  0.79591  1.0000
  Cu  Cu17      1.0  0.12456000000000003  0.37107  0.8287  1.0000
  Cu  Cu18      1.0  0.04295999999999995  0.29594  0.67128  1.0000
  Cu  Cu19      1.0  0.37581  0.20448  0.24707  1.0000
  Cu  Cu20      1.0  0.45747000000000004  0.12876  0.25335  1.0000
  Cu  Cu21      1.0  0.62894  0.75361  0.45758  1.0000
  Cu  Cu22      1.0  0.70449  0.74707  0.37586  1.0000
  Cu  Cu23      1.0  0.79603  0.17124  0.04291  1.0000
  Cu  Cu24      1.0  0.8712700000000001  0.32875  0.1244  1.0000
  H   H1        1.0  0.80304  0.78679  0.09136999999999998  1.0000
  H   H2        1.0  0.7707499999999999  0.6185599999999998  0.21929999999999994  1.0000
  H   H3        1.0  0.86474  0.88529  0.4197899999999999  1.0000
  H   H4        1.0  0.93355  0.9101999999999999  0.38082  1.0000
  H   H5        1.0  0.82888  0.88478  0.3245  1.0000
  H   H6        1.0  0.6972800000000001  0.7884900000000001  0.98393  1.0000
  H   H7        1.0  0.7293199999999999  0.9487099999999999  0.8479499999999998  1.0000
  H   H8        1.0  0.63551  0.05486  0.02054  1.0000
  H   H9        1.0  0.56656  0.9468199999999999  0.97628  1.0000
  H   H10       1.0  0.67125  0.9954099999999999  0.05581  1.0000
  H   H11       1.0  0.19578999999999994  0.71186  0.40938  1.0000
  H   H12       1.0  0.8990399999999998  0.55113  0.2802499999999999  1.0000
  H   H13       1.0  0.9656  0.445  0.08035  1.0000
  H   H14       1.0  0.02951999999999999  0.55305  0.11968999999999998  1.0000
  H   H15       1.0  0.0605  0.50469  0.17579  1.0000
  H   H16       1.0  0.3040599999999998  0.7127299999999996  0.5158699999999998  1.0000
  H   H17       1.0  0.6007199999999999  0.8814099999999997  0.6518899999999997  1.0000
  H   H18       1.0  0.53396  0.61459  0.47906  1.0000
  H   H19       1.0  0.47025999999999984  0.5899299999999998  0.5231999999999998  1.0000
  H   H20       1.0  0.4390399999999999  0.6148499999999999  0.44368999999999986  1.0000
  H   H21       1.0  0.98391  0.19724  0.28846  1.0000
  H   H22       1.0  0.84799  0.22934999999999994  0.44874999999999987  1.0000
  H   H23       1.0  0.02057999999999989  0.13550999999999985  0.5548799999999998  1.0000
  H   H24       1.0  0.9763199999999999  0.06658000000000001  0.44685  1.0000
  H   H25       1.0  0.05585999999999995  0.17126999999999998  0.49543999999999994  1.0000
  H   H26       1.0  0.09135999999999997  0.30298  0.2867899999999999  1.0000
  H   H27       1.0  0.21929  0.27078  0.11854999999999997  1.0000
  H   H28       1.0  0.41981  0.36474999999999996  0.38528  1.0000
  H   H29       1.0  0.38084  0.43355999999999995  0.41018  1.0000
  H   H30       1.0  0.32453  0.32888999999999996  0.3847699999999999  1.0000
  H   H31       1.0  0.51588  0.80407  0.21275  1.0000
  H   H32       1.0  0.65189  0.10072999999999999  0.3814  1.0000
  H   H33       1.0  0.47907  0.03398  0.11458  1.0000
  H   H34       1.0  0.52322  0.9702799999999999  0.08993  1.0000
  H   H35       1.0  0.44369  0.93905  0.11482999999999997  1.0000
  H   H36       1.0  0.40937999999999997  0.6958  0.21185  1.0000
  H   H37       1.0  0.28026000000000006  0.39906  0.05114  1.0000
  H   H38       1.0  0.08032999999999989  0.46558999999999984  0.9449799999999998  1.0000
  H   H39       1.0  0.11967  0.52951  0.05302  1.0000
  H   H40       1.0  0.17578  0.5605  0.00467  1.0000
  H   H41       1.0  0.21275  0.015889999999999994  0.30409  1.0000
  H   H42       1.0  0.38141  0.15188  0.60074  1.0000
  H   H43       1.0  0.11456  0.97905  0.53396  1.0000
  H   H44       1.0  0.08990999999999993  0.023189999999999933  0.4702599999999999  1.0000
  H   H45       1.0  0.11482999999999997  0.9436799999999999  0.43904  1.0000
  H   H46       1.0  0.21184  0.90938  0.19578  1.0000
  H   H47       1.0  0.051169999999999966  0.78025  0.89904  1.0000
  H   H48       1.0  0.9450000000000002  0.5803199999999998  0.96556  1.0000
  H   H49       1.0  0.05303999999999999  0.61966  0.02949  1.0000
  H   H50       1.0  0.004679999999999998  0.67576  0.06046999999999999  1.0000
  H   H51       1.0  0.28847  0.48391  0.69724  1.0000
  H   H52       1.0  0.44872  0.34796  0.72932  1.0000
  H   H53       1.0  0.55488  0.52056  0.6355  1.0000
  H   H54       1.0  0.44683999999999985  0.4762899999999997  0.5665599999999997  1.0000
  H   H55       1.0  0.49543  0.55584  0.6712499999999998  1.0000
  H   H56       1.0  0.28681999999999985  0.59137  0.8030199999999997  1.0000
  H   H57       1.0  0.11856999999999998  0.71929  0.77079  1.0000
  H   H58       1.0  0.3852999999999999  0.9198099999999998  0.8647399999999997  1.0000
  H   H59       1.0  0.41020999999999996  0.88083  0.93356  1.0000
  H   H60       1.0  0.3847899999999999  0.82452  0.82889  1.0000
  H   H61       1.0  0.1972399999999999  0.98391  0.7884599999999998  1.0000
  H   H62       1.0  0.22933999999999985  0.8479799999999997  0.9487199999999998  1.0000
  H   H63       1.0  0.13552  0.020569999999999995  0.05486  1.0000
  H   H64       1.0  0.06656999999999984  0.9763099999999999  0.94683  1.0000
  H   H65       1.0  0.17125999999999997  0.055849999999999934  0.9954099999999999  1.0000
  H   H66       1.0  0.303  0.09134  0.7868  1.0000
  H   H67       1.0  0.27079  0.21928999999999998  0.61858  1.0000
  H   H68       1.0  0.36476  0.41978  0.88532  1.0000
  H   H69       1.0  0.43356999999999984  0.38080999999999987  0.9102199999999998  1.0000
  H   H70       1.0  0.3288999999999999  0.32449000000000006  0.88481  1.0000
  H   H71       1.0  0.8040700000000001  0.51589  0.71271  1.0000
  H   H72       1.0  0.10071  0.65185  0.88139  1.0000
  H   H73       1.0  0.03397000000000003  0.47905  0.61458  1.0000
  H   H74       1.0  0.97027  0.5231899999999999  0.58992  1.0000
  H   H75       1.0  0.9390499999999999  0.44366999999999995  0.61483  1.0000
  H   H76       1.0  0.6958  0.40941  0.71188  1.0000
  H   H77       1.0  0.39905  0.28024  0.55114  1.0000
  H   H78       1.0  0.46559000000000006  0.08034  0.445  1.0000
  H   H79       1.0  0.52952  0.11968  0.55304  1.0000
  H   H80       1.0  0.56051  0.17579  0.50468  1.0000
  H   H81       1.0  0.01587999999999989  0.21273999999999987  0.8040699999999997  1.0000
  H   H82       1.0  0.15187999999999996  0.38140999999999997  0.10071999999999998  1.0000
  H   H83       1.0  0.9790699999999999  0.11457999999999999  0.03397  1.0000
  H   H84       1.0  0.023199999999999874  0.08991999999999986  0.9702699999999997  1.0000
  H   H85       1.0  0.9436799999999999  0.11481999999999988  0.9390399999999998  1.0000
  H   H86       1.0  0.9093899999999999  0.21184999999999984  0.6957999999999998  1.0000
  H   H87       1.0  0.78026  0.05114999999999996  0.3990599999999999  1.0000
  H   H88       1.0  0.5803299999999999  0.9450099999999999  0.46562  1.0000
  H   H89       1.0  0.61968  0.05305000000000005  0.52953  1.0000
  H   H90       1.0  0.6757799999999999  0.004689999999999892  0.5605199999999998  1.0000
  H   H91       1.0  0.48389999999999994  0.28846  0.1972  1.0000
  H   H92       1.0  0.348  0.44873999999999997  0.22935  1.0000
  H   H93       1.0  0.5206  0.55492  0.13552999999999996  1.0000
  H   H94       1.0  0.4763299999999999  0.44688  0.06659  1.0000
  H   H95       1.0  0.55587  0.49547  0.17128  1.0000
  H   H96       1.0  0.59134  0.2867799999999999  0.30301  1.0000
  H   H97       1.0  0.7193  0.11856999999999998  0.27076  1.0000
  H   H98       1.0  0.9198199999999999  0.38528999999999985  0.3647399999999999  1.0000
  H   H99       1.0  0.88085  0.4102  0.43356  1.0000
  H   H100      1.0  0.8245299999999999  0.3848  0.32888  1.0000
  H   H101      1.0  0.78681  0.80301  0.59138  1.0000
  H   H102      1.0  0.6185799999999999  0.7707799999999999  0.7193  1.0000
  H   H103      1.0  0.8853  0.8647499999999999  0.9198099999999998  1.0000
  H   H104      1.0  0.91022  0.93357  0.88084  1.0000
  H   H105      1.0  0.8848  0.82889  0.82453  1.0000
  H   H106      1.0  0.7884699999999999  0.69726  0.48393  1.0000
  H   H107      1.0  0.9487  0.7293  0.34796  1.0000
  H   H108      1.0  0.054859999999999985  0.63549  0.52058  1.0000
  H   H109      1.0  0.94682  0.56654  0.4763099999999999  1.0000
  H   H110      1.0  0.9954200000000001  0.67123  0.55585  1.0000
  H   H111      1.0  0.71188  0.19578999999999996  0.90935  1.0000
  H   H112      1.0  0.55113  0.89906  0.78025  1.0000
  H   H113      1.0  0.44497  0.9655799999999999  0.58032  1.0000
  H   H114      1.0  0.553  0.029510000000000022  0.61965  1.0000
  H   H115      1.0  0.50465  0.06048999999999996  0.67575  1.0000
  H   H116      1.0  0.71278  0.30406999999999995  0.01588  1.0000
  H   H117      1.0  0.88141  0.6007299999999999  0.15191  1.0000
  H   H118      1.0  0.61458  0.53397  0.97906  1.0000
  H   H119      1.0  0.58992  0.47025999999999996  0.02321  1.0000
  H   H120      1.0  0.6148199999999999  0.43904  0.94368  1.0000
  C   C1        1.0  0.7968600000000001  0.74994  0.12112  1.0000
  C   C2        1.0  0.8174499999999999  0.74383  0.23836999999999994  1.0000
  C   C3        1.0  0.7812799999999999  0.6573799999999999  0.19224999999999995  1.0000
  C   C4        1.0  0.7556499999999999  0.62268  0.10932  1.0000
  C   C5        1.0  0.8698  0.8720599999999998  0.36429  1.0000
  C   C6        1.0  0.70343  0.82442  0.9532599999999998  1.0000
  C   C7        1.0  0.6826799999999998  0.9209199999999997  0.9263899999999998  1.0000
  C   C8        1.0  0.7188399999999998  0.9111099999999999  0.8762299999999997  1.0000
  C   C9        1.0  0.7445199999999998  0.85393  0.8672899999999998  1.0000
  C   C10       1.0  0.6303299999999998  0.99423  0.0021  1.0000
  C   C11       1.0  0.12905999999999998  0.6758399999999999  0.37937  1.0000
  C   C12       1.0  0.005529999999999882  0.5790599999999998  0.2617599999999999  1.0000
  C   C13       1.0  0.96503  0.5888600000000002  0.30758  1.0000
  C   C14       1.0  0.01330000000000002  0.6462  0.39057  1.0000
  C   C15       1.0  0.007860000000000027  0.50567  0.13596  1.0000
  C   C16       1.0  0.37075999999999987  0.7497099999999997  0.54651  1.0000
  C   C17       1.0  0.49426  0.75605  0.57323  1.0000
  C   C18       1.0  0.5347499999999998  0.8425099999999999  0.6235199999999997  1.0000
  C   C19       1.0  0.48651  0.8770799999999999  0.6326  1.0000
  C   C20       1.0  0.49175999999999986  0.6278499999999999  0.49742999999999993  1.0000
  C   C21       1.0  0.95324  0.20339  0.3244  1.0000
  C   C22       1.0  0.9263999999999999  0.18266999999999997  0.42092  1.0000
  C   C23       1.0  0.8762500000000001  0.21883999999999992  0.4111299999999999  1.0000
  C   C24       1.0  0.8672799999999999  0.2445  0.35393  1.0000
  C   C25       1.0  0.002149999999999984  0.13034999999999997  0.4942599999999999  1.0000
  C   C26       1.0  0.12109999999999999  0.2968  0.24992  1.0000
  C   C27       1.0  0.23837  0.31744  0.24381999999999995  1.0000
  C   C28       1.0  0.19226  0.28129  0.15738  1.0000
  C   C29       1.0  0.10930999999999999  0.25564  0.12267999999999997  1.0000
  C   C30       1.0  0.36430999999999997  0.36981  0.37204  1.0000
  C   C31       1.0  0.54651  0.87077  0.24973  1.0000
  C   C32       1.0  0.57322  0.9942599999999999  0.25606  1.0000
  C   C33       1.0  0.62352  0.034749999999999996  0.34252  1.0000
  C   C34       1.0  0.63261  0.98651  0.37709  1.0000
  C   C35       1.0  0.49743  0.9917799999999999  0.12785  1.0000
  C   C36       1.0  0.3793599999999999  0.6290699999999999  0.17585  1.0000
  C   C37       1.0  0.26175  0.50553  0.07906  1.0000
  C   C38       1.0  0.30757  0.46504  0.08885999999999997  1.0000
  C   C39       1.0  0.39056  0.51332  0.14622  1.0000
  C   C40       1.0  0.13595  0.50786  0.005649999999999998  1.0000
  C   C41       1.0  0.2497199999999999  0.046539999999999936  0.3707899999999999  1.0000
  C   C42       1.0  0.25605  0.07324000000000004  0.49428  1.0000
  C   C43       1.0  0.34252  0.12354  0.53477  1.0000
  C   C44       1.0  0.37709  0.13262999999999994  0.4865299999999999  1.0000
  C   C45       1.0  0.12784  0.99742  0.49177  1.0000
  C   C46       1.0  0.17583999999999989  0.8793599999999999  0.12904999999999994  1.0000
  C   C47       1.0  0.07905999999999998  0.76174  0.00551  1.0000
  C   C48       1.0  0.08887999999999993  0.8075599999999997  0.96502  1.0000
  C   C49       1.0  0.14623  0.89056  0.0133  1.0000
  C   C50       1.0  0.005669999999999976  0.63593  0.00784  1.0000
  C   C51       1.0  0.32442  0.45324999999999993  0.70342  1.0000
  C   C52       1.0  0.42092  0.42639  0.68268  1.0000
  C   C53       1.0  0.41113  0.37623999999999985  0.7188399999999998  1.0000
  C   C54       1.0  0.35394  0.36729  0.74452  1.0000
  C   C55       1.0  0.49425999999999987  0.50212  0.6303299999999997  1.0000
  C   C56       1.0  0.24994999999999998  0.6211099999999999  0.79683  1.0000
  C   C57       1.0  0.24383999999999986  0.7383799999999999  0.8174699999999998  1.0000
  C   C58       1.0  0.15740000000000004  0.69226  0.7813  1.0000
  C   C59       1.0  0.12269000000000001  0.60931  0.75564  1.0000
  C   C60       1.0  0.37206  0.86431  0.86981  1.0000
  C   C61       1.0  0.20340000000000003  0.9532399999999999  0.8244  1.0000
  C   C62       1.0  0.18266999999999997  0.92639  0.92091  1.0000
  C   C63       1.0  0.21883999999999998  0.87624  0.91112  1.0000
  C   C64       1.0  0.24449999999999986  0.86728  0.8539199999999998  1.0000
  C   C65       1.0  0.13033999999999996  0.0021299999999999193  0.9942299999999998  1.0000
  C   C66       1.0  0.29682  0.12108999999999999  0.74994  1.0000
  C   C67       1.0  0.31745999999999996  0.23835999999999996  0.74384  1.0000
  C   C68       1.0  0.2813  0.19225  0.6574  1.0000
  C   C69       1.0  0.25564  0.10929999999999998  0.62269  1.0000
  C   C70       1.0  0.36981999999999987  0.3642799999999998  0.8720799999999997  1.0000
  C   C71       1.0  0.8707799999999998  0.5465399999999999  0.7497  1.0000
  C   C72       1.0  0.9942599999999998  0.5732199999999997  0.7560299999999998  1.0000
  C   C73       1.0  0.034739999999999945  0.6235099999999999  0.84249  1.0000
  C   C74       1.0  0.98651  0.63261  0.87706  1.0000
  C   C75       1.0  0.9917799999999999  0.49740999999999996  0.62784  1.0000
  C   C76       1.0  0.62907  0.37938  0.67587  1.0000
  C   C77       1.0  0.50554  0.26176  0.57907  1.0000
  C   C78       1.0  0.46503999999999995  0.30756  0.58887  1.0000
  C   C79       1.0  0.51331  0.39055  0.64623  1.0000
  C   C80       1.0  0.50787  0.13595000000000004  0.50566  1.0000
  C   C81       1.0  0.046529999999999995  0.24971  0.87077  1.0000
  C   C82       1.0  0.07322999999999998  0.25604999999999983  0.9942599999999999  1.0000
  C   C83       1.0  0.12352999999999999  0.3425099999999999  0.03475  1.0000
  C   C84       1.0  0.13261999999999996  0.37707  0.98651  1.0000
  C   C85       1.0  0.9974199999999999  0.12784  0.99177  1.0000
  C   C86       1.0  0.8793699999999999  0.17584  0.62907  1.0000
  C   C87       1.0  0.76175  0.07906  0.50554  1.0000
  C   C88       1.0  0.80757  0.08886999999999994  0.4650499999999999  1.0000
  C   C89       1.0  0.89057  0.14621999999999985  0.5133199999999998  1.0000
  C   C90       1.0  0.63595  0.00567999999999999  0.50788  1.0000
  C   C91       1.0  0.45323  0.32438999999999996  0.20337  1.0000
  C   C92       1.0  0.42640000000000006  0.42092  0.18265999999999993  1.0000
  C   C93       1.0  0.37625  0.41112  0.21883  1.0000
  C   C94       1.0  0.36728  0.35390999999999995  0.24447999999999995  1.0000
  C   C95       1.0  0.50215  0.49428999999999995  0.13036  1.0000
  C   C96       1.0  0.6210999999999999  0.24992999999999993  0.29682999999999987  1.0000
  C   C97       1.0  0.73837  0.24383  0.31744  1.0000
  C   C98       1.0  0.69226  0.15739  0.28129  1.0000
  C   C99       1.0  0.60932  0.12268  0.25566  1.0000
  C   C100      1.0  0.8643199999999999  0.37206  0.3698  1.0000
  C   C101      1.0  0.74995  0.79685  0.62112  1.0000
  C   C102      1.0  0.74385  0.8174699999999997  0.73838  1.0000
  C   C103      1.0  0.6573999999999999  0.7813099999999998  0.6922699999999998  1.0000
  C   C104      1.0  0.6226899999999997  0.75566  0.60932  1.0000
  C   C105      1.0  0.8720699999999998  0.86981  0.8643099999999999  1.0000
  C   C106      1.0  0.8244099999999999  0.7034199999999999  0.4532599999999999  1.0000
  C   C107      1.0  0.9209099999999999  0.6826599999999999  0.4264  1.0000
  C   C108      1.0  0.9111099999999999  0.71882  0.37624  1.0000
  C   C109      1.0  0.8539299999999999  0.7445  0.3672899999999999  1.0000
  C   C110      1.0  0.9942299999999998  0.6303099999999999  0.50214  1.0000
  C   C111      1.0  0.67587  0.1290600000000001  0.87934  1.0000
  C   C112      1.0  0.57906  0.00552999999999998  0.76173  1.0000
  C   C113      1.0  0.58887  0.96504  0.80756  1.0000
  C   C114      1.0  0.64624  0.01331  0.89054  1.0000
  C   C115      1.0  0.50563  0.007849999999999996  0.63592  1.0000
  C   C116      1.0  0.74974  0.37077  0.04653  1.0000
  C   C117      1.0  0.75606  0.49425  0.07323  1.0000
  C   C118      1.0  0.8425199999999999  0.53476  0.12354000000000001  1.0000
  C   C119      1.0  0.87709  0.48651999999999995  0.13263  1.0000
  C   C120      1.0  0.6278399999999998  0.4917599999999998  0.9974299999999999  1.0000
  I   I1        1.0  0.76241  0.49360999999999994  0.89369  1.0000
  I   I2        1.0  0.7378599999999998  0.6314799999999998  0.7312899999999998  1.0000
  I   I3        1.0  0.09996999999999998  0.8689299999999999  0.60661  1.0000
  I   I4        1.0  0.40043000000000006  0.0068600000000000405  0.76908  1.0000
  I   I5        1.0  0.73137  0.23783999999999997  0.13143  1.0000
  I   I6        1.0  0.8937200000000001  0.26239  0.9935399999999999  1.0000
  I   I7        1.0  0.76908  0.90049  0.50688  1.0000
  I   I8        1.0  0.6066599999999999  0.60004  0.36903999999999987  1.0000
  I   I9        1.0  0.5068799999999999  0.2691  0.4004399999999999  1.0000
  I   I10       1.0  0.369  0.10664999999999998  0.09998999999999997  1.0000
  I   I11       1.0  0.13155  0.23137  0.73789  1.0000
  I   I12       1.0  0.99363  0.39367999999999986  0.7624099999999998  1.0000
  I   I13       1.0  0.23787999999999992  0.7313299999999999  0.63152  1.0000
  I   I14       1.0  0.2623699999999999  0.89369  0.49361999999999995  1.0000
  I   I15       1.0  0.90052  0.76913  0.00692  1.0000
  I   I16       1.0  0.60007  0.60668  0.86903  1.0000
  I   I17       1.0  0.26914  0.50693  0.90052  1.0000
  I   I18       1.0  0.10665999999999998  0.36897999999999986  0.60006  1.0000
  I   I19       1.0  0.23129  0.13149  0.23786  1.0000
  I   I20       1.0  0.3936599999999999  0.9935999999999999  0.2623999999999999  1.0000
  I   I21       1.0  0.49354  0.76236  0.39372  1.0000
  I   I22       1.0  0.63149  0.7378900000000002  0.23142  1.0000
  I   I23       1.0  0.869  0.09996  0.10664  1.0000
  I   I24       1.0  0.006889999999999959  0.4004199999999999  0.26909  1.0000
  N   N1        1.0  0.82328  0.78952  0.20106999999999994  1.0000
  N   N2        1.0  0.76488  0.6683499999999998  0.07198999999999997  1.0000
  N   N3        1.0  0.8438699999999999  0.7843099999999998  0.32057999999999987  1.0000
  N   N4        1.0  0.67688  0.87777  0.9662399999999998  1.0000
  N   N5        1.0  0.73545  0.80741  0.90378  1.0000
  N   N6        1.0  0.65623  0.97657  0.94034  1.0000
  N   N7        1.0  0.08866999999999997  0.6223199999999999  0.29936  1.0000
  N   N8        1.0  0.09644999999999998  0.69288  0.4282399999999999  1.0000
  N   N9        1.0  0.96376  0.52328  0.17951  1.0000
  N   N10       1.0  0.41113  0.71023  0.53333  1.0000
  N   N11       1.0  0.40339  0.83133  0.59617  1.0000
  N   N12       1.0  0.5359999999999999  0.7156899999999999  0.55925  1.0000
  N   N13       1.0  0.9662399999999997  0.17686  0.37777  1.0000
  N   N14       1.0  0.9037499999999999  0.23539999999999997  0.30739  1.0000
  N   N15       1.0  0.9403699999999999  0.15621999999999991  0.4765899999999999  1.0000
  N   N16       1.0  0.20107000000000003  0.32324  0.28951  1.0000
  N   N17       1.0  0.07197999999999997  0.26484  0.16833999999999993  1.0000
  N   N18       1.0  0.3205799999999999  0.34386  0.2842899999999999  1.0000
  N   N19       1.0  0.53333  0.9111299999999999  0.21023999999999995  1.0000
  N   N20       1.0  0.59616  0.90339  0.33134  1.0000
  N   N21       1.0  0.5592400000000001  0.036000000000000025  0.21569  1.0000
  N   N22       1.0  0.29935  0.58867  0.12230999999999997  1.0000
  N   N23       1.0  0.42822999999999994  0.59646  0.19291  1.0000
  N   N24       1.0  0.1795  0.46375  0.02327  1.0000
  N   N25       1.0  0.21023  0.033350000000000005  0.41115  1.0000
  N   N26       1.0  0.33133  0.09621  0.40341  1.0000
  N   N27       1.0  0.21568000000000012  0.05923999999999998  0.536  1.0000
  N   N28       1.0  0.12230000000000009  0.79934  0.08865  1.0000
  N   N29       1.0  0.19289999999999996  0.9282399999999998  0.09645  1.0000
  N   N30       1.0  0.02327000000000002  0.67949  0.96373  1.0000
  N   N31       1.0  0.3777599999999998  0.4662199999999998  0.6768599999999998  1.0000
  N   N32       1.0  0.30743  0.40378999999999987  0.73546  1.0000
  N   N33       1.0  0.47658  0.44036  0.65623  1.0000
  N   N34       1.0  0.28954  0.70108  0.82329  1.0000
  N   N35       1.0  0.16836  0.57198  0.76484  1.0000
  N   N36       1.0  0.2843200000000001  0.8205799999999999  0.84388  1.0000
  N   N37       1.0  0.1768599999999999  0.9662399999999999  0.87775  1.0000
  N   N38       1.0  0.23539999999999994  0.90376  0.8073799999999998  1.0000
  N   N39       1.0  0.15622000000000003  0.94036  0.97657  1.0000
  N   N40       1.0  0.32328  0.20106000000000004  0.78954  1.0000
  N   N41       1.0  0.26483  0.07197000000000002  0.66835  1.0000
  N   N42       1.0  0.34388  0.32057  0.78433  1.0000
  N   N43       1.0  0.91114  0.53334  0.71021  1.0000
  N   N44       1.0  0.90339  0.5962  0.83131  1.0000
  N   N45       1.0  0.03599999999999986  0.5592299999999998  0.7156699999999998  1.0000
  N   N46       1.0  0.58868  0.29937  0.62231  1.0000
  N   N47       1.0  0.59645  0.42823  0.6929199999999998  1.0000
  N   N48       1.0  0.46375999999999995  0.17951  0.52328  1.0000
  N   N49       1.0  0.033329999999999985  0.21022  0.91113  1.0000
  N   N50       1.0  0.09619999999999997  0.33131999999999995  0.90339  1.0000
  N   N51       1.0  0.05924  0.21568  0.03599  1.0000
  N   N52       1.0  0.7993599999999997  0.12230999999999985  0.5886699999999998  1.0000
  N   N53       1.0  0.9282399999999998  0.1929  0.59647  1.0000
  N   N54       1.0  0.6795  0.023279999999999954  0.46376  1.0000
  N   N55       1.0  0.46622  0.37775  0.17683  1.0000
  N   N56       1.0  0.40376  0.30738  0.23539  1.0000
  N   N57       1.0  0.44037000000000015  0.4766  0.15623  1.0000
  N   N58       1.0  0.7010599999999999  0.28952  0.32325  1.0000
  N   N59       1.0  0.57199  0.16833999999999996  0.26488  1.0000
  N   N60       1.0  0.82058  0.28432  0.34387  1.0000
  N   N61       1.0  0.78954  0.8232799999999999  0.70108  1.0000
  N   N62       1.0  0.66836  0.76488  0.572  1.0000
  N   N63       1.0  0.78433  0.84389  0.82058  1.0000
  N   N64       1.0  0.87775  0.6768499999999998  0.46624  1.0000
  N   N65       1.0  0.8074099999999999  0.7354399999999999  0.40378999999999987  1.0000
  N   N66       1.0  0.97657  0.6561999999999999  0.44037  1.0000
  N   N67       1.0  0.62232  0.08867000000000001  0.79933  1.0000
  N   N68       1.0  0.6929399999999999  0.09645999999999987  0.9282099999999998  1.0000
  N   N69       1.0  0.52326  0.96375  0.67948  1.0000
  N   N70       1.0  0.71025  0.41112  0.03333  1.0000
  N   N71       1.0  0.8313600000000001  0.40341  0.0962  1.0000
  N   N72       1.0  0.71568  0.53598  0.05923999999999999  1.0000
