data_image0
_chemical_formula_structural       Cd12H64C120O52
_chemical_formula_sum              "Cd12 H64 C120 O52"
_cell_length_a       10.85914
_cell_length_b       18.94871
_cell_length_c       19.12871
_cell_angle_alpha    80.50184
_cell_angle_beta     73.50138
_cell_angle_gamma    72.92316

_symmetry_space_group_name_H-M    'P 1'
_symmetry_Int_Tables_number       1

loop_
  _symmetry_equiv_pos_as_xyz
  'x,y,z'

loop_
  _atom_site_type_symbol
  _atom_site_label
  _atom_site_symmetry_multiplicity
  _atom_site_fract_x
  _atom_site_fract_y
  _atom_site_fract_z
  _atom_site_occupancy
  Cd  Cd1       1.0  0.06438999999999999  0.7498099999999999  0.75214  1.0000
  Cd  Cd2       1.0  0.08662  0.59909  0.61282  1.0000
  Cd  Cd3       1.0  0.91338  0.40091  0.38718  1.0000
  Cd  Cd4       1.0  0.38641999999999993  0.9325700000000001  0.52168  1.0000
  Cd  Cd5       1.0  0.79807  0.90088  0.8895400000000001  1.0000
  Cd  Cd6       1.0  0.33857999999999994  0.56771  0.97741  1.0000
  Cd  Cd7       1.0  1.0000000000048248e-05  0.5  0.5  1.0000
  Cd  Cd8       1.0  0.6614200000000002  0.43228  0.02258  1.0000
  Cd  Cd9       1.0  0.9356  0.25018  0.24785000000000001  1.0000
  Cd  Cd10      1.0  0.6135700000000002  0.06743  0.4783200000000001  1.0000
  Cd  Cd11      1.0  0.20194  0.09912  0.11045  1.0000
  Cd  Cd12      1.0  0.5  0.0  0.0  1.0000
  H   H1        1.0  0.41106000000000026  0.38474  0.84017  1.0000
  H   H2        1.0  0.17325999999999986  0.846  0.23550000000000001  1.0000
  H   H3        1.0  0.7008100000000002  0.5994  0.3801  1.0000
  H   H4        1.0  0.54679  0.9520500000000001  0.71685  1.0000
  H   H5        1.0  0.8648100000000001  0.8858699999999999  0.34123  1.0000
  H   H6        1.0  0.71962  0.16946999999999998  0.66132  1.0000
  H   H7        1.0  0.3319800000000003  0.21763  0.75339  1.0000
  H   H8        1.0  0.47601  0.14072  0.83368  1.0000
  H   H9        1.0  0.5240000000000001  0.85928  0.16632  1.0000
  H   H10       1.0  0.36033  0.83401  0.01871  1.0000
  H   H11       1.0  0.18781999999999985  0.9721  0.7539700000000001  1.0000
  H   H12       1.0  0.48515999999999976  0.60541  0.4745400000000001  1.0000
  H   H13       1.0  0.58893  0.61526  0.15983  1.0000
  H   H14       1.0  0.95334  0.35617  0.66676  1.0000
  H   H15       1.0  0.13518  0.11411999999999997  0.65876  1.0000
  H   H16       1.0  0.77096  0.24761  0.89454  1.0000
  H   H17       1.0  0.41324000000000005  0.52765  0.74681  1.0000
  H   H18       1.0  0.62423  0.52351  0.65073  1.0000
  H   H19       1.0  0.91907  0.94463  0.61714  1.0000
  H   H20       1.0  0.019419999999999965  0.44536  0.11585000000000001  1.0000
  H   H21       1.0  0.81565  0.09866999999999998  0.8807700000000002  1.0000
  H   H22       1.0  0.2984899999999999  0.9779600000000002  0.84961  1.0000
  H   H23       1.0  0.28214999999999996  0.45393  0.21723  1.0000
  H   H24       1.0  0.8122100000000002  0.02792  0.24602  1.0000
  H   H25       1.0  0.59257  0.74809  0.39189  1.0000
  H   H26       1.0  0.22904000000000016  0.75238  0.10546  1.0000
  H   H27       1.0  0.19362999999999997  0.71948  0.25192  1.0000
  H   H28       1.0  0.046670000000000045  0.64381  0.33323  1.0000
  H   H29       1.0  0.9452400000000002  0.67016  0.16037  1.0000
  H   H30       1.0  0.3757699999999999  0.47649  0.34927  1.0000
  H   H31       1.0  0.7015200000000001  0.02203  0.15038  1.0000
  H   H32       1.0  0.66803  0.78236  0.24661000000000002  1.0000
  H   H33       1.0  0.03925000000000007  0.23908  0.38579  1.0000
  H   H34       1.0  0.8267299999999997  0.154  0.76449  1.0000
  H   H35       1.0  0.71789  0.5460599999999999  0.78276  1.0000
  H   H36       1.0  0.2991900000000001  0.4006  0.6199  1.0000
  H   H37       1.0  0.9863700000000002  0.17555000000000004  0.37196  1.0000
  H   H38       1.0  0.054759999999999955  0.32983  0.83962  1.0000
  H   H39       1.0  0.7193600000000002  0.69421  0.07028  1.0000
  H   H40       1.0  0.45322000000000007  0.04794  0.28315  1.0000
  H   H41       1.0  0.9805799999999999  0.55463  0.88416  1.0000
  H   H42       1.0  0.93063  0.10539000000000001  0.9750999999999999  1.0000
  H   H43       1.0  0.6396700000000001  0.16599000000000005  0.98129  1.0000
  H   H44       1.0  0.24800999999999995  0.34555  0.73579  1.0000
  H   H45       1.0  0.40743  0.25191  0.6081  1.0000
  H   H46       1.0  0.08093000000000003  0.05537000000000001  0.38285  1.0000
  H   H47       1.0  0.71843  0.66613  0.47958000000000006  1.0000
  H   H48       1.0  0.28037999999999996  0.83053  0.33867  1.0000
  H   H49       1.0  0.1843600000000001  0.90136  0.11922  1.0000
  H   H50       1.0  0.28063999999999995  0.30578  0.9297200000000001  1.0000
  H   H51       1.0  0.98255  0.80755  0.43264  1.0000
  H   H52       1.0  0.013639999999999887  0.82445  0.62803  1.0000
  H   H53       1.0  0.80638  0.28052  0.74807  1.0000
  H   H54       1.0  0.8414300000000002  0.7389800000000001  0.8940699999999999  1.0000
  H   H55       1.0  0.5148400000000002  0.39459000000000005  0.52546  1.0000
  H   H56       1.0  0.28157  0.33386  0.52041  1.0000
  H   H57       1.0  0.7519900000000003  0.65445  0.2642  1.0000
  H   H58       1.0  0.97592  0.67663  0.8795800000000001  1.0000
  H   H59       1.0  0.02409999999999997  0.32337  0.12043  1.0000
  H   H60       1.0  0.9607499999999993  0.76092  0.6142  1.0000
  H   H61       1.0  0.5867600000000001  0.47234999999999994  0.25318  1.0000
  H   H62       1.0  0.06938999999999998  0.89461  0.02489  1.0000
  H   H63       1.0  0.017450000000000007  0.19245000000000004  0.56736  1.0000
  H   H64       1.0  0.15857  0.26101  0.10593  1.0000
  C   C1        1.0  0.14347000000000004  0.26757  0.53799  1.0000
  C   C2        1.0  0.28704  0.54703  0.47191999999999995  1.0000
  C   C3        1.0  0.9848399999999998  0.07692000000000002  0.92613  1.0000
  C   C4        1.0  0.7202300000000001  0.82237  0.36106  1.0000
  C   C5        1.0  0.92184  0.07351  0.87345  1.0000
  C   C6        1.0  0.54083  0.88329  0.20958  1.0000
  C   C7        1.0  0.83127  0.83845  0.37222  1.0000
  C   C8        1.0  0.8405100000000001  0.40266  0.2258  1.0000
  C   C9        1.0  0.78742  0.11717000000000001  0.67445  1.0000
  C   C10       1.0  0.49816000000000005  0.010130000000000002  0.72499  1.0000
  C   C11       1.0  0.4907599999999999  0.42335000000000006  0.57428  1.0000
  C   C12       1.0  0.54403  0.48314  0.8810900000000002  1.0000
  C   C13       1.0  0.6802600000000001  0.75958  0.39951  1.0000
  C   C14       1.0  0.13001000000000001  0.00010999999999999881  0.80295  1.0000
  C   C15       1.0  0.8889600000000004  0.43585000000000007  0.92894  1.0000
  C   C16       1.0  0.5913100000000002  0.21414  0.95  1.0000
  C   C17       1.0  0.07815999999999997  0.92649  0.12654  1.0000
  C   C18       1.0  0.11104000000000001  0.56415  0.07106  1.0000
  C   C19       1.0  0.38789000000000007  0.29313  0.92154  1.0000
  C   C20       1.0  0.3197400000000001  0.24042  0.60049  1.0000
  C   C21       1.0  0.9915800000000002  0.55855  0.1311  1.0000
  C   C22       1.0  0.18832  0.39155  0.76823  1.0000
  C   C23       1.0  0.18368  0.9421099999999999  0.36784  1.0000
  C   C24       1.0  0.2513299999999999  0.28539  0.55094  1.0000
  C   C25       1.0  0.19298000000000004  0.003820000000000001  0.85572  1.0000
  C   C26       1.0  0.06951000000000007  0.96026  0.2486  1.0000
  C   C27       1.0  0.93721  0.50015  0.67684  1.0000
  C   C28       1.0  0.8525000000000003  0.48079  0.20778  1.0000
  C   C29       1.0  0.40869000000000005  0.7858600000000001  0.05  1.0000
  C   C30       1.0  0.2127  0.66128  0.24404  1.0000
  C   C31       1.0  0.2644500000000001  0.51195  0.22505  1.0000
  C   C32       1.0  0.14750999999999995  0.51921  0.79222  1.0000
  C   C33       1.0  0.18974000000000005  0.05003999999999998  0.9719400000000001  1.0000
  C   C34       1.0  0.015159999999999941  0.9230700000000001  0.07387  1.0000
  C   C35       1.0  0.9575500000000002  0.49096000000000006  0.14816  1.0000
  C   C36       1.0  0.81168  0.60845  0.23177000000000003  1.0000
  C   C37       1.0  0.6121200000000002  0.70687  0.07845  1.0000
  C   C38       1.0  0.65753  0.53658  0.30978  1.0000
  C   C39       1.0  0.9569800000000002  0.97968  0.70955  1.0000
  C   C40       1.0  0.3784600000000001  0.18267  0.01533  1.0000
  C   C41       1.0  0.5018500000000001  0.98987  0.275  1.0000
  C   C42       1.0  0.33593000000000006  0.74089  0.09881  1.0000
  C   C43       1.0  0.8102400000000006  0.9499899999999999  0.02804  1.0000
  C   C44       1.0  0.8448800000000001  0.4555  0.72049  1.0000
  C   C45       1.0  0.58203  0.9472399999999999  0.32041  1.0000
  C   C46       1.0  0.6794000000000001  0.36973000000000006  0.81252  1.0000
  C   C47       1.0  0.24898  0.9361500000000001  0.42798  1.0000
  C   C48       1.0  0.1545199999999999  0.8921800000000001  0.26751  1.0000
  C   C49       1.0  0.5207200000000002  0.041909999999999996  0.77956  1.0000
  C   C50       1.0  0.37970999999999994  0.15946  0.745  1.0000
  C   C51       1.0  0.00565999999999999  0.96397  0.18934  1.0000
  C   C52       1.0  0.45918000000000003  0.11670999999999998  0.79041  1.0000
  C   C53       1.0  0.34726  0.55392  0.17916  1.0000
  C   C54       1.0  0.8070199999999998  0.9961700000000001  0.14428  1.0000
  C   C55       1.0  0.4179799999999999  0.05274999999999999  0.67959  1.0000
  C   C56       1.0  0.91779  0.61786  0.17344  1.0000
  C   C57       1.0  0.84548  0.10781  0.73248  1.0000
  C   C58       1.0  0.66407  0.25911  0.9011899999999999  1.0000
  C   C59       1.0  0.8788300000000007  0.95682  0.08311  1.0000
  C   C60       1.0  0.09811000000000003  0.00986  0.35044  1.0000
  C   C61       1.0  0.38585  0.0037599999999999973  0.1768  1.0000
  C   C62       1.0  0.45599000000000006  0.51686  0.1189  1.0000
  C   C63       1.0  0.45259  0.23135999999999998  0.9613100000000001  1.0000
  C   C64       1.0  0.10206  0.2055  0.57698  1.0000
  C   C65       1.0  0.8565300000000002  0.7324200000000001  0.46199999999999997  1.0000
  C   C66       1.0  0.6215299999999999  0.81734  0.9846700000000002  1.0000
  C   C67       1.0  0.86914  0.38076000000000004  0.70999  1.0000
  C   C68       1.0  0.2797699999999999  0.17762000000000003  0.63894  1.0000
  C   C69       1.0  0.62816  0.57394  0.37276  1.0000
  C   C70       1.0  0.008419999999999933  0.44144000000000005  0.8689  1.0000
  C   C71       1.0  0.40059000000000006  0.67833  0.13802  1.0000
  C   C72       1.0  0.92461  0.68445  0.51708  1.0000
  C   C73       1.0  0.5388700000000001  0.66256  0.12824  1.0000
  C   C74       1.0  0.77667  0.54054  0.25028  1.0000
  C   C75       1.0  0.44807999999999987  0.50282  0.35536  1.0000
  C   C76       1.0  0.6141500000000001  0.99624  0.8232  1.0000
  C   C77       1.0  0.22334000000000012  0.45946  0.74971  1.0000
  C   C78       1.0  0.04245999999999993  0.50904  0.85184  1.0000
  C   C79       1.0  0.21258  0.88283  0.32554  1.0000
  C   C80       1.0  0.32060000000000016  0.63027  0.18747  1.0000
  C   C81       1.0  0.47929000000000016  0.95809  0.22044  1.0000
  C   C82       1.0  0.41773  0.54185  0.41686  1.0000
  C   C83       1.0  0.5669500000000002  0.50016  0.30224  1.0000
  C   C84       1.0  0.40718  0.016260000000000004  0.61915  1.0000
  C   C85       1.0  0.34246999999999994  0.46342000000000005  0.69022  1.0000
  C   C86       1.0  0.12117000000000006  0.04316999999999999  0.91689  1.0000
  C   C87       1.0  0.13086999999999996  0.61923  0.29  1.0000
  C   C88       1.0  0.02847999999999992  0.9013300000000001  0.72905  1.0000
  C   C89       1.0  0.5092399999999999  0.57665  0.42571000000000003  1.0000
  C   C90       1.0  0.7873100000000001  0.33871  0.75595  1.0000
  C   C91       1.0  0.9304900000000002  0.03973999999999999  0.75139  1.0000
  C   C92       1.0  0.37185  0.42606  0.62724  1.0000
  C   C93       1.0  0.58227  0.45815  0.58314  1.0000
  C   C94       1.0  0.5519200000000001  0.49718000000000007  0.64464  1.0000
  C   C95       1.0  0.35896999999999996  0.12908  0.68838  1.0000
  C   C96       1.0  0.8699900000000002  0.9998800000000001  0.19705  1.0000
  C   C97       1.0  0.54741  0.76863  0.03869  1.0000
  C   C98       1.0  0.6203  0.84054  0.255  1.0000
  C   C99       1.0  0.9018799999999999  0.9901400000000001  0.64955  1.0000
  C   C100      1.0  0.97152  0.09866999999999998  0.27094  1.0000
  C   C101      1.0  0.65276  0.4460799999999999  0.82083  1.0000
  C   C102      1.0  0.07538999999999997  0.31555  0.48291  1.0000
  C   C103      1.0  0.99434  0.03603  0.81066  1.0000
  C   C104      1.0  0.15949000000000002  0.59734  0.7742  1.0000
  C   C105      1.0  0.59282  0.9837300000000001  0.38084000000000007  1.0000
  C   C106      1.0  0.16872999999999994  0.16155  0.62778  1.0000
  C   C107      1.0  0.89794  0.7945  0.42302000000000006  1.0000
  C   C108      1.0  0.04301000000000001  0.02032  0.29044  1.0000
  C   C109      1.0  0.7355700000000001  0.48804000000000003  0.77494  1.0000
  C   C110      1.0  0.8163200000000002  0.05788  0.63216  1.0000
  C   C111      1.0  0.46113  0.33743  0.87176  1.0000
  C   C112      1.0  0.7486600000000001  0.71461  0.44905  1.0000
  C   C113      1.0  0.43305000000000005  0.49983999999999995  0.69776  1.0000
  C   C114      1.0  0.06281999999999997  0.49983999999999995  0.32316  1.0000
  C   C115      1.0  0.6410400000000002  0.87091  0.31162  1.0000
  C   C116      1.0  0.71296  0.4529599999999999  0.52808  1.0000
  C   C117      1.0  0.75102  0.06385  0.57201  1.0000
  C   C118      1.0  0.15515  0.54449  0.2795  1.0000
  C   C119      1.0  0.08220999999999999  0.38214  0.82656  1.0000
  C   C120      1.0  0.59941  0.32167  0.86198  1.0000
  O   O1        1.0  0.26905000000000007  0.58199  0.52758  1.0000
  O   O2        1.0  0.9709800000000006  0.52548  0.37899  1.0000
  O   O3        1.0  0.99496  0.71019  0.54556  1.0000
  O   O4        1.0  0.08859999999999996  0.38104  0.46476  1.0000
  O   O5        1.0  0.60652  0.050030000000000005  0.36742  1.0000
  O   O6        1.0  0.11353000000000002  0.08228999999999999  0.02866  1.0000
  O   O7        1.0  0.9884999999999999  0.86844  0.79355  1.0000
  O   O8        1.0  0.5573400000000002  0.8817499999999999  0.96538  1.0000
  O   O9        1.0  0.31436  0.06662  0.19796  1.0000
  O   O10       1.0  0.03813  0.21066  0.34639  1.0000
  O   O11       1.0  0.011489999999999972  0.13156000000000004  0.20644  1.0000
  O   O12       1.0  0.6691  0.12525  0.55665  1.0000
  O   O13       1.0  0.7748400000000001  0.00656  0.53832  1.0000
  O   O14       1.0  0.52432  0.45074000000000003  0.13288  1.0000
  O   O15       1.0  0.0050400000000000245  0.2898  0.45443  1.0000
  O   O16       1.0  0.7309400000000001  0.41801  0.47242  1.0000
  O   O17       1.0  0.47571  0.54927  0.86711  1.0000
  O   O18       1.0  0.02905000000000001  0.47452  0.62101  1.0000
  O   O19       1.0  0.8556100000000001  0.36796  0.28892  1.0000
  O   O20       1.0  0.33091  0.8747500000000001  0.44333  1.0000
  O   O21       1.0  0.88227  0.1355  0.3197  1.0000
  O   O22       1.0  0.08818999999999996  0.28935  0.14538  1.0000
  O   O23       1.0  0.41315999999999997  0.050309999999999994  0.55498  1.0000
  O   O24       1.0  0.20649  0.5173  0.45869  1.0000
  O   O25       1.0  0.9114100000000002  0.61896  0.53523  1.0000
  O   O26       1.0  0.6856400000000007  0.93338  0.80203  1.0000
  O   O27       1.0  0.52017  0.44962999999999986  0.94548  1.0000
  O   O28       1.0  0.9618799999999998  0.78934  0.65361  1.0000
  O   O29       1.0  0.91181  0.71065  0.85462  1.0000
  O   O30       1.0  0.7484199999999998  0.79317  0.95836  1.0000
  O   O31       1.0  0.8864499999999998  0.9177799999999999  0.9713000000000002  1.0000
  O   O32       1.0  0.6246800000000001  0.02175999999999999  0.87911  1.0000
  O   O33       1.0  0.8555799999999999  0.37422999999999995  0.94495  1.0000
  O   O34       1.0  0.58684  0.94969  0.4450200000000001  1.0000
  O   O35       1.0  0.44265  0.11825  0.03462  1.0000
  O   O36       1.0  0.07592000000000003  0.43721999999999994  0.30152  1.0000
  O   O37       1.0  0.8316100000000001  0.36785  0.17722  1.0000
  O   O38       1.0  0.3151300000000001  0.024430000000000007  0.9581299999999999  1.0000
  O   O39       1.0  0.14439  0.63204  0.71108  1.0000
  O   O40       1.0  0.11773999999999994  0.8645000000000002  0.68029  1.0000
  O   O41       1.0  0.22516000000000008  0.9934300000000001  0.46167  1.0000
  O   O42       1.0  0.14441999999999997  0.62577  0.05505  1.0000
  O   O43       1.0  0.7935200000000002  0.48269000000000006  0.54131  1.0000
  O   O44       1.0  0.16840000000000002  0.63215  0.8227700000000001  1.0000
  O   O45       1.0  0.39347999999999983  0.9499600000000001  0.63257  1.0000
  O   O46       1.0  0.25157  0.20683  0.04164  1.0000
  O   O47       1.0  0.8193299999999999  0.49355000000000004  0.9618100000000002  1.0000
  O   O48       1.0  0.18066999999999997  0.50645  0.03819  1.0000
  O   O49       1.0  0.9240900000000004  0.56277  0.69848  1.0000
  O   O50       1.0  0.3753199999999999  0.9782400000000001  0.12088000000000002  1.0000
  O   O51       1.0  0.68485  0.97558  0.04189  1.0000
  O   O52       1.0  0.47984  0.55037  0.05451  1.0000
