data_image0
_chemical_formula_structural       Mn8H112C148S16N24O36
_chemical_formula_sum              "Mn8 H112 C148 S16 N24 O36"
_cell_length_a       12.76275
_cell_length_b       16.00234
_cell_length_c       21.95432
_cell_angle_alpha    105.60034
_cell_angle_beta     89.83229
_cell_angle_gamma    89.90723

_space_group_name_H-M_alt    "P 1"
_space_group_IT_number       1

loop_
  _space_group_symop_operation_xyz
  'x, y, z'

loop_
  _atom_site_type_symbol
  _atom_site_label
  _atom_site_symmetry_multiplicity
  _atom_site_fract_x
  _atom_site_fract_y
  _atom_site_fract_z
  _atom_site_occupancy
  Mn  Mn1       1.0  0.15075  0.19742000000000007  0.6398300000000001  1.0000
  Mn  Mn2       1.0  0.06623000000000001  0.40259999999999996  0.70146  1.0000
  Mn  Mn3       1.0  0.65056  0.8029200000000001  0.8608100000000001  1.0000
  Mn  Mn4       1.0  0.56777  0.5969600000000002  0.7982600000000001  1.0000
  Mn  Mn5       1.0  0.84925  0.80259  0.36017000000000005  1.0000
  Mn  Mn6       1.0  0.9337699999999999  0.59741  0.29855  1.0000
  Mn  Mn7       1.0  0.3494399999999999  0.19709  0.1392  1.0000
  Mn  Mn8       1.0  0.43223  0.40304  0.20175000000000004  1.0000
  H   H1        1.0  0.22632  0.27877  0.40389  1.0000
  H   H2        1.0  0.22158999999999998  0.18078  0.29221  1.0000
  H   H3        1.0  0.57877  0.91438  0.3127  1.0000
  H   H4        1.0  0.40316  0.97332  0.29864  1.0000
  H   H5        1.0  0.44959  0.65734  0.25322  1.0000
  H   H6        1.0  0.8490700000000001  0.10698999999999997  0.58493  1.0000
  H   H7        1.0  0.65993  0.06524000000000006  0.5626300000000001  1.0000
  H   H8        1.0  0.47996999999999995  0.36716  0.40464000000000006  1.0000
  H   H9        1.0  0.49775  0.28697  0.48894000000000004  1.0000
  H   H10       1.0  0.29115  0.04614000000000002  0.5853  1.0000
  H   H11       1.0  0.29924  0.8853  0.56146  1.0000
  H   H12       1.0  0.98903  0.89251  0.64149  1.0000
  H   H13       1.0  0.99116  0.05247999999999999  0.65952  1.0000
  H   H14       1.0  0.1456  0.75427  0.62485  1.0000
  H   H15       1.0  0.21466  0.75196  0.55469  1.0000
  H   H16       1.0  0.03476  0.77308  0.5048  1.0000
  H   H17       1.0  0.97528  0.75635  0.57256  1.0000
  H   H18       1.0  0.97595  0.62381  0.4844200000000001  1.0000
  H   H19       1.0  0.11485  0.62434  0.47993  1.0000
  H   H20       1.0  0.22244  0.57805  0.55935  1.0000
  H   H21       1.0  0.2258  0.50465  0.6456300000000001  1.0000
  H   H22       1.0  0.90267  0.5252400000000002  0.6680000000000001  1.0000
  H   H23       1.0  0.88703  0.59887  0.5816600000000001  1.0000
  H   H24       1.0  0.20417  0.05147  0.47108  1.0000
  H   H25       1.0  0.75342  0.37403  0.62371  1.0000
  H   H26       1.0  0.45463  0.11901  0.26755  1.0000
  H   H27       1.0  0.2034  0.33647  0.6008500000000001  1.0000
  H   H28       1.0  0.26846  0.34386000000000005  0.6720800000000001  1.0000
  H   H29       1.0  0.7257200000000001  0.72115  0.09624000000000002  1.0000
  H   H30       1.0  0.7213199999999999  0.8191900000000001  0.20778000000000005  1.0000
  H   H31       1.0  0.07988  0.08537  0.18693000000000004  1.0000
  H   H32       1.0  0.90427  0.026339999999999995  0.2011  1.0000
  H   H33       1.0  0.9493  0.34234  0.24720000000000003  1.0000
  H   H34       1.0  0.3469  0.89395  0.91542  1.0000
  H   H35       1.0  0.15719  0.93467  0.93708  1.0000
  H   H36       1.0  0.9822299999999999  0.63294  0.09521000000000002  1.0000
  H   H37       1.0  0.9977500000000001  0.71297  0.01066  1.0000
  H   H38       1.0  0.79106  0.95382  0.9153000000000001  1.0000
  H   H39       1.0  0.79906  0.11465999999999998  0.93845  1.0000
  H   H40       1.0  0.48957  0.10787000000000009  0.8586500000000002  1.0000
  H   H41       1.0  0.49163  0.94803  0.84145  1.0000
  H   H42       1.0  0.64561  0.24569000000000005  0.8748900000000001  1.0000
  H   H43       1.0  0.71457  0.24802000000000002  0.9448700000000001  1.0000
  H   H44       1.0  0.53453  0.22724000000000005  0.9952900000000001  1.0000
  H   H45       1.0  0.47528  0.24418  0.92771  1.0000
  H   H46       1.0  0.47558  0.37671  0.01579  1.0000
  H   H47       1.0  0.61451  0.37567  0.01996  1.0000
  H   H48       1.0  0.72257  0.42187000000000013  0.9405800000000002  1.0000
  H   H49       1.0  0.72675  0.49467  0.85399  1.0000
  H   H50       1.0  0.40385  0.47459  0.83173  1.0000
  H   H51       1.0  0.38743  0.40142  0.91833  1.0000
  H   H52       1.0  0.70447  0.94874  0.029020000000000004  1.0000
  H   H53       1.0  0.25472  0.62632  0.87616  1.0000
  H   H54       1.0  0.95515  0.88111  0.23226000000000005  1.0000
  H   H55       1.0  0.70203  0.66427  0.8997  1.0000
  H   H56       1.0  0.76806  0.65611  0.82842  1.0000
  H   H57       1.0  0.77368  0.72123  0.5961100000000001  1.0000
  H   H58       1.0  0.77841  0.81923  0.70779  1.0000
  H   H59       1.0  0.42122  0.08563000000000011  0.6873000000000001  1.0000
  H   H60       1.0  0.59684  0.026689999999999936  0.70137  1.0000
  H   H61       1.0  0.5504  0.3426600000000001  0.7467900000000001  1.0000
  H   H62       1.0  0.15093  0.8930100000000001  0.4150700000000001  1.0000
  H   H63       1.0  0.34007  0.9347600000000001  0.43737000000000004  1.0000
  H   H64       1.0  0.52003  0.63285  0.59536  1.0000
  H   H65       1.0  0.50225  0.71304  0.5110600000000001  1.0000
  H   H66       1.0  0.70885  0.95386  0.4147  1.0000
  H   H67       1.0  0.70075  0.11471  0.43854  1.0000
  H   H68       1.0  0.01097  0.10749999999999997  0.35852  1.0000
  H   H69       1.0  0.00883  0.94753  0.34048  1.0000
  H   H70       1.0  0.85439  0.24574  0.37515  1.0000
  H   H71       1.0  0.78534  0.24804000000000007  0.4453100000000001  1.0000
  H   H72       1.0  0.96523  0.22692  0.49520000000000003  1.0000
  H   H73       1.0  0.024709999999999996  0.24366  0.42744  1.0000
  H   H74       1.0  0.02405  0.3762  0.51558  1.0000
  H   H75       1.0  0.8851399999999999  0.37567  0.52007  1.0000
  H   H76       1.0  0.77756  0.42196000000000006  0.44065000000000004  1.0000
  H   H77       1.0  0.7741900000000002  0.4953600000000001  0.3543700000000001  1.0000
  H   H78       1.0  0.09732  0.47477  0.332  1.0000
  H   H79       1.0  0.11297  0.40113  0.41835  1.0000
  H   H80       1.0  0.79583  0.94854  0.52892  1.0000
  H   H81       1.0  0.24657  0.62597  0.37629  1.0000
  H   H82       1.0  0.54537  0.881  0.73246  1.0000
  H   H83       1.0  0.7966  0.66354  0.39915  1.0000
  H   H84       1.0  0.73153  0.65615  0.32793  1.0000
  H   H85       1.0  0.27428  0.27885000000000004  0.9037700000000001  1.0000
  H   H86       1.0  0.27867  0.18081000000000008  0.7922200000000003  1.0000
  H   H87       1.0  0.92011  0.91463  0.81307  1.0000
  H   H88       1.0  0.09572999999999998  0.9736600000000001  0.7989100000000001  1.0000
  H   H89       1.0  0.0507  0.65767  0.7528  1.0000
  H   H90       1.0  0.6531  0.10606  0.08459  1.0000
  H   H91       1.0  0.84281  0.06534  0.06293  1.0000
  H   H92       1.0  0.01777  0.36706  0.90479  1.0000
  H   H93       1.0  0.0022399999999999994  0.2870400000000001  0.9893400000000001  1.0000
  H   H94       1.0  0.20894000000000001  0.04619000000000001  0.08470000000000001  1.0000
  H   H95       1.0  0.20093000000000003  0.88535  0.061550000000000014  1.0000
  H   H96       1.0  0.51042  0.89214  0.14136  1.0000
  H   H97       1.0  0.50836  0.051969999999999995  0.15855  1.0000
  H   H98       1.0  0.35439  0.75431  0.12511  1.0000
  H   H99       1.0  0.28543  0.75199  0.05513  1.0000
  H   H100      1.0  0.46547  0.77277  0.004710000000000001  1.0000
  H   H101      1.0  0.52472  0.75582  0.07229  1.0000
  H   H102      1.0  0.52442  0.6233  0.98421  1.0000
  H   H103      1.0  0.38549  0.62434  0.98004  1.0000
  H   H104      1.0  0.27743  0.57814  0.05942  1.0000
  H   H105      1.0  0.27325  0.50534  0.14601  1.0000
  H   H106      1.0  0.59615  0.52542  0.16827000000000003  1.0000
  H   H107      1.0  0.61257  0.59859  0.08167000000000002  1.0000
  H   H108      1.0  0.29552  0.05127000000000007  0.9709800000000002  1.0000
  H   H109      1.0  0.74527  0.37369  0.12384000000000002  1.0000
  H   H110      1.0  0.04484999999999999  0.11890000000000009  0.7677400000000002  1.0000
  H   H111      1.0  0.29796  0.33574  0.1003  1.0000
  H   H112      1.0  0.23194  0.3439  0.17158000000000004  1.0000
  C   C1        1.0  0.21677  0.22382  0.51362  1.0000
  C   C2        1.0  0.2158  0.17177  0.44599  1.0000
  C   C3        1.0  0.21996  0.20870000000000005  0.3949000000000001  1.0000
  C   C4        1.0  0.2174  0.15521000000000001  0.3333900000000001  1.0000
  C   C5        1.0  0.21202  0.06501000000000003  0.32536000000000004  1.0000
  C   C6        1.0  0.6324499999999998  0.74613  0.29562  1.0000
  C   C7        1.0  0.5289  0.7809699999999999  0.28248  1.0000
  C   C8        1.0  0.51398  0.87083  0.2948700000000001  1.0000
  C   C9        1.0  0.41615  0.90373  0.28644000000000003  1.0000
  C   C10       1.0  0.33602  0.84393  0.26385  1.0000
  C   C11       1.0  0.44224  0.7272800000000001  0.26172000000000006  1.0000
  C   C12       1.0  0.9256299999999998  0.27197  0.62014  1.0000
  C   C13       1.0  0.8153  0.24385  0.60464  1.0000
  C   C14       1.0  0.7889500000000002  0.15575000000000006  0.5866400000000002  1.0000
  C   C15       1.0  0.68467  0.13263000000000003  0.57416  1.0000
  C   C16       1.0  0.61143  0.19890000000000002  0.5773000000000001  1.0000
  C   C17       1.0  0.44456  0.28741  0.27609  1.0000
  C   C18       1.0  0.46286  0.24889999999999998  0.32959  1.0000
  C   C19       1.0  0.47745  0.29658  0.3926700000000001  1.0000
  C   C20       1.0  0.48752  0.2527  0.43932  1.0000
  C   C21       1.0  0.48141  0.16181  0.42052  1.0000
  C   C22       1.0  0.22576  0.009449999999999984  0.59683  1.0000
  C   C23       1.0  0.22969  0.91964  0.5838700000000001  1.0000
  C   C24       1.0  0.14411  0.8741800000000001  0.5989300000000001  1.0000
  C   C25       1.0  0.05776  0.92355  0.6280200000000001  1.0000
  C   C26       1.0  0.05877  0.013239999999999991  0.6388  1.0000
  C   C27       1.0  0.1431  0.7766  0.5816000000000001  1.0000
  C   C28       1.0  0.04522999999999999  0.74067  0.54251  1.0000
  C   C29       1.0  0.04779  0.64174  0.51238  1.0000
  C   C30       1.0  0.05369999999999999  0.5938500000000001  0.5623400000000001  1.0000
  C   C31       1.0  0.14956  0.56735  0.5820200000000001  1.0000
  C   C32       1.0  0.15217  0.52675  0.6305  1.0000
  C   C33       1.0  0.9716500000000001  0.53784  0.64265  1.0000
  C   C34       1.0  0.96357  0.57902  0.5946900000000002  1.0000
  C   C35       1.0  0.20874999999999996  0.08134000000000008  0.4320500000000001  1.0000
  C   C36       1.0  0.73502  0.30508  0.60871  1.0000
  C   C37       1.0  0.46374  0.15792000000000003  0.31617000000000006  1.0000
  C   C38       1.0  0.7165999999999999  0.77637  0.98645  1.0000
  C   C39       1.0  0.71577  0.8282900000000001  0.05406  1.0000
  C   C40       1.0  0.71967  0.79127  0.10512  1.0000
  C   C41       1.0  0.71727  0.84481  0.16661000000000004  1.0000
  C   C42       1.0  0.7121899999999999  0.9350400000000002  0.17463  1.0000
  C   C43       1.0  0.13267  0.25403000000000003  0.20440000000000003  1.0000
  C   C44       1.0  0.02927  0.21877999999999997  0.21757  1.0000
  C   C45       1.0  0.01478  0.1289  0.20497  1.0000
  C   C46       1.0  0.91694  0.09596000000000002  0.21343000000000004  1.0000
  C   C47       1.0  0.83633  0.15576  0.23609000000000002  1.0000
  C   C48       1.0  0.94216  0.2724  0.23847  1.0000
  C   C49       1.0  0.42581  0.72924  0.8797700000000002  1.0000
  C   C50       1.0  0.31502  0.75674  0.89524  1.0000
  C   C51       1.0  0.28744  0.84474  0.91332  1.0000
  C   C52       1.0  0.18276  0.8673500000000001  0.9255200000000002  1.0000
  C   C53       1.0  0.11033999999999998  0.80069  0.92236  1.0000
  C   C54       1.0  0.94658  0.71268  0.22384  1.0000
  C   C55       1.0  0.96393  0.75121  0.17024  1.0000
  C   C56       1.0  0.97861  0.70348  0.10710000000000003  1.0000
  C   C57       1.0  0.98772  0.74728  0.060340000000000005  1.0000
  C   C58       1.0  0.98118  0.83818  0.07913000000000002  1.0000
  C   C59       1.0  0.72582  0.9906100000000001  0.9036900000000001  1.0000
  C   C60       1.0  0.72972  0.08036000000000001  0.9162400000000002  1.0000
  C   C61       1.0  0.6443099999999999  0.12592  0.90106  1.0000
  C   C62       1.0  0.55815  0.07674000000000009  0.8722200000000002  1.0000
  C   C63       1.0  0.55913  0.98714  0.8618900000000002  1.0000
  C   C64       1.0  0.64314  0.22347000000000006  0.9182000000000001  1.0000
  C   C65       1.0  0.5451  0.25965  0.95757  1.0000
  C   C66       1.0  0.54758  0.35855  0.98769  1.0000
  C   C67       1.0  0.55388  0.40632  0.93766  1.0000
  C   C68       1.0  0.6499100000000001  0.43255  0.91789  1.0000
  C   C69       1.0  0.6529800000000001  0.47285  0.86924  1.0000
  C   C70       1.0  0.47258  0.4620500000000001  0.8571600000000003  1.0000
  C   C71       1.0  0.46406  0.42113000000000006  0.9052500000000001  1.0000
  C   C72       1.0  0.70897  0.91878  0.068  1.0000
  C   C73       1.0  0.23546  0.69517  0.8911000000000001  1.0000
  C   C74       1.0  0.96418  0.84219  0.18359000000000006  1.0000
  C   C75       1.0  0.78323  0.77619  0.4863800000000001  1.0000
  C   C76       1.0  0.7842  0.82823  0.55402  1.0000
  C   C77       1.0  0.78004  0.7913  0.60511  1.0000
  C   C78       1.0  0.7826  0.8447999999999999  0.66661  1.0000
  C   C79       1.0  0.78798  0.9350000000000002  0.6746400000000001  1.0000
  C   C80       1.0  0.36755  0.25388  0.70438  1.0000
  C   C81       1.0  0.47109  0.21903000000000003  0.7175200000000002  1.0000
  C   C82       1.0  0.48601  0.12918000000000004  0.7051300000000001  1.0000
  C   C83       1.0  0.58385  0.09628000000000009  0.7135700000000003  1.0000
  C   C84       1.0  0.66398  0.15608  0.73615  1.0000
  C   C85       1.0  0.55775  0.27273  0.73828  1.0000
  C   C86       1.0  0.07437  0.72804  0.37986  1.0000
  C   C87       1.0  0.18469  0.75616  0.39536  1.0000
  C   C88       1.0  0.21105  0.84426  0.41336  1.0000
  C   C89       1.0  0.31532  0.86738  0.42585000000000006  1.0000
  C   C90       1.0  0.38857  0.80111  0.4227100000000001  1.0000
  C   C91       1.0  0.55543  0.7126  0.72392  1.0000
  C   C92       1.0  0.53713  0.75111  0.67042  1.0000
  C   C93       1.0  0.52255  0.70342  0.60733  1.0000
  C   C94       1.0  0.51247  0.74731  0.56069  1.0000
  C   C95       1.0  0.51859  0.8382  0.5794800000000001  1.0000
  C   C96       1.0  0.77423  0.9905500000000002  0.40318  1.0000
  C   C97       1.0  0.7703099999999999  0.08036999999999997  0.41613  1.0000
  C   C98       1.0  0.85588  0.12582000000000002  0.40107000000000004  1.0000
  C   C99       1.0  0.94224  0.07646000000000006  0.3719900000000001  1.0000
  C   C100      1.0  0.94122  0.98677  0.3612000000000001  1.0000
  C   C101      1.0  0.85689  0.22341000000000003  0.41841000000000006  1.0000
  C   C102      1.0  0.9547599999999999  0.25934  0.4575000000000001  1.0000
  C   C103      1.0  0.9522  0.35827  0.4876300000000001  1.0000
  C   C104      1.0  0.9463  0.40616  0.4376700000000001  1.0000
  C   C105      1.0  0.85043  0.43265  0.41799  1.0000
  C   C106      1.0  0.84782  0.47326  0.36951000000000006  1.0000
  C   C107      1.0  0.028350000000000004  0.46217  0.35736  1.0000
  C   C108      1.0  0.03643  0.42099000000000003  0.4053100000000001  1.0000
  C   C109      1.0  0.7912499999999999  0.9186700000000001  0.5679600000000001  1.0000
  C   C110      1.0  0.26498  0.69493  0.3912900000000001  1.0000
  C   C111      1.0  0.53626  0.84209  0.6838300000000002  1.0000
  C   C112      1.0  0.28339  0.22364  0.01355  1.0000
  C   C113      1.0  0.28423  0.17172000000000007  0.9459400000000002  1.0000
  C   C114      1.0  0.28032  0.20874000000000004  0.89488  1.0000
  C   C115      1.0  0.28273  0.15519999999999995  0.83339  1.0000
  C   C116      1.0  0.2878  0.06495999999999996  0.82538  1.0000
  C   C117      1.0  0.86732  0.74597  0.7956000000000002  1.0000
  C   C118      1.0  0.97073  0.7812200000000001  0.7824400000000001  1.0000
  C   C119      1.0  0.98522  0.8711100000000002  0.7950300000000001  1.0000
  C   C120      1.0  0.08304999999999998  0.9040500000000001  0.7865700000000001  1.0000
  C   C121      1.0  0.16367  0.84425  0.76391  1.0000
  C   C122      1.0  0.05784  0.72761  0.7615300000000002  1.0000
  C   C123      1.0  0.57419  0.27076  0.12023000000000002  1.0000
  C   C124      1.0  0.68498  0.24327000000000001  0.10476000000000003  1.0000
  C   C125      1.0  0.71256  0.15526  0.08669000000000002  1.0000
  C   C126      1.0  0.81723  0.13266  0.07449  1.0000
  C   C127      1.0  0.88965  0.19932  0.07764  1.0000
  C   C128      1.0  0.05342  0.28733000000000003  0.7761600000000001  1.0000
  C   C129      1.0  0.03606999999999999  0.2488  0.82977  1.0000
  C   C130      1.0  0.02139  0.29652  0.8929100000000001  1.0000
  C   C131      1.0  0.012269999999999998  0.2527200000000001  0.9396600000000003  1.0000
  C   C132      1.0  0.01882  0.16181999999999994  0.92087  1.0000
  C   C133      1.0  0.27418  0.009399999999999993  0.09632  1.0000
  C   C134      1.0  0.27028  0.91965  0.08377  1.0000
  C   C135      1.0  0.35569  0.87409  0.09894  1.0000
  C   C136      1.0  0.44185  0.92326  0.12778  1.0000
  C   C137      1.0  0.44087  0.01287  0.13811  1.0000
  C   C138      1.0  0.35686  0.77654  0.08180000000000001  1.0000
  C   C139      1.0  0.4549  0.74036  0.04243000000000001  1.0000
  C   C140      1.0  0.45242  0.64146  0.012310000000000001  1.0000
  C   C141      1.0  0.44612  0.59369  0.062340000000000007  1.0000
  C   C142      1.0  0.35009  0.56746  0.08212  1.0000
  C   C143      1.0  0.34702  0.52716  0.13076  1.0000
  C   C144      1.0  0.52742  0.53795  0.14284  1.0000
  C   C145      1.0  0.53593  0.57887  0.09475  1.0000
  C   C146      1.0  0.29103  0.08122999999999997  0.932  1.0000
  C   C147      1.0  0.7645399999999999  0.30483  0.1089  1.0000
  C   C148      1.0  0.03581999999999999  0.15782000000000004  0.81641  1.0000
  S   S1        1.0  0.2156  0.9982  0.24558  1.0000
  S   S2        1.0  0.20478  0.87362  0.25117  1.0000
  S   S3        1.0  0.47524  0.1754  0.56098  1.0000
  S   S4        1.0  0.48223  0.09276000000000004  0.4721200000000001  1.0000
  S   S5        1.0  0.71571  0.0017599999999999942  0.25434  1.0000
  S   S6        1.0  0.70495  0.12636  0.24881  1.0000
  S   S7        1.0  0.97388  0.82379  0.9387600000000003  1.0000
  S   S8        1.0  0.98038  0.90699  0.027400000000000004  1.0000
  S   S9        1.0  0.7843999999999999  0.0018100000000000186  0.75442  1.0000
  S   S10       1.0  0.79522  0.12639000000000003  0.7488400000000001  1.0000
  S   S11       1.0  0.52476  0.8246100000000001  0.43902  1.0000
  S   S12       1.0  0.51777  0.9072500000000001  0.52788  1.0000
  S   S13       1.0  0.28429  0.9982500000000001  0.7456700000000002  1.0000
  S   S14       1.0  0.29505  0.8736500000000001  0.7511900000000001  1.0000
  S   S15       1.0  0.02612  0.17621  0.06125  1.0000
  S   S16       1.0  0.01962  0.09302000000000002  0.9726  1.0000
  N   N1        1.0  0.20714  0.028280000000000003  0.37321  1.0000
  N   N2        1.0  0.6347999999999999  0.28384  0.59388  1.0000
  N   N3        1.0  0.47284  0.11464000000000005  0.3601000000000001  1.0000
  N   N4        1.0  0.14124  0.056410000000000085  0.6234200000000002  1.0000
  N   N5        1.0  0.06457  0.5104  0.66043  1.0000
  N   N6        1.0  0.34751  0.75746  0.25128  1.0000
  N   N7        1.0  0.7073900000000001  0.97186  0.12683000000000003  1.0000
  N   N8        1.0  0.13481  0.71586  0.9058200000000002  1.0000
  N   N9        1.0  0.97299  0.88542  0.13961  1.0000
  N   N10       1.0  0.64139  0.94388  0.87743  1.0000
  N   N11       1.0  0.56566  0.48922  0.83927  1.0000
  N   N12       1.0  0.84737  0.24223  0.24879  1.0000
  N   N13       1.0  0.79285  0.97172  0.6267900000000001  1.0000
  N   N14       1.0  0.36519  0.71617  0.40612  1.0000
  N   N15       1.0  0.52715  0.88537  0.63991  1.0000
  N   N16       1.0  0.85875  0.9436  0.37659  1.0000
  N   N17       1.0  0.93542  0.4896  0.33958000000000005  1.0000
  N   N18       1.0  0.65249  0.24254  0.7487200000000002  1.0000
  N   N19       1.0  0.29261  0.02815000000000005  0.8731800000000001  1.0000
  N   N20       1.0  0.86519  0.28414  0.09418000000000001  1.0000
  N   N21       1.0  0.02701  0.11459000000000001  0.8604000000000002  1.0000
  N   N22       1.0  0.35861  0.05613000000000001  0.12257000000000003  1.0000
  N   N23       1.0  0.43434  0.51079  0.16073  1.0000
  N   N24       1.0  0.15262999999999996  0.7577800000000001  0.7512100000000003  1.0000
  O   O1        1.0  0.20636  0.30574  0.5273  1.0000
  O   O2        1.0  0.2275  0.17945000000000003  0.5541700000000002  1.0000
  O   O3        1.0  0.99933  0.21885  0.59918  1.0000
  O   O4        1.0  0.93667  0.35092  0.654  1.0000
  O   O5        1.0  0.7092900000000001  0.7996500000000001  0.30612000000000006  1.0000
  O   O6        1.0  0.63794  0.66683  0.29671  1.0000
  O   O7        1.0  0.43957  0.23426  0.22149  1.0000
  O   O8        1.0  0.43457999999999997  0.37043  0.28585000000000005  1.0000
  O   O9        1.0  0.19453999999999996  0.34622  0.64936  1.0000
  O   O10       1.0  0.70408  0.69464  0.97275  1.0000
  O   O11       1.0  0.72933  0.8204300000000001  0.9458500000000001  1.0000
  O   O12       1.0  0.49806  0.78329  0.9010300000000002  1.0000
  O   O13       1.0  0.43874  0.65038  0.8459600000000002  1.0000
  O   O14       1.0  0.21026999999999998  0.20088  0.19404000000000002  1.0000
  O   O15       1.0  0.13733999999999993  0.33327  0.20309  1.0000
  O   O16       1.0  0.9417  0.76581  0.27852000000000005  1.0000
  O   O17       1.0  0.93737  0.62966  0.21420000000000006  1.0000
  O   O18       1.0  0.69379  0.65415  0.85103  1.0000
  O   O19       1.0  0.79363  0.69426  0.4727000000000001  1.0000
  O   O20       1.0  0.77249  0.82056  0.44583  1.0000
  O   O21       1.0  0.0006699999999999993  0.78116  0.4008300000000001  1.0000
  O   O22       1.0  0.06332  0.64909  0.346  1.0000
  O   O23       1.0  0.29071  0.20036  0.6938800000000002  1.0000
  O   O24       1.0  0.36206  0.33318000000000003  0.7032900000000001  1.0000
  O   O25       1.0  0.56043  0.76575  0.7785200000000001  1.0000
  O   O26       1.0  0.56542  0.62957  0.71415  1.0000
  O   O27       1.0  0.80546  0.65379  0.35064  1.0000
  O   O28       1.0  0.29591  0.30536  0.02725  1.0000
  O   O29       1.0  0.27067  0.17958  0.054160000000000014  1.0000
  O   O30       1.0  0.50194  0.21672  0.09897000000000002  1.0000
  O   O31       1.0  0.56126  0.34963000000000005  0.15404  1.0000
  O   O32       1.0  0.7897200000000001  0.79913  0.80596  1.0000
  O   O33       1.0  0.86266  0.66674  0.7969100000000001  1.0000
  O   O34       1.0  0.058299999999999984  0.2341900000000001  0.7214800000000001  1.0000
  O   O35       1.0  0.06263  0.37033999999999995  0.7858100000000001  1.0000
  O   O36       1.0  0.30621  0.34585  0.14898  1.0000
