data_image0
_chemical_formula_structural       Ni4H112C112N32
_chemical_formula_sum              "Ni4 H112 C112 N32"
_cell_length_a       12.9443
_cell_length_b       14.391230000000002
_cell_length_c       25.15077
_cell_angle_alpha    106.86636999999999
_cell_angle_beta     90.00228000000001
_cell_angle_gamma    90.00683

_space_group_name_H-M_alt    "P 1"
_space_group_IT_number       1

loop_
  _space_group_symop_operation_xyz
  'x, y, z'

loop_
  _atom_site_type_symbol
  _atom_site_label
  _atom_site_symmetry_multiplicity
  _atom_site_fract_x
  _atom_site_fract_y
  _atom_site_fract_z
  _atom_site_occupancy
  Ni  Ni1       1.0  0.8845799999999998  0.6230799999999997  0.7737  1.0000
  Ni  Ni2       1.0  0.38461  0.8768899999999996  0.7262199999999999  1.0000
  Ni  Ni3       1.0  0.11535999999999998  0.3769099999999999  0.22631999999999997  1.0000
  Ni  Ni4       1.0  0.61568  0.12294  0.27383  1.0000
  H   H1        1.0  0.10460999999999998  0.71741  0.62146  1.0000
  H   H2        1.0  0.04477  0.76464  0.73226  1.0000
  H   H3        1.0  0.8906299999999999  0.5084599999999999  0.64317  1.0000
  H   H4        1.0  0.1491  0.48403999999999997  0.55874  1.0000
  H   H5        1.0  0.79335  0.6068999999999998  0.5854  1.0000
  H   H6        1.0  0.76414  0.62083  0.51896  1.0000
  H   H7        1.0  0.8521  0.70135  0.56492  1.0000
  H   H8        1.0  0.11124  0.6586399999999998  0.80909  1.0000
  H   H9        1.0  0.16186999999999996  0.7893099999999997  0.9108  1.0000
  H   H10       1.0  0.85656  0.84278  0.8661199999999999  1.0000
  H   H11       1.0  0.77627  0.8588899999999998  0.95608  1.0000
  H   H12       1.0  0.8002099999999998  0.8567699999999998  0.024959999999999996  1.0000
  H   H13       1.0  0.8702599999999998  0.7783799999999997  0.96835  1.0000
  H   H14       1.0  0.13908  0.9823599999999998  0.9304699999999999  1.0000
  H   H15       1.0  0.005279999999999998  0.43330999999999986  0.77386  1.0000
  H   H16       1.0  0.83155  0.4276699999999999  0.91578  1.0000
  H   H17       1.0  0.8046399999999998  0.60513  0.8947499999999999  1.0000
  H   H18       1.0  0.9291  0.26880999999999994  0.7458499999999999  1.0000
  H   H19       1.0  0.09580999999999998  0.15541999999999992  0.89259  1.0000
  H   H20       1.0  0.09384999999999998  0.09774999999999986  0.6820199999999998  1.0000
  H   H21       1.0  0.9586599999999998  0.11608000000000002  0.6789499999999999  1.0000
  H   H22       1.0  0.007859999999999999  0.015880000000000016  0.69938  1.0000
  H   H23       1.0  0.027659999999999997  0.4088499999999998  0.9394499999999999  1.0000
  H   H24       1.0  0.06834  0.30583  0.95975  1.0000
  H   H25       1.0  0.9351799999999998  0.33177999999999996  0.95656  1.0000
  H   H26       1.0  0.24158999999999994  0.0671  0.73635  1.0000
  H   H27       1.0  0.05083  0.9580299999999998  0.8415899999999998  1.0000
  H   H28       1.0  0.21208999999999997  0.8292199999999997  0.8012  1.0000
  H   H29       1.0  0.60483  0.7826999999999997  0.87854  1.0000
  H   H30       1.0  0.5448299999999999  0.7354699999999997  0.7677399999999999  1.0000
  H   H31       1.0  0.39026  0.9912299999999999  0.85691  1.0000
  H   H32       1.0  0.64923  0.015610000000000037  0.94128  1.0000
  H   H33       1.0  0.293  0.8932499999999997  0.9147399999999999  1.0000
  H   H34       1.0  0.26406  0.8791299999999997  0.98117  1.0000
  H   H35       1.0  0.3519  0.79873  0.93508  1.0000
  H   H36       1.0  0.6115199999999998  0.8413299999999998  0.6908499999999999  1.0000
  H   H37       1.0  0.6620099999999999  0.71035  0.58918  1.0000
  H   H38       1.0  0.35669  0.6573099999999998  0.63402  1.0000
  H   H39       1.0  0.27647  0.64116  0.54414  1.0000
  H   H40       1.0  0.30001  0.6430799999999999  0.47521  1.0000
  H   H41       1.0  0.37028  0.72161  0.53168  1.0000
  H   H42       1.0  0.6389899999999998  0.51742  0.56959  1.0000
  H   H43       1.0  0.50553  0.06655000000000001  0.72609  1.0000
  H   H44       1.0  0.3313299999999999  0.07196000000000005  0.58428  1.0000
  H   H45       1.0  0.3051  0.8942799999999997  0.60512  1.0000
  H   H46       1.0  0.42879  0.23106999999999994  0.75415  1.0000
  H   H47       1.0  0.59609  0.3442  0.60747  1.0000
  H   H48       1.0  0.5938299999999999  0.40213  0.81797  1.0000
  H   H49       1.0  0.45865999999999996  0.38378000000000007  0.8210699999999999  1.0000
  H   H50       1.0  0.5078399999999998  0.4839599999999999  0.80061  1.0000
  H   H51       1.0  0.5274799999999998  0.09085000000000006  0.5606  1.0000
  H   H52       1.0  0.56799  0.19386999999999993  0.54024  1.0000
  H   H53       1.0  0.43489  0.16788000000000003  0.54355  1.0000
  H   H54       1.0  0.74138  0.4331999999999998  0.7637999999999999  1.0000
  H   H55       1.0  0.5505699999999999  0.54132  0.65818  1.0000
  H   H56       1.0  0.7115199999999998  0.6706199999999999  0.6985899999999999  1.0000
  H   H57       1.0  0.89542  0.2825299999999999  0.37857  1.0000
  H   H58       1.0  0.9551899999999999  0.23533999999999994  0.26775  1.0000
  H   H59       1.0  0.10924999999999999  0.49157  0.35683  1.0000
  H   H60       1.0  0.8508799999999999  0.5159299999999998  0.44127  1.0000
  H   H61       1.0  0.20662999999999998  0.39308999999999983  0.4146099999999999  1.0000
  H   H62       1.0  0.23584  0.37911999999999996  0.48104  1.0000
  H   H63       1.0  0.14787  0.29863  0.43507999999999997  1.0000
  H   H64       1.0  0.88873  0.34132999999999997  0.19094  1.0000
  H   H65       1.0  0.8381299999999999  0.21072999999999992  0.08918999999999999  1.0000
  H   H66       1.0  0.14340999999999998  0.15714999999999996  0.1339  1.0000
  H   H67       1.0  0.22371999999999995  0.14108999999999994  0.04392999999999999  1.0000
  H   H68       1.0  0.19983999999999993  0.14326  0.97507  1.0000
  H   H69       1.0  0.12979  0.22162999999999994  0.03167  1.0000
  H   H70       1.0  0.8609099999999997  0.017659999999999988  0.06952  1.0000
  H   H71       1.0  0.9947499999999998  0.56665  0.22612  1.0000
  H   H72       1.0  0.16849  0.5721899999999998  0.08417  1.0000
  H   H73       1.0  0.19537999999999994  0.39475999999999994  0.10523  1.0000
  H   H74       1.0  0.07094999999999999  0.7311099999999998  0.25413  1.0000
  H   H75       1.0  0.9043599999999998  0.8445899999999997  0.10739  1.0000
  H   H76       1.0  0.9063299999999999  0.9021699999999996  0.31795  1.0000
  H   H77       1.0  0.04152  0.8838399999999996  0.32098  1.0000
  H   H78       1.0  0.9922599999999998  0.9840499999999998  0.30058  1.0000
  H   H79       1.0  0.9723399999999999  0.59108  0.06055  1.0000
  H   H80       1.0  0.93169  0.69407  0.04021  1.0000
  H   H81       1.0  0.06482  0.66812  0.0434  1.0000
  H   H82       1.0  0.7586099999999999  0.9330199999999997  0.26369  1.0000
  H   H83       1.0  0.9493399999999997  0.04193  0.15832  1.0000
  H   H84       1.0  0.7881  0.17073999999999995  0.19876  1.0000
  H   H85       1.0  0.39512  0.21717999999999996  0.12149999999999998  1.0000
  H   H86       1.0  0.4553399999999999  0.26454  0.23228  1.0000
  H   H87       1.0  0.60988  0.00882999999999998  0.14312  1.0000
  H   H88       1.0  0.3507899999999999  0.9842999999999996  0.058789999999999995  1.0000
  H   H89       1.0  0.70705  0.10667999999999997  0.0853  1.0000
  H   H90       1.0  0.7359499999999998  0.12085  0.01888  1.0000
  H   H91       1.0  0.64808  0.20116999999999993  0.06496  1.0000
  H   H92       1.0  0.38857999999999987  0.15863999999999995  0.30913  1.0000
  H   H93       1.0  0.33806  0.2896799999999999  0.41077  1.0000
  H   H94       1.0  0.64343  0.3427099999999999  0.36606  1.0000
  H   H95       1.0  0.7235599999999999  0.3587999999999999  0.45592  1.0000
  H   H96       1.0  0.69996  0.3568099999999999  0.52483  1.0000
  H   H97       1.0  0.6296099999999998  0.2784  0.46833  1.0000
  H   H98       1.0  0.36098999999999987  0.48255999999999993  0.43041999999999997  1.0000
  H   H99       1.0  0.49465999999999993  0.93336  0.27382  1.0000
  H   H100      1.0  0.6685999999999999  0.92805  0.41575  1.0000
  H   H101      1.0  0.69492  0.10571999999999997  0.39491  1.0000
  H   H102      1.0  0.57123  0.7688299999999998  0.24583  1.0000
  H   H103      1.0  0.40387  0.6558199999999997  0.39255  1.0000
  H   H104      1.0  0.4060899999999999  0.59778  0.18205999999999997  1.0000
  H   H105      1.0  0.54128  0.6161199999999998  0.17892999999999998  1.0000
  H   H106      1.0  0.49211999999999995  0.51596  0.19942999999999997  1.0000
  H   H107      1.0  0.4726199999999999  0.9091499999999998  0.4394  1.0000
  H   H108      1.0  0.43207  0.8061399999999997  0.45977  1.0000
  H   H109      1.0  0.56518  0.8320699999999998  0.45642999999999995  1.0000
  H   H110      1.0  0.25855  0.5667799999999997  0.23624  1.0000
  H   H111      1.0  0.44943  0.45865  0.34182  1.0000
  H   H112      1.0  0.2885  0.32933  0.3014  1.0000
  C   C1        1.0  0.05258999999999999  0.6817199999999998  0.64295  1.0000
  C   C2        1.0  0.021649999999999996  0.70406  0.69746  1.0000
  C   C3        1.0  0.9395399999999998  0.5721099999999998  0.65349  1.0000
  C   C4        1.0  0.00034  0.5498599999999998  0.55643  1.0000
  C   C5        1.0  0.08477999999999998  0.4912199999999999  0.53235  1.0000
  C   C6        1.0  0.9139999999999998  0.55951  0.52411  1.0000
  C   C7        1.0  0.8259499999999997  0.62547  0.54943  1.0000
  C   C8        1.0  0.06615  0.71697  0.83587  1.0000
  C   C9        1.0  0.0925  0.7805199999999998  0.8860999999999999  1.0000
  C   C10       1.0  0.9307899999999998  0.80766  0.8642  1.0000
  C   C11       1.0  0.0015299999999999995  0.9187899999999998  0.9532  1.0000
  C   C12       1.0  0.9197699999999998  0.9281899999999997  0.99186  1.0000
  C   C13       1.0  0.8374699999999998  0.8515399999999996  0.9850099999999999  1.0000
  C   C14       1.0  0.07949  0.9902399999999998  0.96194  1.0000
  C   C15       1.0  0.95123  0.45653999999999983  0.8078999999999998  1.0000
  C   C16       1.0  0.86299  0.45545999999999986  0.88366  1.0000
  C   C17       1.0  0.85077  0.5431599999999999  0.87268  1.0000
  C   C18       1.0  0.9681999999999997  0.24395999999999993  0.7775299999999999  1.0000
  C   C19       1.0  0.96445  0.30346  0.83316  1.0000
  C   C20       1.0  0.009209999999999998  0.27133  0.87621  1.0000
  C   C21       1.0  0.05874999999999998  0.18136999999999995  0.8607299999999999  1.0000
  C   C22       1.0  0.06651  0.12462  0.80489  1.0000
  C   C23       1.0  0.01882  0.1546999999999999  0.76221  1.0000
  C   C24       1.0  0.019779999999999996  0.09287999999999987  0.7024999999999999  1.0000
  C   C25       1.0  0.010159999999999997  0.3326099999999998  0.9360499999999999  1.0000
  C   C26       1.0  0.21270999999999995  0.01844999999999988  0.75855  1.0000
  C   C27       1.0  0.11503999999999998  0.9610599999999999  0.81468  1.0000
  C   C28       1.0  0.19471999999999998  0.8978899999999997  0.79386  1.0000
  C   C29       1.0  0.5525799999999998  0.8182399999999999  0.85706  1.0000
  C   C30       1.0  0.5216  0.7959599999999999  0.80256  1.0000
  C   C31       1.0  0.4393199999999999  0.9276999999999997  0.84659  1.0000
  C   C32       1.0  0.5002799999999998  0.9500199999999998  0.94361  1.0000
  C   C33       1.0  0.58484  0.008550000000000028  0.96766  1.0000
  C   C34       1.0  0.4138799999999999  0.9405199999999998  0.97594  1.0000
  C   C35       1.0  0.32575  0.8745899999999998  0.9506499999999999  1.0000
  C   C36       1.0  0.5664399999999999  0.78289  0.66411  1.0000
  C   C37       1.0  0.5926199999999999  0.7193199999999998  0.61389  1.0000
  C   C38       1.0  0.4309599999999999  0.6923399999999997  0.63588  1.0000
  C   C39       1.0  0.5015  0.5811  0.54685  1.0000
  C   C40       1.0  0.4197799999999999  0.5717899999999998  0.50817  1.0000
  C   C41       1.0  0.33749999999999997  0.6484199999999999  0.51511  1.0000
  C   C42       1.0  0.57947  0.50968  0.53809  1.0000
  C   C43       1.0  0.45137  0.04327  0.69209  1.0000
  C   C44       1.0  0.36292  0.04422999999999999  0.61638  1.0000
  C   C45       1.0  0.35103  0.95641  0.62724  1.0000
  C   C46       1.0  0.46799  0.25587999999999983  0.7224799999999999  1.0000
  C   C47       1.0  0.46422  0.19638  0.66686  1.0000
  C   C48       1.0  0.50913  0.22838999999999995  0.6238  1.0000
  C   C49       1.0  0.55884  0.3182699999999999  0.63928  1.0000
  C   C50       1.0  0.56645  0.3750999999999999  0.69511  1.0000
  C   C51       1.0  0.5186999999999999  0.3450999999999999  0.73779  1.0000
  C   C52       1.0  0.5197499999999999  0.4069699999999999  0.79749  1.0000
  C   C53       1.0  0.5099399999999998  0.16707999999999998  0.56399  1.0000
  C   C54       1.0  0.71243  0.4817099999999999  0.74152  1.0000
  C   C55       1.0  0.6148199999999999  0.53851  0.68512  1.0000
  C   C56       1.0  0.6943099999999999  0.60194  0.70596  1.0000
  C   C57       1.0  0.94739  0.31824999999999987  0.35707  1.0000
  C   C58       1.0  0.97828  0.29593999999999987  0.30255  1.0000
  C   C59       1.0  0.06037  0.4279  0.34651999999999994  1.0000
  C   C60       1.0  0.9996399999999999  0.45011999999999985  0.4435799999999999  1.0000
  C   C61       1.0  0.9152099999999997  0.5087599999999998  0.46766  1.0000
  C   C62       1.0  0.08597999999999997  0.44045  0.4759  1.0000
  C   C63       1.0  0.17403  0.3744999999999999  0.45057  1.0000
  C   C64       1.0  0.9338299999999998  0.28297999999999995  0.16413  1.0000
  C   C65       1.0  0.90752  0.2195199999999999  0.11389999999999999  1.0000
  C   C66       1.0  0.06918999999999999  0.19229999999999994  0.13582  1.0000
  C   C67       1.0  0.99848  0.08123  0.0468  1.0000
  C   C68       1.0  0.08024  0.07182999999999998  0.00813  1.0000
  C   C69       1.0  0.16254  0.14845999999999995  0.015  1.0000
  C   C70       1.0  0.92051  0.0098  0.03805  1.0000
  C   C71       1.0  0.04877999999999999  0.5433799999999999  0.19207  1.0000
  C   C72       1.0  0.13703  0.5444299999999997  0.11631  1.0000
  C   C73       1.0  0.14925  0.4567599999999999  0.12729  1.0000
  C   C74       1.0  0.03187  0.7559599999999997  0.22244  1.0000
  C   C75       1.0  0.03559999999999999  0.69646  0.1668  1.0000
  C   C76       1.0  0.99087  0.7286  0.12375  1.0000
  C   C77       1.0  0.9414099999999997  0.8185799999999998  0.13922  1.0000
  C   C78       1.0  0.9336399999999998  0.8753199999999998  0.19505999999999998  1.0000
  C   C79       1.0  0.9812599999999999  0.8452199999999997  0.23774999999999996  1.0000
  C   C80       1.0  0.9803599999999998  0.9070499999999998  0.29745  1.0000
  C   C81       1.0  0.98986  0.6672999999999998  0.06392  1.0000
  C   C82       1.0  0.7875599999999998  0.9815599999999998  0.24143999999999996  1.0000
  C   C83       1.0  0.8851399999999998  0.03888999999999997  0.18523999999999996  1.0000
  C   C84       1.0  0.8054999999999999  0.1021  0.2061  1.0000
  C   C85       1.0  0.44743  0.18167999999999995  0.14298  1.0000
  C   C86       1.0  0.47852999999999996  0.20403999999999994  0.19746999999999998  1.0000
  C   C87       1.0  0.56082  0.07234  0.15346  1.0000
  C   C88       1.0  0.49973  0.04984999999999999  0.056429999999999994  1.0000
  C   C89       1.0  0.4151399999999999  0.99138  0.03238  1.0000
  C   C90       1.0  0.58612  0.05938  0.0241  1.0000
  C   C91       1.0  0.67425  0.12531999999999993  0.049389999999999996  1.0000
  C   C92       1.0  0.43369999999999986  0.21704999999999994  0.33589  1.0000
  C   C93       1.0  0.40746  0.28067  0.38609  1.0000
  C   C94       1.0  0.5691399999999999  0.30771  0.36414  1.0000
  C   C95       1.0  0.4984899999999999  0.4188599999999999  0.45318  1.0000
  C   C96       1.0  0.58022  0.4281799999999999  0.49185  1.0000
  C   C97       1.0  0.66249  0.3515399999999999  0.48493  1.0000
  C   C98       1.0  0.42053999999999997  0.4902999999999999  0.46192  1.0000
  C   C99       1.0  0.54876  0.9566499999999998  0.30786  1.0000
  C   C100      1.0  0.6370899999999998  0.9557399999999998  0.38364  1.0000
  C   C101      1.0  0.6490599999999999  0.04354999999999999  0.37276  1.0000
  C   C102      1.0  0.53202  0.74408  0.27752  1.0000
  C   C103      1.0  0.53579  0.8036099999999998  0.33313999999999994  1.0000
  C   C104      1.0  0.49086999999999986  0.7716099999999998  0.37619  1.0000
  C   C105      1.0  0.44113999999999987  0.6817499999999997  0.36073999999999995  1.0000
  C   C106      1.0  0.4335199999999999  0.62489  0.30492  1.0000
  C   C107      1.0  0.48129  0.6548599999999999  0.26222  1.0000
  C   C108      1.0  0.4801999999999999  0.5929599999999999  0.20253  1.0000
  C   C109      1.0  0.49011999999999994  0.8329099999999998  0.43601  1.0000
  C   C110      1.0  0.28752  0.5182699999999998  0.25851  1.0000
  C   C111      1.0  0.38515999999999995  0.4614799999999998  0.31491  1.0000
  C   C112      1.0  0.30568999999999996  0.3980199999999999  0.29405  1.0000
  N   N1        1.0  0.25551  0.9337499999999997  0.75863  1.0000
  N   N2        1.0  0.12643999999999997  0.03776000000000004  0.79201  1.0000
  N   N3        1.0  0.9272499999999999  0.39942  0.84215  1.0000
  N   N4        1.0  0.90549  0.5433899999999998  0.82539  1.0000
  N   N5        1.0  0.9512099999999998  0.6351  0.70399  1.0000
  N   N6        1.0  7e-05  0.59748  0.61484  1.0000
  N   N7        1.0  0.9652399999999998  0.73351  0.82249  1.0000
  N   N8        1.0  0.00608  0.83843  0.90479  1.0000
  N   N9        1.0  0.75511  0.56642  0.74134  1.0000
  N   N10       1.0  0.6262999999999999  0.4620199999999999  0.7079499999999999  1.0000
  N   N11       1.0  0.4270599999999999  0.10040999999999999  0.6579  1.0000
  N   N12       1.0  0.40584999999999993  0.9563099999999998  0.67452  1.0000
  N   N13       1.0  0.45104  0.8648099999999999  0.79606  1.0000
  N   N14       1.0  0.4999499999999999  0.9023799999999998  0.8852  1.0000
  N   N15       1.0  0.4655399999999999  0.7664799999999998  0.67756  1.0000
  N   N16       1.0  0.50613  0.6614799999999998  0.59524  1.0000
  N   N17       1.0  0.7447599999999998  0.06626  0.24137  1.0000
  N   N18       1.0  0.87375  0.96219  0.20792  1.0000
  N   N19       1.0  0.07275  0.60048  0.1578  1.0000
  N   N20       1.0  0.09454  0.4565399999999999  0.17459  1.0000
  N   N21       1.0  0.04868999999999999  0.36492  0.29601  1.0000
  N   N22       1.0  0.9998999999999999  0.4024899999999999  0.38517  1.0000
  N   N23       1.0  0.034719999999999994  0.26643  0.17754  1.0000
  N   N24       1.0  0.99392  0.16159  0.09519999999999999  1.0000
  N   N25       1.0  0.24486999999999995  0.4335399999999999  0.25868  1.0000
  N   N26       1.0  0.3736499999999999  0.53798  0.29208  1.0000
  N   N27       1.0  0.57299  0.8995399999999998  0.34208  1.0000
  N   N28       1.0  0.5942899999999999  0.04359999999999997  0.32545  1.0000
  N   N29       1.0  0.54916  0.13524999999999998  0.20397  1.0000
  N   N30       1.0  0.50007  0.09753999999999997  0.11485  1.0000
  N   N31       1.0  0.53463  0.2334799999999999  0.32248  1.0000
  N   N32       1.0  0.4939199999999999  0.3385399999999999  0.40476  1.0000
