data_image0
_chemical_formula_structural       Na8Zn4H64C112S8O48
_chemical_formula_sum              "Na8 Zn4 H64 C112 S8 O48"
_cell_length_a       5.15808
_cell_length_b       25.20126
_cell_length_c       26.80462
_cell_angle_alpha    116.16202
_cell_angle_beta     89.94535000000002
_cell_angle_gamma    90.02774

_space_group_name_H-M_alt    "P 1"
_space_group_IT_number       1

loop_
  _space_group_symop_operation_xyz
  'x, y, z'

loop_
  _atom_site_type_symbol
  _atom_site_label
  _atom_site_symmetry_multiplicity
  _atom_site_fract_x
  _atom_site_fract_y
  _atom_site_fract_z
  _atom_site_occupancy
  Na  Na1       1.0  0.7924099999999998  0.35187  0.57294  1.0000
  Na  Na2       1.0  0.20788  0.7723700000000002  0.54291  1.0000
  Na  Na3       1.0  0.2984  0.64812  0.92457  1.0000
  Na  Na4       1.0  0.7143  0.22808  0.95719  1.0000
  Na  Na5       1.0  0.20751  0.64805  0.42702  1.0000
  Na  Na6       1.0  0.7921299999999999  0.22763000000000005  0.45706  1.0000
  Na  Na7       1.0  0.70163  0.35187  0.07543  1.0000
  Na  Na8       1.0  0.28568  0.77191  0.04281000000000001  1.0000
  Zn  Zn1       1.0  0.75983  0.7439900000000002  0.45737  1.0000
  Zn  Zn2       1.0  0.26759  0.25449  0.04194  1.0000
  Zn  Zn3       1.0  0.24015  0.25591  0.54253  1.0000
  Zn  Zn4       1.0  0.73237  0.7455100000000001  0.95805  1.0000
  H   H1        1.0  0.87542  0.84973  0.43595000000000006  1.0000
  H   H2        1.0  0.72713  0.89732  0.37714  1.0000
  H   H3        1.0  0.38546  0.8260400000000002  0.26966  1.0000
  H   H4        1.0  0.5274  0.7745400000000001  0.32639  1.0000
  H   H5        1.0  0.70879  0.9915400000000001  0.37536  1.0000
  H   H6        1.0  0.85605  0.09512  0.43609  1.0000
  H   H7        1.0  0.51293  0.07212  0.33048  1.0000
  H   H8        1.0  0.38394  0.9660500000000002  0.27166  1.0000
  H   H9        1.0  0.30814  0.6707  0.57285  1.0000
  H   H10       1.0  0.21287  0.6026  0.6143  1.0000
  H   H11       1.0  0.92329  0.50863  0.54581  1.0000
  H   H12       1.0  0.02078  0.5777800000000001  0.50456  1.0000
  H   H13       1.0  0.23934999999999998  0.59328  0.6970600000000001  1.0000
  H   H14       1.0  0.367  0.6495600000000001  0.79693  1.0000
  H   H15       1.0  0.0433  0.5417400000000002  0.76865  1.0000
  H   H16       1.0  0.9311799999999999  0.48570000000000013  0.66828  1.0000
  H   H17       1.0  0.3746  0.15027  0.06428  1.0000
  H   H18       1.0  0.22633999999999999  0.10251  0.12293  1.0000
  H   H19       1.0  0.88478  0.17390000000000003  0.23031  1.0000
  H   H20       1.0  0.02694  0.2255000000000001  0.17355000000000007  1.0000
  H   H21       1.0  0.20778999999999997  0.008970000000000011  0.12489000000000003  1.0000
  H   H22       1.0  0.35268  0.90533  0.06404  1.0000
  H   H23       1.0  0.01015  0.92774  0.1691  1.0000
  H   H24       1.0  0.88347  0.033870000000000046  0.22816000000000006  1.0000
  H   H25       1.0  0.80791  0.32976  0.92759  1.0000
  H   H26       1.0  0.7155  0.39742  0.88554  1.0000
  H   H27       1.0  0.4266400000000001  0.4912000000000001  0.95388  1.0000
  H   H28       1.0  0.51998  0.42254  0.99588  1.0000
  H   H29       1.0  0.74198  0.4062300000000001  0.80246  1.0000
  H   H30       1.0  0.86656  0.3505900000000001  0.7022100000000001  1.0000
  H   H31       1.0  0.54566  0.45785  0.73038  1.0000
  H   H32       1.0  0.43512000000000006  0.5134000000000001  0.8311  1.0000
  H   H33       1.0  0.12459999999999999  0.15025000000000005  0.56405  1.0000
  H   H34       1.0  0.27287  0.10267000000000001  0.62287  1.0000
  H   H35       1.0  0.6145500000000002  0.17395  0.73035  1.0000
  H   H36       1.0  0.47262999999999994  0.22546000000000005  0.67362  1.0000
  H   H37       1.0  0.29117  0.008450000000000006  0.62464  1.0000
  H   H38       1.0  0.14395  0.9048800000000002  0.56391  1.0000
  H   H39       1.0  0.4870300000000001  0.9278700000000002  0.66952  1.0000
  H   H40       1.0  0.61604  0.03393000000000001  0.72834  1.0000
  H   H41       1.0  0.6919  0.3293000000000001  0.42712  1.0000
  H   H42       1.0  0.7871299999999999  0.39741000000000015  0.3857000000000001  1.0000
  H   H43       1.0  0.07667  0.49138000000000004  0.45421  1.0000
  H   H44       1.0  0.97918  0.42221  0.49544  1.0000
  H   H45       1.0  0.7606  0.40672  0.30294  1.0000
  H   H46       1.0  0.63298  0.35044000000000003  0.20307  1.0000
  H   H47       1.0  0.95666  0.45825  0.23134  1.0000
  H   H48       1.0  0.06878000000000002  0.5142900000000001  0.33171  1.0000
  H   H49       1.0  0.62537  0.84973  0.9357200000000001  1.0000
  H   H50       1.0  0.7736399999999999  0.8974900000000002  0.8770700000000001  1.0000
  H   H51       1.0  0.11520000000000001  0.8261  0.7696900000000002  1.0000
  H   H52       1.0  0.97304  0.7745  0.82645  1.0000
  H   H53       1.0  0.7921899999999998  0.99102  0.8751  1.0000
  H   H54       1.0  0.6473  0.09466000000000006  0.9359600000000002  1.0000
  H   H55       1.0  0.9898399999999999  0.07225999999999999  0.8309000000000001  1.0000
  H   H56       1.0  0.11651000000000002  0.9661300000000002  0.77184  1.0000
  H   H57       1.0  0.19204  0.6702400000000001  0.07241  1.0000
  H   H58       1.0  0.28449  0.6025800000000001  0.11445  1.0000
  H   H59       1.0  0.57334  0.50879  0.04611  1.0000
  H   H60       1.0  0.47996  0.5774600000000001  0.00411  1.0000
  H   H61       1.0  0.25791  0.5937500000000002  0.19754  1.0000
  H   H62       1.0  0.13351  0.64938  0.29775  1.0000
  H   H63       1.0  0.45429  0.54209  0.26957  1.0000
  H   H64       1.0  0.56508  0.4865800000000001  0.16885  1.0000
  C   C1        1.0  0.31854  0.7813  0.42005  1.0000
  C   C2        1.0  0.20778  0.8082900000000002  0.38485  1.0000
  C   C3        1.0  0.98349  0.84276  0.39887  1.0000
  C   C4        1.0  0.8970400000000001  0.86911  0.36556  1.0000
  C   C5        1.0  0.04304  0.86174  0.3188  1.0000
  C   C6        1.0  0.27036  0.8285400000000002  0.30468  1.0000
  C   C7        1.0  0.35391  0.8017500000000002  0.33761000000000013  1.0000
  C   C8        1.0  0.03723  0.9738  0.31938  1.0000
  C   C9        1.0  0.88254  0.009180000000000042  0.36533000000000004  1.0000
  C   C10       1.0  0.96861  0.06632000000000002  0.40001  1.0000
  C   C11       1.0  0.19930000000000003  0.08785000000000005  0.38850000000000007  1.0000
  C   C12       1.0  0.3465  0.05256000000000001  0.34097  1.0000
  C   C13       1.0  0.26532  0.9949100000000002  0.30669  1.0000
  C   C14       1.0  0.29446  0.14896000000000006  0.42547  1.0000
  C   C15       1.0  0.75204  0.67253  0.51464  1.0000
  C   C16       1.0  0.67415  0.6299  0.53734  1.0000
  C   C17       1.0  0.44636000000000003  0.6361  0.56751  1.0000
  C   C18       1.0  0.38609  0.5963800000000001  0.58938  1.0000
  C   C19       1.0  0.55754  0.5494800000000001  0.57939  1.0000
  C   C20       1.0  0.78723  0.54325  0.55017  1.0000
  C   C21       1.0  0.8467  0.58342  0.52909  1.0000
  C   C22       1.0  0.57571  0.53484  0.67698  1.0000
  C   C23       1.0  0.41311  0.5811700000000001  0.7125100000000001  1.0000
  C   C24       1.0  0.48786000000000007  0.6139200000000002  0.76801  1.0000
  C   C25       1.0  0.71768  0.60072  0.78758  1.0000
  C   C26       1.0  0.87393  0.5534000000000001  0.7517100000000001  1.0000
  C   C27       1.0  0.8039599999999999  0.52065  0.69609  1.0000
  C   C28       1.0  0.8057500000000001  0.63506  0.84677  1.0000
  C   C29       1.0  0.8177599999999999  0.21849000000000005  0.07966  1.0000
  C   C30       1.0  0.70709  0.19175  0.11521000000000002  1.0000
  C   C31       1.0  0.48279  0.15722000000000005  0.10131  1.0000
  C   C32       1.0  0.39608  0.13084  0.13464  1.0000
  C   C33       1.0  0.54171  0.13837  0.18147  1.0000
  C   C34       1.0  0.76922  0.17154  0.19544  1.0000
  C   C35       1.0  0.85317  0.19831000000000001  0.16242  1.0000
  C   C36       1.0  0.53572  0.026509999999999995  0.18077  1.0000
  C   C37       1.0  0.38133  0.9911500000000002  0.13474  1.0000
  C   C38       1.0  0.46618999999999994  0.9338600000000002  0.10007  1.0000
  C   C39       1.0  0.69623  0.9122100000000002  0.11168  1.0000
  C   C40       1.0  0.8436500000000001  0.94754  0.15901  1.0000
  C   C41       1.0  0.76367  0.005270000000000015  0.19329  1.0000
  C   C42       1.0  0.7915000000000001  0.8510500000000002  0.07518  1.0000
  C   C43       1.0  0.25405  0.32811000000000007  0.98656  1.0000
  C   C44       1.0  0.17397  0.37024  0.96316  1.0000
  C   C45       1.0  0.9472300000000001  0.36408999999999997  0.93268  1.0000
  C   C46       1.0  0.8882700000000001  0.4037  0.91055  1.0000
  C   C47       1.0  0.05983  0.4505500000000001  0.9203100000000001  1.0000
  C   C48       1.0  0.28935  0.45672  0.94958  1.0000
  C   C49       1.0  0.34691  0.41672000000000015  0.9710500000000001  1.0000
  C   C50       1.0  0.07802  0.4644700000000001  0.8222  1.0000
  C   C51       1.0  0.9153400000000002  0.41823000000000016  0.7867200000000001  1.0000
  C   C52       1.0  0.98908  0.38583000000000006  0.7311  1.0000
  C   C53       1.0  0.21859999999999996  0.3992100000000001  0.71152  1.0000
  C   C54       1.0  0.37647  0.44616000000000017  0.7474600000000001  1.0000
  C   C55       1.0  0.30707  0.47867  0.80319  1.0000
  C   C56       1.0  0.30435  0.36531  0.6522  1.0000
  C   C57       1.0  0.68139  0.21869  0.57993  1.0000
  C   C58       1.0  0.79216  0.19169000000000003  0.61514  1.0000
  C   C59       1.0  0.01649  0.15723  0.60113  1.0000
  C   C60       1.0  0.10298  0.13089000000000006  0.63445  1.0000
  C   C61       1.0  0.95697  0.13825000000000012  0.6812000000000001  1.0000
  C   C62       1.0  0.72965  0.17145  0.69532  1.0000
  C   C63       1.0  0.64609  0.19824000000000003  0.66238  1.0000
  C   C64       1.0  0.96276  0.02619  0.68062  1.0000
  C   C65       1.0  0.11743000000000002  0.99081  0.63467  1.0000
  C   C66       1.0  0.03137  0.9336700000000002  0.59999  1.0000
  C   C67       1.0  0.8006900000000001  0.9121400000000002  0.61149  1.0000
  C   C68       1.0  0.65347  0.9474200000000003  0.65902  1.0000
  C   C69       1.0  0.73466  0.00508000000000004  0.6933000000000001  1.0000
  C   C70       1.0  0.70551  0.8510200000000002  0.57451  1.0000
  C   C71       1.0  0.24797  0.3274200000000001  0.48532  1.0000
  C   C72       1.0  0.32577  0.37007  0.46263  1.0000
  C   C73       1.0  0.55357  0.3638900000000001  0.43247  1.0000
  C   C74       1.0  0.61392  0.40361000000000014  0.41062000000000004  1.0000
  C   C75       1.0  0.44251000000000007  0.45051  0.42061  1.0000
  C   C76       1.0  0.21278  0.4567600000000001  0.44983  1.0000
  C   C77       1.0  0.15324  0.41657  0.4709  1.0000
  C   C78       1.0  0.4243199999999999  0.46515000000000006  0.32301  1.0000
  C   C79       1.0  0.58688  0.41882  0.28747  1.0000
  C   C80       1.0  0.51208  0.38608000000000003  0.23198000000000002  1.0000
  C   C81       1.0  0.28226  0.39928000000000013  0.21241  1.0000
  C   C82       1.0  0.12603  0.4466000000000002  0.24829  1.0000
  C   C83       1.0  0.19605  0.4793500000000001  0.30391  1.0000
  C   C84       1.0  0.19423000000000004  0.3649400000000001  0.15323  1.0000
  C   C85       1.0  0.18223  0.78151  0.92034  1.0000
  C   C86       1.0  0.29289  0.80824  0.88479  1.0000
  C   C87       1.0  0.5171800000000001  0.8427800000000001  0.8986800000000001  1.0000
  C   C88       1.0  0.6039  0.86916  0.8653600000000001  1.0000
  C   C89       1.0  0.45827999999999997  0.86162  0.8185300000000002  1.0000
  C   C90       1.0  0.23076000000000005  0.8284500000000001  0.80456  1.0000
  C   C91       1.0  0.14681  0.80169  0.83758  1.0000
  C   C92       1.0  0.46425999999999995  0.9734800000000001  0.81923  1.0000
  C   C93       1.0  0.61865  0.008849999999999959  0.86526  1.0000
  C   C94       1.0  0.53379  0.06613000000000005  0.89993  1.0000
  C   C95       1.0  0.30375  0.08779000000000005  0.88832  1.0000
  C   C96       1.0  0.15634  0.05246000000000008  0.8409900000000001  1.0000
  C   C97       1.0  0.23631000000000002  0.9947200000000003  0.8067100000000001  1.0000
  C   C98       1.0  0.20847  0.1489400000000001  0.9248200000000001  1.0000
  C   C99       1.0  0.74593  0.67188  0.013430000000000001  1.0000
  C   C100      1.0  0.826  0.6297600000000001  0.03684  1.0000
  C   C101      1.0  0.05273  0.63591  0.06731  1.0000
  C   C102      1.0  0.11173  0.5962900000000001  0.08943000000000001  1.0000
  C   C103      1.0  0.9402200000000001  0.54942  0.07966  1.0000
  C   C104      1.0  0.71065  0.54327  0.0504  1.0000
  C   C105      1.0  0.65305  0.58328  0.028940000000000004  1.0000
  C   C106      1.0  0.92205  0.5355  0.17778000000000002  1.0000
  C   C107      1.0  0.08461  0.58174  0.21327  1.0000
  C   C108      1.0  0.01082  0.61416  0.26888  1.0000
  C   C109      1.0  0.78125  0.6008  0.28848  1.0000
  C   C110      1.0  0.62347  0.5538200000000001  0.25251  1.0000
  C   C111      1.0  0.69303  0.52131  0.19678  1.0000
  C   C112      1.0  0.69572  0.6347  0.34784  1.0000
  S   S1        1.0  0.9416399999999999  0.89902  0.27871  1.0000
  S   S2        1.0  0.48618  0.49733  0.60558  1.0000
  S   S3        1.0  0.43849999999999995  0.10133  0.22174  1.0000
  S   S4        1.0  0.9873899999999999  0.5022200000000002  0.8934900000000002  1.0000
  S   S5        1.0  0.05835  0.10097000000000012  0.7213000000000002  1.0000
  S   S6        1.0  0.51395  0.5026700000000001  0.39442000000000005  1.0000
  S   S7        1.0  0.56149  0.8986700000000004  0.7782600000000002  1.0000
  S   S8        1.0  0.01273  0.49775000000000014  0.10647000000000001  1.0000
  O   O1        1.0  0.19122  0.7632600000000002  0.4507400000000001  1.0000
  O   O2        1.0  0.56434  0.77761  0.4157  1.0000
  O   O3        1.0  0.49484  0.16627  0.41087  1.0000
  O   O4        1.0  0.15688  0.17972  0.46981  1.0000
  O   O5        1.0  0.08389  0.8743  0.22633  1.0000
  O   O6        1.0  0.65851  0.89948  0.28045  1.0000
  O   O7        1.0  0.58392  0.6923800000000002  0.49131000000000014  1.0000
  O   O8        1.0  0.20371  0.49269  0.60584  1.0000
  O   O9        1.0  0.64634  0.4448400000000001  0.57522  1.0000
  O   O10       1.0  0.64509  0.6737100000000001  0.8809400000000002  1.0000
  O   O11       1.0  0.02465  0.62223  0.85803  1.0000
  O   O12       1.0  0.9889599999999998  0.6858000000000001  0.51853  1.0000
  O   O13       1.0  0.6884  0.23713000000000006  0.04959  1.0000
  O   O14       1.0  0.06375  0.22089  0.0829  1.0000
  O   O15       1.0  0.99015  0.83364  0.09024000000000001  1.0000
  O   O16       1.0  0.65379  0.8204900000000003  0.03082  1.0000
  O   O17       1.0  0.57752  0.12646  0.27449  1.0000
  O   O18       1.0  0.15499  0.10040000000000003  0.21921  1.0000
  O   O19       1.0  0.08658  0.30423  0.006430000000000002  1.0000
  O   O20       1.0  0.7058  0.50756  0.89394  1.0000
  O   O21       1.0  0.15087  0.5545100000000001  0.9230200000000001  1.0000
  O   O22       1.0  0.1406  0.32775  0.61788  1.0000
  O   O23       1.0  0.52527  0.3773100000000001  0.64112  1.0000
  O   O24       1.0  0.49421000000000004  0.31912  0.9864600000000001  1.0000
  O   O25       1.0  0.80873  0.23672999999999997  0.54924  1.0000
  O   O26       1.0  0.43558  0.22238000000000005  0.5843  1.0000
  O   O27       1.0  0.50512  0.83374  0.58914  1.0000
  O   O28       1.0  0.84301  0.82025  0.53016  1.0000
  O   O29       1.0  0.91611  0.1257  0.77368  1.0000
  O   O30       1.0  0.34148  0.10052000000000008  0.71956  1.0000
  O   O31       1.0  0.41616  0.30769  0.50874  1.0000
  O   O32       1.0  0.79641  0.50733  0.39414000000000005  1.0000
  O   O33       1.0  0.35351  0.5551300000000002  0.42478000000000005  1.0000
  O   O34       1.0  0.3549  0.3263  0.11906000000000001  1.0000
  O   O35       1.0  0.9753500000000002  0.37777  0.14196  1.0000
  O   O36       1.0  0.01115  0.31405  0.48135  1.0000
  O   O37       1.0  0.31159  0.7628700000000003  0.95041  1.0000
  O   O38       1.0  0.9362500000000001  0.7791100000000001  0.9171  1.0000
  O   O39       1.0  0.009829999999999998  0.16636  0.90976  1.0000
  O   O40       1.0  0.34616  0.1795100000000001  0.96918  1.0000
  O   O41       1.0  0.42246  0.8735400000000001  0.7255100000000001  1.0000
  O   O42       1.0  0.84499  0.89959  0.7807800000000001  1.0000
  O   O43       1.0  0.91339  0.69577  0.9935800000000001  1.0000
  O   O44       1.0  0.29432  0.4923900000000001  0.10600000000000001  1.0000
  O   O45       1.0  0.84916  0.4454800000000002  0.07694  1.0000
  O   O46       1.0  0.8596499999999999  0.6722600000000001  0.3821100000000001  1.0000
  O   O47       1.0  0.47484  0.62272  0.35898  1.0000
  O   O48       1.0  0.50575  0.68086  0.01352  1.0000
