data_image0
_chemical_formula_structural       La12H80C144O76
_chemical_formula_sum              "La12 H80 C144 O76"
_cell_length_a       11.0126
_cell_length_b       17.28769
_cell_length_c       29.75562
_cell_angle_alpha    86.92469
_cell_angle_beta     79.43655000000001
_cell_angle_gamma    73.89814

_symmetry_space_group_name_H-M    'P 1'
_symmetry_Int_Tables_number       1

loop_
  _symmetry_equiv_pos_as_xyz
  'x,y,z'

loop_
  _atom_site_type_symbol
  _atom_site_label
  _atom_site_symmetry_multiplicity
  _atom_site_fract_x
  _atom_site_fract_y
  _atom_site_fract_z
  _atom_site_occupancy
  La  La1       1.0  0.24249999999999997  0.28201  0.6265400000000002  1.0000
  La  La2       1.0  0.55901  0.38851  0.97077  1.0000
  La  La3       1.0  0.11554000000000006  0.49914  0.68624  1.0000
  La  La4       1.0  0.5444600000000002  0.10952000000000003  0.96804  1.0000
  La  La5       1.0  0.10630999999999999  0.80119  0.70634  1.0000
  La  La6       1.0  0.19054000000000004  0.014529999999999998  0.64839  1.0000
  La  La7       1.0  0.7575  0.71799  0.37346  1.0000
  La  La8       1.0  0.44097999999999976  0.6115  0.029220000000000006  1.0000
  La  La9       1.0  0.8844499999999997  0.50086  0.3137500000000001  1.0000
  La  La10      1.0  0.4555300000000001  0.89049  0.03196000000000001  1.0000
  La  La11      1.0  0.8936800000000001  0.19881  0.29366  1.0000
  La  La12      1.0  0.80945  0.9854700000000001  0.35160000000000013  1.0000
  H   H1        1.0  0.9981299999999999  0.26433  0.9379000000000002  1.0000
  H   H2        1.0  0.20291999999999988  0.21021  0.9686500000000002  1.0000
  H   H3        1.0  0.045450000000000004  0.03305  0.04642  1.0000
  H   H4        1.0  0.84293  0.08428  0.01392  1.0000
  H   H5        1.0  0.4724599999999999  0.0023599999999999993  0.6974800000000001  1.0000
  H   H6        1.0  0.66757  0.9394  0.73274  1.0000
  H   H7        1.0  0.88075  0.07562  0.64124  1.0000
  H   H8        1.0  0.6854699999999999  0.1401  0.60732  1.0000
  H   H9        1.0  0.67763  0.62016  0.7179  1.0000
  H   H10       1.0  0.46607000000000004  0.68459  0.6929800000000003  1.0000
  H   H11       1.0  0.60995  0.88083  0.63387  1.0000
  H   H12       1.0  0.8184899999999999  0.81899  0.6607700000000002  1.0000
  H   H13       1.0  0.21462999999999988  0.84567  0.8319300000000002  1.0000
  H   H14       1.0  0.28383  0.86058  0.90595  1.0000
  H   H15       1.0  0.44266999999999995  0.05138  0.84728  1.0000
  H   H16       1.0  0.3714799999999999  0.03744  0.7735100000000003  1.0000
  H   H17       1.0  0.06096999999999995  0.23069  0.4156800000000001  1.0000
  H   H18       1.0  0.13948  0.24982  0.48713  1.0000
  H   H19       1.0  0.9564799999999999  0.07672  0.5567500000000002  1.0000
  H   H20       1.0  0.87774  0.05779  0.4853400000000001  1.0000
  H   H21       1.0  0.61084  0.27537  0.63118  1.0000
  H   H22       1.0  0.8309400000000001  0.25227  0.6500300000000002  1.0000
  H   H23       1.0  0.7463200000000001  0.5036  0.6812000000000002  1.0000
  H   H24       1.0  0.5258399999999998  0.52645  0.6623800000000002  1.0000
  H   H25       1.0  0.58816  0.29242  0.13607  1.0000
  H   H26       1.0  0.6953  0.51256  0.10177000000000003  1.0000
  H   H27       1.0  0.665  0.2866  0.21053  1.0000
  H   H28       1.0  0.78148  0.50281  0.17476000000000003  1.0000
  H   H29       1.0  0.45839  0.38892  0.82901  1.0000
  H   H30       1.0  0.37866000000000005  0.39506  0.75503  1.0000
  H   H31       1.0  0.24843000000000004  0.18398  0.79451  1.0000
  H   H32       1.0  0.3190199999999999  0.18274  0.86987  1.0000
  H   H33       1.0  0.03160000000000003  0.61931  0.53449  1.0000
  H   H34       1.0  0.95896  0.63163  0.4590300000000001  1.0000
  H   H35       1.0  0.06383  0.6166  0.02385  1.0000
  H   H36       1.0  0.84441  0.63584  0.00517  1.0000
  H   H37       1.0  0.03607999999999992  0.19297  0.6897000000000002  1.0000
  H   H38       1.0  0.14392999999999992  0.15436  0.7170000000000002  1.0000
  H   H39       1.0  0.39384  0.28157  0.01723  1.0000
  H   H40       1.0  0.51594  0.25799  0.03978000000000002  1.0000
  H   H41       1.0  0.0018599999999999717  0.73567  0.062100000000000016  1.0000
  H   H42       1.0  0.79707  0.7898  0.03134000000000001  1.0000
  H   H43       1.0  0.95454  0.9669500000000001  0.9535800000000001  1.0000
  H   H44       1.0  0.15705999999999987  0.91572  0.9860700000000002  1.0000
  H   H45       1.0  0.52753  0.99765  0.30252  1.0000
  H   H46       1.0  0.3324200000000001  0.060610000000000004  0.26726  1.0000
  H   H47       1.0  0.11924000000000004  0.92438  0.35876  1.0000
  H   H48       1.0  0.3145199999999999  0.8599100000000002  0.39268  1.0000
  H   H49       1.0  0.32236  0.37984  0.2820900000000001  1.0000
  H   H50       1.0  0.53392  0.31541  0.30702  1.0000
  H   H51       1.0  0.39003999999999994  0.11918  0.36613  1.0000
  H   H52       1.0  0.18150000000000002  0.18101  0.33922  1.0000
  H   H53       1.0  0.78536  0.15434  0.16806  1.0000
  H   H54       1.0  0.71617  0.13943000000000003  0.09404000000000003  1.0000
  H   H55       1.0  0.5573299999999999  0.94862  0.15271000000000007  1.0000
  H   H56       1.0  0.62851  0.96257  0.22649000000000005  1.0000
  H   H57       1.0  0.9390200000000001  0.76932  0.5843200000000001  1.0000
  H   H58       1.0  0.86051  0.75018  0.51286  1.0000
  H   H59       1.0  0.04351  0.92328  0.44324  1.0000
  H   H60       1.0  0.12224999999999994  0.9422100000000002  0.51465  1.0000
  H   H61       1.0  0.3891500000000001  0.72464  0.3688200000000001  1.0000
  H   H62       1.0  0.16905  0.74773  0.34997  1.0000
  H   H63       1.0  0.25367  0.49641  0.31879  1.0000
  H   H64       1.0  0.47415000000000007  0.47356  0.33761  1.0000
  H   H65       1.0  0.41182999999999986  0.70758  0.8639300000000002  1.0000
  H   H66       1.0  0.30469  0.48744000000000004  0.8982300000000002  1.0000
  H   H67       1.0  0.3349899999999999  0.7134  0.78946  1.0000
  H   H68       1.0  0.21850999999999998  0.49720000000000003  0.82524  1.0000
  H   H69       1.0  0.5416000000000001  0.61109  0.17099  1.0000
  H   H70       1.0  0.62133  0.60494  0.24497000000000005  1.0000
  H   H71       1.0  0.75156  0.81602  0.20549  1.0000
  H   H72       1.0  0.6809700000000001  0.81727  0.13012  1.0000
  H   H73       1.0  0.96839  0.38069  0.4655  1.0000
  H   H74       1.0  0.04102999999999996  0.36837  0.54097  1.0000
  H   H75       1.0  0.93616  0.3834  0.97614  1.0000
  H   H76       1.0  0.15557999999999997  0.36416  0.9948300000000002  1.0000
  H   H77       1.0  0.96391  0.80703  0.3103  1.0000
  H   H78       1.0  0.85606  0.84564  0.28299  1.0000
  H   H79       1.0  0.60615  0.71844  0.98277  1.0000
  H   H80       1.0  0.48405000000000004  0.74202  0.9602200000000002  1.0000
  C   C1        1.0  0.90899  0.17767  0.97422  1.0000
  C   C2        1.0  0.009460000000000003  0.21412  0.96186  1.0000
  C   C3        1.0  0.12252999999999997  0.18445  0.9792000000000002  1.0000
  C   C4        1.0  0.1352  0.11913  0.009840000000000003  1.0000
  C   C5        1.0  0.03368  0.08373  0.0228  1.0000
  C   C6        1.0  0.92142  0.11218  0.0046700000000000005  1.0000
  C   C7        1.0  0.78884  0.20932  0.95508  1.0000
  C   C8        1.0  0.25998  0.08421  0.025980000000000007  1.0000
  C   C9        1.0  0.5676500000000002  0.07519  0.65048  1.0000
  C   C10       1.0  0.5617400000000001  0.01874  0.68591  1.0000
  C   C11       1.0  0.66973  0.9840100000000002  0.7056200000000002  1.0000
  C   C12       1.0  0.7854599999999999  0.0038599999999999993  0.6895300000000002  1.0000
  C   C13       1.0  0.79112  0.060450000000000004  0.6540600000000002  1.0000
  C   C14       1.0  0.6827100000000002  0.09626  0.63484  1.0000
  C   C15       1.0  0.45132  0.11575  0.63037  1.0000
  C   C16       1.0  0.9029899999999998  0.95848  0.7076600000000002  1.0000
  C   C17       1.0  0.66176  0.67698  0.69934  1.0000
  C   C18       1.0  0.5447699999999999  0.71253  0.68537  1.0000
  C   C19       1.0  0.5263699999999998  0.7863300000000001  0.6617500000000002  1.0000
  C   C20       1.0  0.6261299999999997  0.8238  0.6521700000000002  1.0000
  C   C21       1.0  0.7417799999999997  0.7893700000000002  0.6671700000000003  1.0000
  C   C22       1.0  0.7603200000000001  0.71566  0.69073  1.0000
  C   C23       1.0  0.39803000000000005  0.82885  0.65016  1.0000
  C   C24       1.0  0.8853599999999999  0.6787200000000002  0.70617  1.0000
  C   C25       1.0  0.26459999999999995  0.8904  0.83568  1.0000
  C   C26       1.0  0.3032299999999999  0.89858  0.8767200000000003  1.0000
  C   C27       1.0  0.36689999999999995  0.95711  0.8809800000000002  1.0000
  C   C28       1.0  0.3921700000000001  0.006889999999999999  0.84363  1.0000
  C   C29       1.0  0.3528699999999998  0.9990200000000001  0.8026400000000002  1.0000
  C   C30       1.0  0.2887999999999999  0.94068  0.7984500000000002  1.0000
  C   C31       1.0  0.4058199999999999  0.9667799999999999  0.9254400000000003  1.0000
  C   C32       1.0  0.24636999999999998  0.93165  0.75462  1.0000
  C   C33       1.0  0.03806999999999991  0.19764000000000004  0.4467500000000001  1.0000
  C   C34       1.0  0.08113999999999992  0.20861  0.4864500000000001  1.0000
  C   C35       1.0  0.05206000000000002  0.16483  0.52618  1.0000
  C   C36       1.0  0.97761  0.11083  0.5259300000000002  1.0000
  C   C37       1.0  0.93433  0.09997000000000003  0.4862300000000001  1.0000
  C   C38       1.0  0.9657199999999998  0.14243  0.44625  1.0000
  C   C39       1.0  0.10345000000000003  0.17413  0.56796  1.0000
  C   C40       1.0  0.9260400000000001  0.12695  0.40278000000000014  1.0000
  C   C41       1.0  0.6417999999999999  0.32479  0.6421  1.0000
  C   C42       1.0  0.7637899999999999  0.31202  0.6528700000000002  1.0000
  C   C43       1.0  0.80133  0.37646  0.66748  1.0000
  C   C44       1.0  0.7151999999999998  0.45397  0.67069  1.0000
  C   C45       1.0  0.5931400000000001  0.46674  0.65999  1.0000
  C   C46       1.0  0.5554999999999999  0.40213  0.6456100000000002  1.0000
  C   C47       1.0  0.42297999999999997  0.41439000000000004  0.63543  1.0000
  C   C48       1.0  0.93299  0.36452  0.6780300000000002  1.0000
  C   C49       1.0  0.6289000000000002  0.33884  0.14506000000000005  1.0000
  C   C50       1.0  0.6362000000000001  0.40318  0.1147  1.0000
  C   C51       1.0  0.68979  0.46308  0.12553  1.0000
  C   C52       1.0  0.67255  0.33527  0.18634  1.0000
  C   C53       1.0  0.5931  0.4052  0.07004  1.0000
  C   C54       1.0  0.77558  0.39035  0.24133000000000004  1.0000
  C   C55       1.0  0.73724  0.45791  0.16624000000000005  1.0000
  C   C56       1.0  0.7276800000000001  0.39465  0.19706000000000007  1.0000
  C   C57       1.0  0.43770999999999993  0.28263  0.8988300000000002  1.0000
  C   C58       1.0  0.39270999999999995  0.28585  0.8539400000000003  1.0000
  C   C59       1.0  0.41062  0.34524  0.82137  1.0000
  C   C60       1.0  0.36667000000000005  0.34832  0.78009  1.0000
  C   C61       1.0  0.30837999999999993  0.28996  0.7703  1.0000
  C   C62       1.0  0.29286999999999996  0.22931  0.8024  1.0000
  C   C63       1.0  0.33293999999999996  0.22817  0.84423  1.0000
  C   C64       1.0  0.26691  0.29152  0.72536  1.0000
  C   C65       1.0  0.017119999999999976  0.5675  0.51923  1.0000
  C   C66       1.0  0.9766099999999999  0.57426  0.4770900000000001  1.0000
  C   C67       1.0  0.04084999999999999  0.49327000000000004  0.5424600000000002  1.0000
  C   C68       1.0  0.08121999999999992  0.48772000000000004  0.58808  1.0000
  C   C69       1.0  0.03443999999999999  0.56605  0.013650000000000004  1.0000
  C   C70       1.0  0.9129999999999999  0.57666  0.00298  1.0000
  C   C71       1.0  0.25331  0.47908  0.021370000000000007  1.0000
  C   C72       1.0  0.12213000000000002  0.48928000000000005  0.01087  1.0000
  C   C73       1.0  0.09101000000000001  0.82233  0.025770000000000008  1.0000
  C   C74       1.0  0.99053  0.78588  0.038140000000000014  1.0000
  C   C75       1.0  0.8774599999999998  0.81556  0.020790000000000003  1.0000
  C   C76       1.0  0.8647899999999998  0.88088  0.9901500000000002  1.0000
  C   C77       1.0  0.9663099999999998  0.91627  0.9772000000000002  1.0000
  C   C78       1.0  0.07856999999999996  0.88783  0.9953300000000003  1.0000
  C   C79       1.0  0.21115  0.79068  0.044920000000000015  1.0000
  C   C80       1.0  0.7400099999999997  0.9158  0.9740200000000002  1.0000
  C   C81       1.0  0.4323400000000001  0.92481  0.34952000000000005  1.0000
  C   C82       1.0  0.43825000000000014  0.9812599999999999  0.31409  1.0000
  C   C83       1.0  0.33026  0.01599  0.29438  1.0000
  C   C84       1.0  0.21453  0.99614  0.31046  1.0000
  C   C85       1.0  0.20886999999999994  0.93955  0.34594  1.0000
  C   C86       1.0  0.31727999999999995  0.90375  0.36515  1.0000
  C   C87       1.0  0.54867  0.8842500000000002  0.3696300000000001  1.0000
  C   C88       1.0  0.09699999999999999  0.04152  0.29234  1.0000
  C   C89       1.0  0.33823  0.32302  0.3006600000000001  1.0000
  C   C90       1.0  0.4552199999999999  0.28748  0.31463  1.0000
  C   C91       1.0  0.47362000000000004  0.21368  0.3382400000000001  1.0000
  C   C92       1.0  0.3738600000000001  0.1762  0.34782  1.0000
  C   C93       1.0  0.25821  0.21063  0.33282  1.0000
  C   C94       1.0  0.23967000000000022  0.28435  0.30927  1.0000
  C   C95       1.0  0.6019599999999999  0.17115  0.34983  1.0000
  C   C96       1.0  0.11463999999999995  0.3212900000000001  0.2938300000000001  1.0000
  C   C97       1.0  0.73539  0.1096  0.16432000000000005  1.0000
  C   C98       1.0  0.6967600000000002  0.10142  0.12328000000000003  1.0000
  C   C99       1.0  0.6330899999999999  0.042899999999999994  0.11902000000000003  1.0000
  C   C100      1.0  0.6078200000000001  0.99312  0.15637  1.0000
  C   C101      1.0  0.64712  0.0009900000000000002  0.19736  1.0000
  C   C102      1.0  0.71119  0.05931999999999999  0.20154  1.0000
  C   C103      1.0  0.59417  0.03322  0.07456000000000003  1.0000
  C   C104      1.0  0.75363  0.06836  0.24538  1.0000
  C   C105      1.0  0.9619199999999999  0.8023600000000001  0.5532500000000001  1.0000
  C   C106      1.0  0.9188500000000001  0.79139  0.51355  1.0000
  C   C107      1.0  0.9479299999999998  0.83518  0.47382000000000013  1.0000
  C   C108      1.0  0.022379999999999924  0.88918  0.4740600000000001  1.0000
  C   C109      1.0  0.06566  0.90004  0.51376  1.0000
  C   C110      1.0  0.034270000000000043  0.85758  0.5537400000000002  1.0000
  C   C111      1.0  0.8965399999999998  0.82588  0.4320400000000001  1.0000
  C   C112      1.0  0.07394999999999997  0.87305  0.5972200000000001  1.0000
  C   C113      1.0  0.35819000000000006  0.67521  0.3578900000000001  1.0000
  C   C114      1.0  0.23619999999999985  0.68798  0.3471300000000001  1.0000
  C   C115      1.0  0.19865999999999984  0.62354  0.3325100000000001  1.0000
  C   C116      1.0  0.28479000000000004  0.54604  0.3293100000000001  1.0000
  C   C117      1.0  0.40685  0.53326  0.3400100000000001  1.0000
  C   C118      1.0  0.44449  0.59787  0.35438  1.0000
  C   C119      1.0  0.57701  0.58562  0.36456  1.0000
  C   C120      1.0  0.06699999999999992  0.63549  0.3219700000000001  1.0000
  C   C121      1.0  0.3710899999999997  0.6611700000000003  0.8549400000000001  1.0000
  C   C122      1.0  0.36379  0.59682  0.8853  1.0000
  C   C123      1.0  0.31019999999999986  0.53692  0.8744600000000002  1.0000
  C   C124      1.0  0.32744000000000006  0.66473  0.8136600000000003  1.0000
  C   C125      1.0  0.40688999999999986  0.5948  0.9299500000000003  1.0000
  C   C126      1.0  0.22440999999999986  0.60965  0.7586600000000002  1.0000
  C   C127      1.0  0.26274999999999993  0.54209  0.8337600000000002  1.0000
  C   C128      1.0  0.27231  0.60536  0.80294  1.0000
  C   C129      1.0  0.5622800000000001  0.71737  0.10117000000000002  1.0000
  C   C130      1.0  0.60728  0.71415  0.14606  1.0000
  C   C131      1.0  0.5893700000000001  0.65476  0.17862000000000006  1.0000
  C   C132      1.0  0.6333199999999999  0.65168  0.21991  1.0000
  C   C133      1.0  0.6916099999999998  0.7100400000000001  0.22970000000000002  1.0000
  C   C134      1.0  0.7071200000000001  0.77069  0.19759  1.0000
  C   C135      1.0  0.66705  0.77184  0.15576000000000007  1.0000
  C   C136      1.0  0.7330799999999996  0.70849  0.2746400000000001  1.0000
  C   C137      1.0  0.9828700000000001  0.4325  0.4807700000000001  1.0000
  C   C138      1.0  0.02337999999999996  0.42575  0.5229  1.0000
  C   C139      1.0  0.9591399999999998  0.50674  0.45754  1.0000
  C   C140      1.0  0.91877  0.51229  0.4119100000000001  1.0000
  C   C141      1.0  0.96555  0.43396  0.9863500000000002  1.0000
  C   C142      1.0  0.087  0.42335  0.99701  1.0000
  C   C143      1.0  0.7466800000000002  0.52092  0.97862  1.0000
  C   C144      1.0  0.87787  0.51072  0.9891300000000002  1.0000
  O   O1        1.0  0.7280099999999999  0.16007000000000005  0.94745  1.0000
  O   O2        1.0  0.7523100000000001  0.28502  0.94749  1.0000
  O   O3        1.0  0.34328999999999993  0.12469000000000001  0.01806  1.0000
  O   O4        1.0  0.27895  0.015570000000000002  0.04536000000000001  1.0000
  O   O5        1.0  0.44964999999999994  0.18193  0.6088400000000003  1.0000
  O   O6        1.0  0.35536999999999996  0.08606000000000003  0.6365200000000001  1.0000
  O   O7        1.0  0.011559999999999827  0.97269  0.6910400000000002  1.0000
  O   O8        1.0  0.8965099999999999  0.9019500000000003  0.73628  1.0000
  O   O9        1.0  0.38208000000000003  0.89982  0.63375  1.0000
  O   O10       1.0  0.30878  0.79316  0.65903  1.0000
  O   O11       1.0  0.9205099999999998  0.60219  0.71112  1.0000
  O   O12       1.0  0.9518299999999998  0.72492  0.7133000000000003  1.0000
  O   O13       1.0  0.25548  0.9843100000000001  0.72348  1.0000
  O   O14       1.0  0.44888999999999984  0.02688  0.9298300000000003  1.0000
  O   O15       1.0  0.3921199999999998  0.91482  0.9566700000000002  1.0000
  O   O16       1.0  0.8729000000000001  0.07038  0.40233  1.0000
  O   O17       1.0  0.9511600000000004  0.17138  0.36835  1.0000
  O   O18       1.0  0.09073999999999996  0.12563  0.60136  1.0000
  O   O19       1.0  0.15876999999999994  0.23019  0.5682500000000001  1.0000
  O   O20       1.0  0.33842999999999984  0.48034  0.6479300000000002  1.0000
  O   O21       1.0  0.4007200000000001  0.35686  0.61587  1.0000
  O   O22       1.0  0.01761000000000003  0.29682  0.6679  1.0000
  O   O23       1.0  0.9570600000000001  0.42306  0.69563  1.0000
  O   O24       1.0  0.6007199999999999  0.33921  0.051240000000000015  1.0000
  O   O25       1.0  0.55293  0.47303  0.04998000000000001  1.0000
  O   O26       1.0  0.77602  0.32789  0.26621  1.0000
  O   O27       1.0  0.81191  0.44978  0.25221  1.0000
  O   O28       1.0  0.4792  0.34038  0.9089900000000002  1.0000
  O   O29       1.0  0.43069999999999986  0.22209  0.9246300000000002  1.0000
  O   O30       1.0  0.2666099999999999  0.22656  0.7070600000000002  1.0000
  O   O31       1.0  0.23623000000000008  0.35949  0.70425  1.0000
  O   O32       1.0  0.07258000000000003  0.55166  0.60913  1.0000
  O   O33       1.0  0.12139000000000004  0.4177100000000001  0.6065  1.0000
  O   O34       1.0  0.33720999999999995  0.41117  0.011520000000000004  1.0000
  O   O35       1.0  0.2758400000000001  0.5385  0.03852000000000001  1.0000
  O   O36       1.0  0.20417999999999994  0.87083  0.7508700000000003  1.0000
  O   O37       1.0  0.08023999999999992  0.1408  0.7021700000000002  1.0000
  O   O38       1.0  0.48556  0.25367  0.01126  1.0000
  O   O39       1.0  0.27198000000000006  0.83994  0.05254000000000001  1.0000
  O   O40       1.0  0.24767999999999998  0.71498  0.052510000000000015  1.0000
  O   O41       1.0  0.6567000000000001  0.87532  0.9819400000000003  1.0000
  O   O42       1.0  0.7210399999999999  0.9844300000000001  0.95464  1.0000
  O   O43       1.0  0.55034  0.81807  0.3911600000000001  1.0000
  O   O44       1.0  0.6446199999999996  0.91394  0.36348000000000014  1.0000
  O   O45       1.0  0.98843  0.02731  0.30896000000000007  1.0000
  O   O46       1.0  0.10348  0.09805000000000001  0.26372  1.0000
  O   O47       1.0  0.61791  0.10019  0.36625000000000013  1.0000
  O   O48       1.0  0.6912100000000001  0.20685  0.34097  1.0000
  O   O49       1.0  0.07947999999999994  0.3978200000000001  0.28887  1.0000
  O   O50       1.0  0.04815999999999997  0.27509  0.2867  1.0000
  O   O51       1.0  0.7445099999999999  0.01569  0.2765200000000001  1.0000
  O   O52       1.0  0.5511  0.9731200000000001  0.07017  1.0000
  O   O53       1.0  0.60788  0.08518  0.04333  1.0000
  O   O54       1.0  0.12708999999999968  0.9296300000000002  0.5976700000000003  1.0000
  O   O55       1.0  0.048839999999999856  0.82862  0.6316400000000002  1.0000
  O   O56       1.0  0.9092500000000006  0.87437  0.3986300000000001  1.0000
  O   O57       1.0  0.84122  0.76982  0.43175000000000013  1.0000
  O   O58       1.0  0.66156  0.51966  0.35207  1.0000
  O   O59       1.0  0.5992699999999999  0.64314  0.38413  1.0000
  O   O60       1.0  0.9823800000000001  0.70318  0.3321  1.0000
  O   O61       1.0  0.04292999999999989  0.5769400000000001  0.3043700000000001  1.0000
  O   O62       1.0  0.3992699999999999  0.66079  0.9487500000000002  1.0000
  O   O63       1.0  0.4470600000000004  0.52698  0.95002  1.0000
  O   O64       1.0  0.2239699999999999  0.67212  0.7337900000000003  1.0000
  O   O65       1.0  0.18807999999999997  0.55022  0.74778  1.0000
  O   O66       1.0  0.52079  0.65963  0.091  1.0000
  O   O67       1.0  0.5692900000000001  0.77792  0.07536000000000002  1.0000
  O   O68       1.0  0.73338  0.77345  0.29293  1.0000
  O   O69       1.0  0.76376  0.64051  0.29575  1.0000
  O   O70       1.0  0.9274100000000001  0.44835  0.3908700000000001  1.0000
  O   O71       1.0  0.8786000000000003  0.5823  0.3935000000000001  1.0000
  O   O72       1.0  0.6627799999999999  0.58883  0.9884800000000002  1.0000
  O   O73       1.0  0.7241499999999998  0.4615  0.96147  1.0000
  O   O74       1.0  0.7958100000000001  0.12918  0.24912  1.0000
  O   O75       1.0  0.9197500000000001  0.8592  0.29783  1.0000
  O   O76       1.0  0.5144399999999999  0.74634  0.9887400000000001  1.0000
