data_image0
_chemical_formula_structural       Cd10H64C96N80O4
_chemical_formula_sum              "Cd10 H64 C96 N80 O4"
_cell_length_a       12.69904
_cell_length_b       12.747550000000002
_cell_length_c       28.30443
_cell_angle_alpha    97.03026
_cell_angle_beta     90.01215
_cell_angle_gamma    90.00405

_symmetry_space_group_name_H-M    'P 1'
_symmetry_Int_Tables_number       1

loop_
  _symmetry_equiv_pos_as_xyz
  'x,y,z'

loop_
  _atom_site_type_symbol
  _atom_site_label
  _atom_site_symmetry_multiplicity
  _atom_site_fract_x
  _atom_site_fract_y
  _atom_site_fract_z
  _atom_site_occupancy
  Cd  Cd1       1.0  0.6678399999999998  0.43755  0.3912599999999999  1.0000
  Cd  Cd2       1.0  0.462  0.64355  0.39408  1.0000
  Cd  Cd3       1.0  0.16791  0.06254  0.10868999999999997  1.0000
  Cd  Cd4       1.0  0.9624999999999999  0.85689  0.10573  1.0000
  Cd  Cd5       1.0  0.33216  0.56244  0.60874  1.0000
  Cd  Cd6       1.0  0.538  0.35645  0.6059199999999999  1.0000
  Cd  Cd7       1.0  0.8320899999999998  0.93745  0.8913099999999998  1.0000
  Cd  Cd8       1.0  0.0375  0.14309999999999995  0.89427  1.0000
  Cd  Cd9       1.0  0.4999999999999999  0.5  0.5  1.0000
  Cd  Cd10      1.0  0.0  0.0  0.0  1.0000
  H   H1        1.0  0.72535  0.0938  0.25809  1.0000
  H   H2        1.0  0.95892  0.3382  0.25446  1.0000
  H   H3        1.0  0.3138  0.9955499999999999  0.58348  1.0000
  H   H4        1.0  0.86375  0.32420999999999994  0.44107  1.0000
  H   H5        1.0  0.025459999999999997  0.66366  0.41699  1.0000
  H   H6        1.0  0.64741  0.20135  0.32959999999999995  1.0000
  H   H7        1.0  0.83317  0.6267999999999999  0.40402999999999994  1.0000
  H   H8        1.0  0.05704  0.34968999999999995  0.45732999999999996  1.0000
  H   H9        1.0  0.3930999999999999  0.90427  0.26081  1.0000
  H   H10       1.0  0.6613899999999999  0.14614  0.55655  1.0000
  H   H11       1.0  0.15134  0.66705  0.26178  1.0000
  H   H12       1.0  0.8719399999999998  0.43592999999999993  0.32569  1.0000
  H   H13       1.0  0.47238  0.83549  0.3316  1.0000
  H   H14       1.0  0.34827999999999987  0.19048  0.5937499999999999  1.0000
  H   H15       1.0  0.23905999999999994  0.60894  0.33358  1.0000
  H   H16       1.0  0.6390499999999999  0.94905  0.54253  1.0000
  H   H17       1.0  0.2252  0.40621  0.24184  1.0000
  H   H18       1.0  0.45892  0.16204  0.24563  1.0000
  H   H19       1.0  0.81403  0.50446  0.91652  1.0000
  H   H20       1.0  0.36363  0.17585  0.05892  1.0000
  H   H21       1.0  0.52495  0.83628  0.08308  1.0000
  H   H22       1.0  0.14754999999999996  0.29864999999999997  0.17022999999999996  1.0000
  H   H23       1.0  0.33272  0.8733  0.09592  1.0000
  H   H24       1.0  0.55687  0.15027  0.04269999999999999  1.0000
  H   H25       1.0  0.89289  0.59601  0.23922999999999997  1.0000
  H   H26       1.0  0.16153999999999993  0.35370999999999986  0.9434799999999998  1.0000
  H   H27       1.0  0.65118  0.8332  0.23825999999999994  1.0000
  H   H28       1.0  0.3722299999999999  0.06428  0.1743  1.0000
  H   H29       1.0  0.9720599999999999  0.66472  0.16843  1.0000
  H   H30       1.0  0.84836  0.30949  0.90621  1.0000
  H   H31       1.0  0.7387999999999999  0.8912399999999999  0.16643  1.0000
  H   H32       1.0  0.13925  0.55079  0.95751  1.0000
  H   H33       1.0  0.27464999999999995  0.90619  0.74191  1.0000
  H   H34       1.0  0.04108  0.66179  0.74554  1.0000
  H   H35       1.0  0.6862  0.004439999999999991  0.41652  1.0000
  H   H36       1.0  0.13625  0.67578  0.55893  1.0000
  H   H37       1.0  0.9745399999999999  0.33632999999999996  0.58301  1.0000
  H   H38       1.0  0.35259  0.79864  0.6704  1.0000
  H   H39       1.0  0.16683  0.37319  0.5959699999999998  1.0000
  H   H40       1.0  0.94296  0.6503  0.54267  1.0000
  H   H41       1.0  0.6069  0.09572000000000004  0.73919  1.0000
  H   H42       1.0  0.3386099999999999  0.85385  0.44345  1.0000
  H   H43       1.0  0.8486599999999997  0.33294  0.73822  1.0000
  H   H44       1.0  0.12806  0.5640599999999999  0.67431  1.0000
  H   H45       1.0  0.5276199999999999  0.16451  0.6684  1.0000
  H   H46       1.0  0.65172  0.80951  0.40625  1.0000
  H   H47       1.0  0.76094  0.39104999999999995  0.6664199999999999  1.0000
  H   H48       1.0  0.3609499999999999  0.05093999999999998  0.45747  1.0000
  H   H49       1.0  0.7747999999999998  0.59378  0.7581599999999997  1.0000
  H   H50       1.0  0.5410799999999999  0.83795  0.75437  1.0000
  H   H51       1.0  0.18597  0.49553  0.08348  1.0000
  H   H52       1.0  0.63637  0.82414  0.9410799999999998  1.0000
  H   H53       1.0  0.47504999999999986  0.16370999999999997  0.9169199999999998  1.0000
  H   H54       1.0  0.8524499999999998  0.70134  0.8297699999999999  1.0000
  H   H55       1.0  0.66728  0.12669  0.90408  1.0000
  H   H56       1.0  0.4431399999999999  0.8497299999999999  0.9573  1.0000
  H   H57       1.0  0.10710999999999998  0.40398  0.7607699999999998  1.0000
  H   H58       1.0  0.83846  0.6462799999999999  0.05652  1.0000
  H   H59       1.0  0.34882  0.16679  0.7617399999999998  1.0000
  H   H60       1.0  0.62777  0.9357100000000002  0.8257  1.0000
  H   H61       1.0  0.027939999999999996  0.33527  0.83157  1.0000
  H   H62       1.0  0.15164  0.6905  0.09379  1.0000
  H   H63       1.0  0.2612  0.10874999999999996  0.8335699999999999  1.0000
  H   H64       1.0  0.86075  0.44919999999999993  0.04249  1.0000
  C   C1        1.0  0.8978599999999998  0.14820999999999998  0.20897999999999997  1.0000
  C   C2        1.0  0.45561  0.84272  0.55645  1.0000
  C   C3        1.0  0.21922999999999995  0.82711  0.21347999999999995  1.0000
  C   C4        1.0  0.75955  0.1695  0.27213  1.0000
  C   C5        1.0  0.8483  0.20809999999999998  0.25022  1.0000
  C   C6        1.0  0.88993  0.30563  0.27014  1.0000
  C   C7        1.0  0.39158  0.026239999999999968  0.5767999999999999  1.0000
  C   C8        1.0  0.47429  0.95639  0.56239  1.0000
  C   C9        1.0  0.9026999999999998  0.39841  0.43645  1.0000
  C   C10       1.0  0.9919899999999999  0.58781  0.42294  1.0000
  C   C11       1.0  0.05691999999999999  0.50893  0.4378699999999999  1.0000
  C   C12       1.0  0.7164  0.22863999999999998  0.31198999999999993  1.0000
  C   C13       1.0  0.8855  0.56753  0.41567  1.0000
  C   C14       1.0  0.00992  0.4125499999999999  0.44527  1.0000
  C   C15       1.0  0.2662  0.7900999999999999  0.25538  1.0000
  C   C16       1.0  0.16909  0.52951  0.44491  1.0000
  C   C17       1.0  0.3571699999999999  0.8385299999999999  0.27598  1.0000
  C   C18       1.0  0.58548  0.10935  0.56162  1.0000
  C   C19       1.0  0.22222  0.70626  0.27654  1.0000
  C   C20       1.0  0.84218  0.3596  0.31005  1.0000
  C   C21       1.0  0.40056  0.80108  0.31567999999999996  1.0000
  C   C22       1.0  0.41048  0.13426999999999994  0.5826099999999997  1.0000
  C   C23       1.0  0.27045  0.67398  0.31646  1.0000
  C   C24       1.0  0.57308  0.0001900000000000007  0.55415  1.0000
  C   C25       1.0  0.3976499999999999  0.35201  0.29102  1.0000
  C   C26       1.0  0.9561299999999998  0.6572099999999998  0.9435099999999998  1.0000
  C   C27       1.0  0.71904  0.67326  0.28662  1.0000
  C   C28       1.0  0.25949  0.33056  0.22781  1.0000
  C   C29       1.0  0.34819999999999995  0.29201999999999995  0.24977999999999995  1.0000
  C   C30       1.0  0.38995  0.19454  0.22989  1.0000
  C   C31       1.0  0.8917999999999999  0.47371  0.92318  1.0000
  C   C32       1.0  0.9745599999999999  0.5435  0.9375899999999999  1.0000
  C   C33       1.0  0.40252  0.10161999999999997  0.06353  1.0000
  C   C34       1.0  0.49165  0.91215  0.07706999999999997  1.0000
  C   C35       1.0  0.5566799999999998  0.99097  0.062129999999999984  1.0000
  C   C36       1.0  0.21648999999999993  0.27143  0.18791  1.0000
  C   C37       1.0  0.38515  0.93252  0.08431  1.0000
  C   C38       1.0  0.50973  0.08738  0.05472999999999999  1.0000
  C   C39       1.0  0.7659899999999997  0.71017  0.24468999999999996  1.0000
  C   C40       1.0  0.6688899999999998  0.97039  0.05509  1.0000
  C   C41       1.0  0.8569199999999999  0.66172  0.22405999999999995  1.0000
  C   C42       1.0  0.08561999999999997  0.39046  0.93838  1.0000
  C   C43       1.0  0.7220299999999998  0.7939699999999998  0.22348999999999997  1.0000
  C   C44       1.0  0.3423699999999999  0.14056999999999997  0.18993  1.0000
  C   C45       1.0  0.90026  0.69916  0.18435  1.0000
  C   C46       1.0  0.91062  0.36566  0.91736  1.0000
  C   C47       1.0  0.77021  0.82622  0.18354999999999996  1.0000
  C   C48       1.0  0.0733  0.4996399999999999  0.9458599999999998  1.0000
  C   C49       1.0  0.10214  0.85178  0.7910199999999998  1.0000
  C   C50       1.0  0.54439  0.15727  0.44355  1.0000
  C   C51       1.0  0.78077  0.17288  0.78652  1.0000
  C   C52       1.0  0.24044999999999997  0.83049  0.7278699999999998  1.0000
  C   C53       1.0  0.1517  0.7918899999999998  0.7497799999999998  1.0000
  C   C54       1.0  0.11006999999999997  0.69436  0.72986  1.0000
  C   C55       1.0  0.60842  0.9737499999999999  0.4232  1.0000
  C   C56       1.0  0.5257099999999999  0.04359999999999999  0.43761  1.0000
  C   C57       1.0  0.09729999999999997  0.60158  0.56355  1.0000
  C   C58       1.0  0.00801  0.41218  0.57706  1.0000
  C   C59       1.0  0.9430799999999999  0.4910599999999999  0.56213  1.0000
  C   C60       1.0  0.28359999999999996  0.77136  0.6880099999999998  1.0000
  C   C61       1.0  0.1145  0.43247  0.58433  1.0000
  C   C62       1.0  0.99008  0.58745  0.55473  1.0000
  C   C63       1.0  0.7337999999999999  0.2099  0.74462  1.0000
  C   C64       1.0  0.83091  0.47048  0.55509  1.0000
  C   C65       1.0  0.64283  0.16146  0.72402  1.0000
  C   C66       1.0  0.4145199999999999  0.8906399999999999  0.4383799999999999  1.0000
  C   C67       1.0  0.7777799999999998  0.29373  0.72346  1.0000
  C   C68       1.0  0.15782  0.6404  0.68995  1.0000
  C   C69       1.0  0.5994399999999999  0.19891  0.68432  1.0000
  C   C70       1.0  0.58952  0.86572  0.41739  1.0000
  C   C71       1.0  0.7295499999999998  0.32601  0.68354  1.0000
  C   C72       1.0  0.42692  0.9998  0.44584999999999997  1.0000
  C   C73       1.0  0.60235  0.64798  0.70898  1.0000
  C   C74       1.0  0.04387  0.34277999999999986  0.05649  1.0000
  C   C75       1.0  0.28096  0.3267399999999999  0.7133799999999998  1.0000
  C   C76       1.0  0.7405099999999999  0.66943  0.77219  1.0000
  C   C77       1.0  0.6518  0.70797  0.75022  1.0000
  C   C78       1.0  0.6100499999999999  0.80545  0.77011  1.0000
  C   C79       1.0  0.10819999999999999  0.52628  0.07682  1.0000
  C   C80       1.0  0.02544  0.45648999999999995  0.06241  1.0000
  C   C81       1.0  0.59748  0.89838  0.9364699999999999  1.0000
  C   C82       1.0  0.5083499999999999  0.08783999999999997  0.9229299999999998  1.0000
  C   C83       1.0  0.44332  0.009020000000000002  0.93787  1.0000
  C   C84       1.0  0.78351  0.72856  0.81209  1.0000
  C   C85       1.0  0.6148499999999999  0.06746999999999993  0.9156899999999998  1.0000
  C   C86       1.0  0.49027  0.91261  0.94527  1.0000
  C   C87       1.0  0.23401  0.28982  0.75531  1.0000
  C   C88       1.0  0.33110999999999996  0.029599999999999974  0.9449099999999999  1.0000
  C   C89       1.0  0.14308  0.33827  0.77594  1.0000
  C   C90       1.0  0.91438  0.60953  0.06161999999999999  1.0000
  C   C91       1.0  0.27797  0.20601999999999993  0.7765099999999998  1.0000
  C   C92       1.0  0.65763  0.8594199999999999  0.81007  1.0000
  C   C93       1.0  0.09974  0.30083  0.81565  1.0000
  C   C94       1.0  0.08937999999999997  0.63433  0.08264  1.0000
  C   C95       1.0  0.22978999999999997  0.17376999999999995  0.8164499999999998  1.0000
  C   C96       1.0  0.9267  0.50036  0.05414  1.0000
  N   N1        1.0  0.9332  0.025519999999999998  0.15377  1.0000
  N   N2        1.0  0.23699  0.47017000000000003  0.4673  1.0000
  N   N3        1.0  0.00804  0.10044  0.15434  1.0000
  N   N4        1.0  0.8629799999999997  0.05374999999999998  0.18775999999999995  1.0000
  N   N5        1.0  0.75653  0.3225799999999999  0.33093  1.0000
  N   N6        1.0  0.47108999999999995  0.67839  0.5366  1.0000
  N   N7        1.0  0.841  0.47404  0.4215499999999999  1.0000
  N   N8        1.0  0.19133  0.91756  0.15666  1.0000
  N   N9        1.0  0.13126  0.7859699999999998  0.19159  1.0000
  N   N10       1.0  0.21745  0.61328  0.42909  1.0000
  N   N11       1.0  0.32853  0.51906  0.46494  1.0000
  N   N12       1.0  0.36897  0.79887  0.57392  1.0000
  N   N13       1.0  0.11544  0.8441099999999999  0.15626999999999994  1.0000
  N   N14       1.0  0.31743  0.6051299999999998  0.44216999999999995  1.0000
  N   N15       1.0  0.98753  0.17844  0.18862999999999994  1.0000
  N   N16       1.0  0.25783999999999996  0.90849  0.19225999999999993  1.0000
  N   N17       1.0  0.35876999999999987  0.71993  0.33585  1.0000
  N   N18       1.0  0.51992  0.76892  0.53317  1.0000
  N   N19       1.0  0.38041999999999987  0.69563  0.56094  1.0000
  N   N20       1.0  0.50602  0.17599999999999996  0.57589  1.0000
  N   N21       1.0  0.4330999999999999  0.47505999999999987  0.34606  1.0000
  N   N22       1.0  0.73677  0.02953  0.03257  1.0000
  N   N23       1.0  0.50783  0.40001999999999993  0.34566  1.0000
  N   N24       1.0  0.36291999999999996  0.44664  0.31208  1.0000
  N   N25       1.0  0.25676  0.17755  0.16898999999999995  1.0000
  N   N26       1.0  0.97227  0.82154  0.96317  1.0000
  N   N27       1.0  0.34075  0.02605  0.07842  1.0000
  N   N28       1.0  0.69128  0.5828499999999999  0.34348999999999996  1.0000
  N   N29       1.0  0.63121  0.7145  0.30858  1.0000
  N   N30       1.0  0.71728  0.88675  0.07102  1.0000
  N   N31       1.0  0.8283199999999997  0.98062  0.03494  1.0000
  N   N32       1.0  0.8694799999999999  0.70123  0.92611  1.0000
  N   N33       1.0  0.61547  0.6563899999999999  0.34393  1.0000
  N   N34       1.0  0.8172199999999998  0.89475  0.05786  1.0000
  N   N35       1.0  0.48721  0.32185  0.31148  1.0000
  N   N36       1.0  0.7576099999999999  0.59185  0.30784  1.0000
  N   N37       1.0  0.8584999999999999  0.7802799999999999  0.16413999999999995  1.0000
  N   N38       1.0  0.02084  0.7308699999999999  0.9666399999999999  1.0000
  N   N39       1.0  0.8813899999999998  0.80446  0.93897  1.0000
  N   N40       1.0  0.006129999999999999  0.32380999999999993  0.9240799999999998  1.0000
  N   N41       1.0  0.0668  0.97447  0.84623  1.0000
  N   N42       1.0  0.7630099999999997  0.52982  0.5327  1.0000
  N   N43       1.0  0.99196  0.8995499999999998  0.84566  1.0000
  N   N44       1.0  0.13702  0.94624  0.81224  1.0000
  N   N45       1.0  0.24346999999999996  0.67741  0.66907  1.0000
  N   N46       1.0  0.52891  0.32159999999999994  0.4634  1.0000
  N   N47       1.0  0.15899999999999997  0.52595  0.57845  1.0000
  N   N48       1.0  0.8086699999999999  0.08242999999999999  0.84334  1.0000
  N   N49       1.0  0.8687399999999998  0.21402  0.80841  1.0000
  N   N50       1.0  0.78255  0.38671  0.57091  1.0000
  N   N51       1.0  0.67147  0.4809299999999999  0.53506  1.0000
  N   N52       1.0  0.6310299999999998  0.20111999999999994  0.42608  1.0000
  N   N53       1.0  0.88456  0.15588  0.84373  1.0000
  N   N54       1.0  0.6825699999999998  0.39486  0.55783  1.0000
  N   N55       1.0  0.012469999999999998  0.82155  0.81137  1.0000
  N   N56       1.0  0.74216  0.09149999999999993  0.8077399999999998  1.0000
  N   N57       1.0  0.64123  0.28006  0.66415  1.0000
  N   N58       1.0  0.4800799999999999  0.23106999999999991  0.4668299999999999  1.0000
  N   N59       1.0  0.61958  0.30437  0.4390599999999999  1.0000
  N   N60       1.0  0.49397999999999986  0.82399  0.42411  1.0000
  N   N61       1.0  0.5669  0.5249400000000002  0.65394  1.0000
  N   N62       1.0  0.26323  0.9704599999999999  0.96743  1.0000
  N   N63       1.0  0.49216999999999994  0.59997  0.6543399999999999  1.0000
  N   N64       1.0  0.6370799999999998  0.55336  0.6879199999999998  1.0000
  N   N65       1.0  0.74324  0.8224399999999998  0.8310099999999999  1.0000
  N   N66       1.0  0.02773  0.17845  0.03683  1.0000
  N   N67       1.0  0.65925  0.97394  0.9215799999999997  1.0000
  N   N68       1.0  0.30872  0.4171399999999999  0.6565099999999998  1.0000
  N   N69       1.0  0.36879  0.28549  0.69142  1.0000
  N   N70       1.0  0.28272  0.11323999999999991  0.9289799999999998  1.0000
  N   N71       1.0  0.17168  0.019369999999999974  0.96506  1.0000
  N   N72       1.0  0.13052  0.29876  0.07388999999999997  1.0000
  N   N73       1.0  0.38452999999999987  0.3436  0.65607  1.0000
  N   N74       1.0  0.18278  0.10523999999999993  0.9421399999999998  1.0000
  N   N75       1.0  0.51279  0.67814  0.68852  1.0000
  N   N76       1.0  0.24239  0.40813999999999995  0.69216  1.0000
  N   N77       1.0  0.1415  0.2197099999999999  0.8358599999999998  1.0000
  N   N78       1.0  0.97916  0.26912  0.03336  1.0000
  N   N79       1.0  0.11861  0.19554  0.06103  1.0000
  N   N80       1.0  0.99387  0.67618  0.07592  1.0000
  O   O1        1.0  0.56619  0.55087  0.43813  1.0000
  O   O2        1.0  0.06814  0.9472799999999998  0.06156  1.0000
  O   O3        1.0  0.4338099999999999  0.44912  0.56187  1.0000
  O   O4        1.0  0.9318599999999998  0.05270999999999999  0.93844  1.0000
