data_image0
_chemical_formula_structural       Mg8H104C192O48
_chemical_formula_sum              "Mg8 H104 C192 O48"
_cell_length_a       9.94946
_cell_length_b       16.58445
_cell_length_c       28.897039999999997
_cell_angle_alpha    90.07185
_cell_angle_beta     89.90889
_cell_angle_gamma    95.46997

_space_group_name_H-M_alt    "P 1"
_space_group_IT_number       1

loop_
  _space_group_symop_operation_xyz
  'x, y, z'

loop_
  _atom_site_type_symbol
  _atom_site_label
  _atom_site_symmetry_multiplicity
  _atom_site_fract_x
  _atom_site_fract_y
  _atom_site_fract_z
  _atom_site_occupancy
  Mg  Mg1       1.0  0.56182  0.9986499999999999  0.7002199999999998  1.0000
  Mg  Mg2       1.0  0.56783  0.49499999999999994  0.20016  1.0000
  Mg  Mg3       1.0  0.93898  0.5018099999999999  0.2  1.0000
  Mg  Mg4       1.0  0.93252  0.00402  0.70014  1.0000
  Mg  Mg5       1.0  0.43818  0.0013499999999999996  0.29978  1.0000
  Mg  Mg6       1.0  0.43217  0.505  0.79984  1.0000
  Mg  Mg7       1.0  0.061029999999999994  0.49819  0.80001  1.0000
  Mg  Mg8       1.0  0.06749000000000002  0.99597  0.29987  1.0000
  H   H1        1.0  0.68523  0.0621  0.3609999999999999  1.0000
  H   H2        1.0  0.82454  0.95482  0.37479  1.0000
  H   H3        1.0  0.58445  0.29675  0.55539  1.0000
  H   H4        1.0  0.58439  0.16861  0.60019  1.0000
  H   H5        1.0  0.96045  0.25809  0.66316  1.0000
  H   H6        1.0  0.9559499999999997  0.3887499999999999  0.6207  1.0000
  H   H7        1.0  0.6018  0.3691  0.43913999999999986  1.0000
  H   H8        1.0  0.60545  0.24025999999999995  0.39712  1.0000
  H   H9        1.0  0.94255  0.1809  0.4789  1.0000
  H   H10       1.0  0.9375699999999999  0.30946  0.52169  1.0000
  H   H11       1.0  0.55051  0.5388899999999999  0.42719  1.0000
  H   H12       1.0  0.5514  0.5332399999999998  0.3409599999999999  1.0000
  H   H13       1.0  0.9554700000000002  0.46798  0.34186  1.0000
  H   H14       1.0  0.95368  0.4646499999999999  0.42811  1.0000
  H   H15       1.0  0.55797  0.6886099999999998  0.52211  1.0000
  H   H16       1.0  0.55434  0.81964  0.48176  1.0000
  H   H17       1.0  0.8984400000000001  0.76727  0.40102  1.0000
  H   H18       1.0  0.89983  0.63543  0.44014999999999993  1.0000
  H   H19       1.0  0.54303  0.61164  0.62206  1.0000
  H   H20       1.0  0.53644  0.74233  0.66433  1.0000
  H   H21       1.0  0.91056  0.8337599999999997  0.60031  1.0000
  H   H22       1.0  0.9122500000000001  0.70544  0.55576  1.0000
  H   H23       1.0  0.60859  0.3933599999999999  0.6421  1.0000
  H   H24       1.0  0.6003999999999998  0.39679  0.72704  1.0000
  H   H25       1.0  0.8943599999999999  0.6053  0.72721  1.0000
  H   H26       1.0  0.88911  0.6076199999999998  0.64222  1.0000
  H   H27       1.0  0.80384  0.43552  0.8603  1.0000
  H   H28       1.0  0.67941  0.54921  0.87038  1.0000
  H   H29       1.0  0.91733  0.20171  0.055919999999999984  1.0000
  H   H30       1.0  0.91771  0.32976  0.1009  1.0000
  H   H31       1.0  0.53981  0.24098  0.16334999999999997  1.0000
  H   H32       1.0  0.54451  0.11035  0.12076  1.0000
  H   H33       1.0  0.8982500000000001  0.1304  0.9388599999999999  1.0000
  H   H34       1.0  0.89106  0.25891  0.89677  1.0000
  H   H35       1.0  0.55661  0.31727  0.9804699999999997  1.0000
  H   H36       1.0  0.56329  0.18832999999999994  0.02272  1.0000
  H   H37       1.0  0.9493700000000002  0.95989  0.92686  1.0000
  H   H38       1.0  0.94809  0.9657199999999998  0.84065  1.0000
  H   H39       1.0  0.5453  0.03294  0.8423  1.0000
  H   H40       1.0  0.54676  0.03512999999999999  0.92859  1.0000
  H   H41       1.0  0.94148  0.80956  0.02171  1.0000
  H   H42       1.0  0.94606  0.67951  0.98018  1.0000
  H   H43       1.0  0.60169  0.73308  0.9003399999999999  1.0000
  H   H44       1.0  0.6000999999999999  0.8642499999999997  0.94041  1.0000
  H   H45       1.0  0.9569600000000001  0.88773  0.12197999999999998  1.0000
  H   H46       1.0  0.9632799999999999  0.7571099999999997  0.16428  1.0000
  H   H47       1.0  0.58966  0.6653999999999998  0.10038  1.0000
  H   H48       1.0  0.58796  0.7936599999999998  0.05581  1.0000
  H   H49       1.0  0.89181  0.10592  0.14216  1.0000
  H   H50       1.0  0.89903  0.1031  0.2271  1.0000
  H   H51       1.0  0.60531  0.89454  0.22739  1.0000
  H   H52       1.0  0.6113399999999999  0.8916599999999998  0.14243999999999998  1.0000
  H   H53       1.0  0.31477  0.93789  0.6389999999999998  1.0000
  H   H54       1.0  0.17546  0.04519  0.6252199999999998  1.0000
  H   H55       1.0  0.4155499999999999  0.7032499999999998  0.44460999999999995  1.0000
  H   H56       1.0  0.41561000000000003  0.8313899999999997  0.39981  1.0000
  H   H57       1.0  0.03956000000000002  0.74191  0.33684  1.0000
  H   H58       1.0  0.044050000000000006  0.61125  0.3793099999999999  1.0000
  H   H59       1.0  0.3982  0.6309  0.56087  1.0000
  H   H60       1.0  0.39455  0.75974  0.60288  1.0000
  H   H61       1.0  0.05746  0.8191  0.5211  1.0000
  H   H62       1.0  0.06242999999999996  0.6905399999999998  0.47832  1.0000
  H   H63       1.0  0.44949  0.4611099999999999  0.5728099999999999  1.0000
  H   H64       1.0  0.4486  0.46677  0.65905  1.0000
  H   H65       1.0  0.04454  0.53203  0.65814  1.0000
  H   H66       1.0  0.04632  0.53535  0.5719  1.0000
  H   H67       1.0  0.44204  0.3113899999999999  0.4778899999999999  1.0000
  H   H68       1.0  0.44566  0.18035999999999994  0.51824  1.0000
  H   H69       1.0  0.10156  0.23272999999999994  0.5989899999999998  1.0000
  H   H70       1.0  0.10016999999999998  0.3645699999999999  0.5598499999999997  1.0000
  H   H71       1.0  0.45697  0.38836  0.37794  1.0000
  H   H72       1.0  0.46356  0.25767  0.33567  1.0000
  H   H73       1.0  0.08944  0.16623  0.3997  1.0000
  H   H74       1.0  0.08775  0.29456  0.44424  1.0000
  H   H75       1.0  0.39141  0.6066399999999997  0.35791  1.0000
  H   H76       1.0  0.3996  0.60321  0.27296  1.0000
  H   H77       1.0  0.10564  0.3947  0.2728  1.0000
  H   H78       1.0  0.11089  0.39237  0.3577899999999999  1.0000
  H   H79       1.0  0.19614999999999994  0.5644699999999998  0.13971  1.0000
  H   H80       1.0  0.3206  0.45079  0.12962  1.0000
  H   H81       1.0  0.08266  0.79829  0.94408  1.0000
  H   H82       1.0  0.08228999999999997  0.67024  0.8990999999999998  1.0000
  H   H83       1.0  0.46019  0.75901  0.83665  1.0000
  H   H84       1.0  0.45548999999999995  0.88964  0.87924  1.0000
  H   H85       1.0  0.10175  0.86959  0.06114  1.0000
  H   H86       1.0  0.10893999999999997  0.7410899999999999  0.10323  1.0000
  H   H87       1.0  0.44339  0.6827299999999997  0.01954  1.0000
  H   H88       1.0  0.4366999999999999  0.8116699999999999  0.97729  1.0000
  H   H89       1.0  0.05063  0.040109999999999986  0.07313999999999998  1.0000
  H   H90       1.0  0.05191  0.03428  0.15935  1.0000
  H   H91       1.0  0.4547  0.96706  0.1577  1.0000
  H   H92       1.0  0.45324000000000003  0.96487  0.07141  1.0000
  H   H93       1.0  0.058519999999999996  0.19044  0.97829  1.0000
  H   H94       1.0  0.053939999999999995  0.32049  0.01983  1.0000
  H   H95       1.0  0.39831  0.26692  0.09966  1.0000
  H   H96       1.0  0.39991  0.13574999999999995  0.05958999999999998  1.0000
  H   H97       1.0  0.043039999999999995  0.11226999999999997  0.8780299999999999  1.0000
  H   H98       1.0  0.036719999999999996  0.24288999999999997  0.83572  1.0000
  H   H99       1.0  0.41034  0.3345999999999999  0.89962  1.0000
  H   H100      1.0  0.41204  0.20635  0.9441999999999998  1.0000
  H   H101      1.0  0.10819  0.89408  0.85784  1.0000
  H   H102      1.0  0.10096999999999998  0.89689  0.77291  1.0000
  H   H103      1.0  0.39469  0.10546  0.77262  1.0000
  H   H104      1.0  0.38866  0.10833999999999998  0.85756  1.0000
  C   C1        1.0  0.76276  0.42798999999999987  0.5587499999999997  1.0000
  C   C2        1.0  0.76255  0.4276099999999999  0.50968  1.0000
  C   C3        1.0  0.75064  0.50097  0.48547  1.0000
  C   C4        1.0  0.73757  0.57395  0.50998  1.0000
  C   C5        1.0  0.73594  0.57344  0.55908  1.0000
  C   C6        1.0  0.7492099999999999  0.5006099999999998  0.58353  1.0000
  C   C7        1.0  0.77065  0.35085  0.58451  1.0000
  C   C8        1.0  0.6666  0.28830999999999996  0.57904  1.0000
  C   C9        1.0  0.66611  0.21673  0.60403  1.0000
  C   C10       1.0  0.77336  0.20566  0.63411  1.0000
  C   C11       1.0  0.87857  0.26748  0.63947  1.0000
  C   C12       1.0  0.87621  0.3400699999999999  0.61539  1.0000
  C   C13       1.0  0.7697  0.35009  0.4837  1.0000
  C   C14       1.0  0.67688  0.32843  0.44816  1.0000
  C   C15       1.0  0.67916  0.25597  0.42408999999999997  1.0000
  C   C16       1.0  0.77593  0.20247999999999994  0.4345  1.0000
  C   C17       1.0  0.86817  0.22258  0.47027  1.0000
  C   C18       1.0  0.86492  0.2953499999999999  0.4942499999999999  1.0000
  C   C19       1.0  0.75177  0.50134  0.43383  1.0000
  C   C20       1.0  0.63913  0.5221  0.40874  1.0000
  C   C21       1.0  0.63938  0.51998  0.36056  1.0000
  C   C22       1.0  0.75324  0.50022  0.3360999999999999  1.0000
  C   C23       1.0  0.8666  0.48146  0.36101  1.0000
  C   C24       1.0  0.86539  0.4804599999999999  0.4092  1.0000
  C   C25       1.0  0.72977  0.65161  0.48445999999999995  1.0000
  C   C26       1.0  0.6323999999999999  0.70478  0.49542999999999987  1.0000
  C   C27       1.0  0.62995  0.7788199999999998  0.47293  1.0000
  C   C28       1.0  0.72532  0.8020099999999998  0.43853  1.0000
  C   C29       1.0  0.8230499999999998  0.74956  0.4272399999999999  1.0000
  C   C30       1.0  0.8241000000000002  0.67545  0.44967  1.0000
  C   C31       1.0  0.7269999999999999  0.65048  0.58511  1.0000
  C   C32       1.0  0.62174  0.6608  0.61635  1.0000
  C   C33       1.0  0.61827  0.73352  0.64038  1.0000
  C   C34       1.0  0.72206  0.7961399999999997  0.63468  1.0000
  C   C35       1.0  0.82932  0.7853999999999998  0.60437  1.0000
  C   C36       1.0  0.82997  0.7136499999999998  0.57949  1.0000
  C   C37       1.0  0.7488  0.50053  0.6352199999999999  1.0000
  C   C38       1.0  0.66907  0.44117999999999996  0.66035  1.0000
  C   C39       1.0  0.66514  0.44247999999999993  0.70848  1.0000
  C   C40       1.0  0.74696  0.5012  0.73298  1.0000
  C   C41       1.0  0.82991  0.55951  0.7086  1.0000
  C   C42       1.0  0.8278199999999999  0.5601199999999997  0.66045  1.0000
  C   C43       1.0  0.77369  0.12837  0.66025  1.0000
  C   C44       1.0  0.78263  0.12615  0.40778  1.0000
  C   C45       1.0  0.75356  0.49903  0.2843399999999999  1.0000
  C   C46       1.0  0.71951  0.88121  0.41469999999999996  1.0000
  C   C47       1.0  0.72048  0.87393  0.66049  1.0000
  C   C48       1.0  0.74631  0.50055  0.7842999999999999  1.0000
  C   C49       1.0  0.73834  0.07099  0.05889  1.0000
  C   C50       1.0  0.73827  0.07117999999999997  0.009819999999999999  1.0000
  C   C51       1.0  0.74978  0.99775  0.98555  1.0000
  C   C52       1.0  0.76289  0.92489  0.01003  1.0000
  C   C53       1.0  0.7645699999999999  0.9255799999999997  0.05910999999999999  1.0000
  C   C54       1.0  0.75159  0.9984699999999999  0.08364999999999999  1.0000
  C   C55       1.0  0.73036  0.14814  0.08470999999999997  1.0000
  C   C56       1.0  0.8347599999999998  0.21046999999999993  0.07943  1.0000
  C   C57       1.0  0.8353400000000001  0.28200999999999987  0.10458  1.0000
  C   C58       1.0  0.72781  0.2932399999999999  0.13464  1.0000
  C   C59       1.0  0.62204  0.23158999999999993  0.1397  1.0000
  C   C60       1.0  0.62437  0.15902  0.11551  1.0000
  C   C61       1.0  0.73071  0.14862  0.98397  1.0000
  C   C62       1.0  0.82258  0.17062999999999995  0.94813  1.0000
  C   C63       1.0  0.81842  0.2429  0.92408  1.0000
  C   C64       1.0  0.72155  0.29603  0.9351399999999997  1.0000
  C   C65       1.0  0.63072  0.2756699999999999  0.97134  1.0000
  C   C66       1.0  0.63509  0.20288  0.99504  1.0000
  C   C67       1.0  0.74835  0.9975199999999999  0.93391  1.0000
  C   C68       1.0  0.8607399999999998  0.97674  0.90854  1.0000
  C   C69       1.0  0.8602600000000001  0.97922  0.86037  1.0000
  C   C70       1.0  0.74663  0.99968  0.83615  1.0000
  C   C71       1.0  0.6337  0.018739999999999993  0.8613599999999998  1.0000
  C   C72       1.0  0.63487  0.01901  0.90956  1.0000
  C   C73       1.0  0.77017  0.84726  0.9844  1.0000
  C   C74       1.0  0.86725  0.7938  0.99497  1.0000
  C   C75       1.0  0.8703199999999999  0.7204  0.97173  1.0000
  C   C76       1.0  0.77561  0.69831  0.93704  1.0000
  C   C77       1.0  0.6771  0.75055  0.92654  1.0000
  C   C78       1.0  0.67572  0.82406  0.9496099999999997  1.0000
  C   C79       1.0  0.77325  0.8486299999999998  0.08507  1.0000
  C   C80       1.0  0.8782599999999999  0.83852  0.11633  1.0000
  C   C81       1.0  0.88151  0.76594  0.14040999999999995  1.0000
  C   C82       1.0  0.7776  0.70338  0.13474  1.0000
  C   C83       1.0  0.67053  0.71395  0.10447  1.0000
  C   C84       1.0  0.67007  0.78555  0.07953999999999999  1.0000
  C   C85       1.0  0.7517  0.9987299999999999  0.13534  1.0000
  C   C86       1.0  0.8311099999999999  0.05824  0.16044999999999998  1.0000
  C   C87       1.0  0.8344699999999999  0.057259999999999985  0.20858  1.0000
  C   C88       1.0  0.75268  0.9986  0.23314999999999997  1.0000
  C   C89       1.0  0.66989  0.9402199999999997  0.20877  1.0000
  C   C90       1.0  0.6724099999999998  0.93933  0.16060999999999995  1.0000
  C   C91       1.0  0.72694  0.37039  0.16107  1.0000
  C   C92       1.0  0.71267  0.37263  0.9090499999999998  1.0000
  C   C93       1.0  0.74651  0.00129  0.78437  1.0000
  C   C94       1.0  0.78282  0.6208  0.91165  1.0000
  C   C95       1.0  0.7792600000000001  0.62569  0.16044999999999998  1.0000
  C   C96       1.0  0.75366  0.9992899999999999  0.28453  1.0000
  C   C97       1.0  0.23724  0.57201  0.44124999999999986  1.0000
  C   C98       1.0  0.23745  0.5723899999999998  0.49033  1.0000
  C   C99       1.0  0.24936  0.49903  0.51453  1.0000
  C   C100      1.0  0.26243  0.4260499999999999  0.4900299999999999  1.0000
  C   C101      1.0  0.26406  0.42656  0.44092  1.0000
  C   C102      1.0  0.25079  0.49939  0.41647  1.0000
  C   C103      1.0  0.22935  0.6491399999999998  0.4154899999999999  1.0000
  C   C104      1.0  0.33339999999999986  0.7116899999999998  0.4209699999999999  1.0000
  C   C105      1.0  0.33389  0.78327  0.39598  1.0000
  C   C106      1.0  0.22663999999999998  0.79434  0.36589  1.0000
  C   C107      1.0  0.12143999999999995  0.7325199999999997  0.36054  1.0000
  C   C108      1.0  0.12378999999999998  0.65993  0.38462  1.0000
  C   C109      1.0  0.2303  0.6499099999999999  0.5163  1.0000
  C   C110      1.0  0.32312  0.67156  0.55184  1.0000
  C   C111      1.0  0.32084  0.74403  0.57591  1.0000
  C   C112      1.0  0.22407  0.79752  0.5655  1.0000
  C   C113      1.0  0.13183  0.77742  0.52973  1.0000
  C   C114      1.0  0.13507999999999995  0.7046499999999998  0.50575  1.0000
  C   C115      1.0  0.24822999999999998  0.49865999999999994  0.5661799999999998  1.0000
  C   C116      1.0  0.36087  0.4779  0.59126  1.0000
  C   C117      1.0  0.3606199999999999  0.48002  0.63944  1.0000
  C   C118      1.0  0.24676  0.49977999999999995  0.6638999999999998  1.0000
  C   C119      1.0  0.13339  0.51853  0.63899  1.0000
  C   C120      1.0  0.13461  0.51954  0.5908  1.0000
  C   C121      1.0  0.27023  0.34839  0.51554  1.0000
  C   C122      1.0  0.36761  0.29522  0.50458  1.0000
  C   C123      1.0  0.37005999999999994  0.22117999999999993  0.52708  1.0000
  C   C124      1.0  0.27468  0.19799  0.56147  1.0000
  C   C125      1.0  0.17695  0.25044  0.57277  1.0000
  C   C126      1.0  0.1759  0.32455  0.55034  1.0000
  C   C127      1.0  0.273  0.34952  0.4149  1.0000
  C   C128      1.0  0.37826  0.3391999999999999  0.38365  1.0000
  C   C129      1.0  0.38173  0.26648  0.35962  1.0000
  C   C130      1.0  0.27794  0.20385999999999996  0.36532  1.0000
  C   C131      1.0  0.17068  0.21458999999999995  0.39563  1.0000
  C   C132      1.0  0.17002999999999996  0.2863499999999999  0.4205099999999999  1.0000
  C   C133      1.0  0.2512  0.49946  0.36478  1.0000
  C   C134      1.0  0.33092999999999995  0.5588199999999998  0.33966  1.0000
  C   C135      1.0  0.33486  0.5575199999999998  0.29153  1.0000
  C   C136      1.0  0.25305  0.49879999999999997  0.26702  1.0000
  C   C137      1.0  0.17009  0.44049  0.2914  1.0000
  C   C138      1.0  0.17218  0.43988  0.33955  1.0000
  C   C139      1.0  0.22631  0.87163  0.33975  1.0000
  C   C140      1.0  0.21736999999999998  0.87385  0.59222  1.0000
  C   C141      1.0  0.24644  0.50098  0.71567  1.0000
  C   C142      1.0  0.28049  0.11878999999999998  0.5853  1.0000
  C   C143      1.0  0.27952  0.12607  0.33952  1.0000
  C   C144      1.0  0.25369  0.49945  0.2157  1.0000
  C   C145      1.0  0.26165  0.92901  0.94111  1.0000
  C   C146      1.0  0.26173  0.92882  0.99018  1.0000
  C   C147      1.0  0.25022  0.00225  0.014449999999999996  1.0000
  C   C148      1.0  0.23711999999999997  0.07510999999999997  0.98997  1.0000
  C   C149      1.0  0.23543  0.07441999999999997  0.94089  1.0000
  C   C150      1.0  0.2484  0.0015299999999999995  0.91635  1.0000
  C   C151      1.0  0.26964  0.8518599999999997  0.9153  1.0000
  C   C152      1.0  0.16523999999999997  0.7895299999999997  0.92057  1.0000
  C   C153      1.0  0.16465999999999997  0.7179899999999998  0.89542  1.0000
  C   C154      1.0  0.27219  0.70676  0.86536  1.0000
  C   C155      1.0  0.37795999999999996  0.7683999999999997  0.8603  1.0000
  C   C156      1.0  0.37563  0.84098  0.88449  1.0000
  C   C157      1.0  0.26929  0.85138  0.01603  1.0000
  C   C158      1.0  0.17742  0.82937  0.05188  1.0000
  C   C159      1.0  0.18158  0.75709  0.07593  1.0000
  C   C160      1.0  0.27845  0.70396  0.06486  1.0000
  C   C161      1.0  0.36928  0.72433  0.028659999999999995  1.0000
  C   C162      1.0  0.36491  0.7971199999999998  0.00496  1.0000
  C   C163      1.0  0.25165  0.00248  0.06609  1.0000
  C   C164      1.0  0.13927  0.023259999999999992  0.09147  1.0000
  C   C165      1.0  0.13974  0.020779999999999993  0.13963  1.0000
  C   C166      1.0  0.25337  0.00031  0.16385  1.0000
  C   C167      1.0  0.3663  0.9812599999999999  0.13864  1.0000
  C   C168      1.0  0.36513  0.98099  0.09044  1.0000
  C   C169      1.0  0.22983  0.15273999999999993  0.01561  1.0000
  C   C170      1.0  0.13275  0.2062  0.005029999999999999  1.0000
  C   C171      1.0  0.12968  0.2796  0.02827  1.0000
  C   C172      1.0  0.22438999999999998  0.3016899999999999  0.06297  1.0000
  C   C173      1.0  0.3229  0.24944999999999998  0.07347  1.0000
  C   C174      1.0  0.32428  0.17594  0.05038999999999998  1.0000
  C   C175      1.0  0.22675  0.15137  0.91493  1.0000
  C   C176      1.0  0.12173999999999999  0.16148  0.8836699999999998  1.0000
  C   C177      1.0  0.11849  0.23405  0.8596  1.0000
  C   C178      1.0  0.2224  0.29661  0.8652599999999999  1.0000
  C   C179      1.0  0.32947  0.28605  0.89553  1.0000
  C   C180      1.0  0.32993  0.21445  0.92046  1.0000
  C   C181      1.0  0.2483  0.0012699999999999996  0.8646599999999998  1.0000
  C   C182      1.0  0.16888999999999996  0.9417599999999998  0.83955  1.0000
  C   C183      1.0  0.16552999999999995  0.9427399999999998  0.79142  1.0000
  C   C184      1.0  0.24733000000000002  0.0013999999999999993  0.7668499999999998  1.0000
  C   C185      1.0  0.33011  0.059779999999999986  0.79124  1.0000
  C   C186      1.0  0.32759  0.060669999999999995  0.8394  1.0000
  C   C187      1.0  0.27306  0.6296  0.83895  1.0000
  C   C188      1.0  0.28733  0.62737  0.09095  1.0000
  C   C189      1.0  0.25349  0.99871  0.21564  1.0000
  C   C190      1.0  0.21717999999999998  0.3792  0.08834999999999997  1.0000
  C   C191      1.0  0.22074  0.37431  0.83955  1.0000
  C   C192      1.0  0.24634  0.00071  0.7154699999999999  1.0000
  O   O1        1.0  0.6603  0.08601  0.66479  1.0000
  O   O2        1.0  0.88647  0.10953  0.67618  1.0000
  O   O3        1.0  0.67954  0.11408  0.37733  1.0000
  O   O4        1.0  0.87168  0.08008  0.41195  1.0000
  O   O5        1.0  0.6407399999999999  0.5047199999999997  0.26392  1.0000
  O   O6        1.0  0.8662799999999999  0.49216999999999994  0.26402  1.0000
  O   O7        1.0  0.62689  0.92447  0.41907  1.0000
  O   O8        1.0  0.82819  0.89964  0.38703  1.0000
  O   O9        1.0  0.6074599999999999  0.89281  0.67634  1.0000
  O   O10       1.0  0.83335  0.9169299999999998  0.6647299999999999  1.0000
  O   O11       1.0  0.63326  0.4957599999999999  0.80582  1.0000
  O   O12       1.0  0.85916  0.5037599999999998  0.80593  1.0000
  O   O13       1.0  0.83985  0.4127699999999999  0.16655  1.0000
  O   O14       1.0  0.61331  0.38916  0.1764  1.0000
  O   O15       1.0  0.8075699999999999  0.38234  0.87527  1.0000
  O   O16       1.0  0.62859  0.42072  0.91645  1.0000
  O   O17       1.0  0.8583799999999999  0.9924999999999999  0.7638699999999998  1.0000
  O   O18       1.0  0.63491  0.01124  0.76407  1.0000
  O   O19       1.0  0.8775199999999999  0.5787  0.91427  1.0000
  O   O20       1.0  0.6731  0.60281  0.88449  1.0000
  O   O21       1.0  0.89254  0.6070799999999997  0.17606999999999998  1.0000
  O   O22       1.0  0.66653  0.5825799999999998  0.16485  1.0000
  O   O23       1.0  0.86674  0.00418  0.30574  1.0000
  O   O24       1.0  0.64065  0.9961899999999999  0.30632  1.0000
  O   O25       1.0  0.33969  0.9139899999999997  0.33521  1.0000
  O   O26       1.0  0.11352999999999998  0.8904599999999998  0.32383  1.0000
  O   O27       1.0  0.32045999999999997  0.8859099999999998  0.62267  1.0000
  O   O28       1.0  0.12832  0.91992  0.58805  1.0000
  O   O29       1.0  0.35926  0.49531  0.7360799999999998  1.0000
  O   O30       1.0  0.13371  0.50782  0.7359899999999999  1.0000
  O   O31       1.0  0.37311  0.07552999999999997  0.58093  1.0000
  O   O32       1.0  0.17181  0.10036999999999997  0.61297  1.0000
  O   O33       1.0  0.39255  0.10718999999999997  0.32366  1.0000
  O   O34       1.0  0.16665  0.08307  0.33527  1.0000
  O   O35       1.0  0.36674  0.50424  0.19419  1.0000
  O   O36       1.0  0.14084  0.49624  0.19407  1.0000
  O   O37       1.0  0.16015  0.58721  0.83349  1.0000
  O   O38       1.0  0.38667  0.61083  0.8235999999999999  1.0000
  O   O39       1.0  0.19244  0.61766  0.12473  1.0000
  O   O40       1.0  0.37141  0.57927  0.08355  1.0000
  O   O41       1.0  0.14162  0.00749  0.23612999999999995  1.0000
  O   O42       1.0  0.36508999999999997  0.9887599999999999  0.23592999999999995  1.0000
  O   O43       1.0  0.12247999999999999  0.4213  0.08574  1.0000
  O   O44       1.0  0.3269  0.39719  0.11551999999999997  1.0000
  O   O45       1.0  0.10746000000000001  0.3929199999999999  0.82393  1.0000
  O   O46       1.0  0.33347  0.4174199999999999  0.83516  1.0000
  O   O47       1.0  0.13326  0.99582  0.6942599999999999  1.0000
  O   O48       1.0  0.35936  0.00381  0.69369  1.0000
