data_image0
_chemical_formula_structural       Zn6H136C152N28O36
_chemical_formula_sum              "Zn6 H136 C152 N28 O36"
_cell_length_a       11.4021
_cell_length_b       18.78391
_cell_length_c       23.929759999999998
_cell_angle_alpha    89.95439
_cell_angle_beta     90.00867000000001
_cell_angle_gamma    90.00361

_symmetry_space_group_name_H-M    'P 1'
_symmetry_Int_Tables_number       1

loop_
  _symmetry_equiv_pos_as_xyz
  'x,y,z'

loop_
  _atom_site_type_symbol
  _atom_site_label
  _atom_site_symmetry_multiplicity
  _atom_site_fract_x
  _atom_site_fract_y
  _atom_site_fract_z
  _atom_site_occupancy
  Zn  Zn1       1.0  0.53222  0.3015700000000001  0.51783  1.0000
  Zn  Zn2       1.0  0.53223  0.69867  0.4822699999999999  1.0000
  Zn  Zn3       1.0  0.4679199999999999  0.1988  0.01781  1.0000
  Zn  Zn4       1.0  0.46792999999999996  0.8014700000000001  0.9822099999999999  1.0000
  Zn  Zn5       1.0  0.53804  0.5014400000000001  0.49921999999999994  1.0000
  Zn  Zn6       1.0  0.46199999999999997  0.00126  0.00079  1.0000
  H   H1        1.0  0.57334  0.48032000000000014  0.6424  1.0000
  H   H2        1.0  0.35248  0.4019100000000001  0.68324  1.0000
  H   H3        1.0  0.39868  0.4882000000000001  0.7045  1.0000
  H   H4        1.0  0.35505999999999993  0.47428  0.6344899999999999  1.0000
  H   H5        1.0  0.9197399999999999  0.3931  0.74773  1.0000
  H   H6        1.0  0.87529  0.21173  0.85702  1.0000
  H   H7        1.0  0.59588  0.27692  0.74815  1.0000
  H   H8        1.0  0.23429999999999998  0.46675  0.7794999999999999  1.0000
  H   H9        1.0  0.20007  0.46566000000000013  0.85207  1.0000
  H   H10       1.0  0.34778  0.45126000000000005  0.8286799999999998  1.0000
  H   H11       1.0  0.24494  0.33568  0.85735  1.0000
  H   H12       1.0  0.29652  0.19797  0.84315  1.0000
  H   H13       1.0  0.32325  0.15453  0.77888  1.0000
  H   H14       1.0  0.27221999999999996  0.10429000000000002  0.8372  1.0000
  H   H15       1.0  0.48389999999999994  0.08173  0.8258499999999999  1.0000
  H   H16       1.0  0.11248  0.24663  0.44169  1.0000
  H   H17       1.0  0.33235  0.25251000000000007  0.4436099999999999  1.0000
  H   H18       1.0  0.33179  0.33328  0.60478  1.0000
  H   H19       1.0  0.11546999999999998  0.33976  0.6070399999999999  1.0000
  H   H20       1.0  0.9431399999999999  0.27528  0.61149  1.0000
  H   H21       1.0  0.7252099999999998  0.28189  0.60569  1.0000
  H   H22       1.0  0.73563  0.32549000000000006  0.4363599999999999  1.0000
  H   H23       1.0  0.9526299999999999  0.31963  0.43405999999999995  1.0000
  H   H24       1.0  0.4928299999999999  0.1746  0.59473  1.0000
  H   H25       1.0  0.49367  0.041490000000000006  0.5901899999999999  1.0000
  H   H26       1.0  0.5959  0.06067000000000001  0.4166099999999999  1.0000
  H   H27       1.0  0.58511  0.19219  0.42789  1.0000
  H   H28       1.0  0.7366699999999999  0.47148  0.58419  1.0000
  H   H29       1.0  0.9519899999999998  0.4708400000000001  0.5876499999999999  1.0000
  H   H30       1.0  0.12320999999999999  0.5647900000000001  0.57489  1.0000
  H   H31       1.0  0.33779  0.5637600000000001  0.5712899999999999  1.0000
  H   H32       1.0  0.53486  0.37418  0.7321099999999999  1.0000
  H   H33       1.0  0.10976  0.33697  0.75545  1.0000
  H   H34       1.0  0.49916999999999995  0.23613  0.8089399999999998  1.0000
  H   H35       1.0  0.57333  0.51972  0.35757999999999995  1.0000
  H   H36       1.0  0.35243  0.5980900000000001  0.31675  1.0000
  H   H37       1.0  0.39865  0.51179  0.2955  1.0000
  H   H38       1.0  0.35509  0.5257100000000001  0.3655  1.0000
  H   H39       1.0  0.9197499999999997  0.60691  0.25229  1.0000
  H   H40       1.0  0.87529  0.78825  0.14297  1.0000
  H   H41       1.0  0.5959  0.7231  0.25182  1.0000
  H   H42       1.0  0.23432  0.53323  0.2205  1.0000
  H   H43       1.0  0.20007999999999998  0.5343900000000001  0.14793999999999996  1.0000
  H   H44       1.0  0.34778  0.54878  0.17133999999999994  1.0000
  H   H45       1.0  0.24498  0.66437  0.14272999999999997  1.0000
  H   H46       1.0  0.29659  0.80203  0.15683  1.0000
  H   H47       1.0  0.32321  0.84541  0.22112999999999997  1.0000
  H   H48       1.0  0.27221999999999996  0.89568  0.16283  1.0000
  H   H49       1.0  0.48389999999999994  0.9182600000000001  0.17428999999999994  1.0000
  H   H50       1.0  0.11257  0.75335  0.55833  1.0000
  H   H51       1.0  0.33241  0.74748  0.5564  1.0000
  H   H52       1.0  0.33166  0.6667200000000001  0.39521  1.0000
  H   H53       1.0  0.11540999999999998  0.66024  0.39297  1.0000
  H   H54       1.0  0.9430899999999999  0.72472  0.38852  1.0000
  H   H55       1.0  0.7252399999999998  0.7181300000000002  0.39429  1.0000
  H   H56       1.0  0.73566  0.67453  0.56365  1.0000
  H   H57       1.0  0.95262  0.68041  0.5659599999999999  1.0000
  H   H58       1.0  0.4928299999999999  0.82543  0.40526999999999996  1.0000
  H   H59       1.0  0.49366  0.95852  0.40982  1.0000
  H   H60       1.0  0.5959  0.9393300000000001  0.58342  1.0000
  H   H61       1.0  0.58511  0.80783  0.57213  1.0000
  H   H62       1.0  0.73697  0.52864  0.4157  1.0000
  H   H63       1.0  0.9522  0.52907  0.41232  1.0000
  H   H64       1.0  0.12322  0.43512  0.4251799999999999  1.0000
  H   H65       1.0  0.33784  0.4363600000000001  0.42872  1.0000
  H   H66       1.0  0.53481  0.62585  0.26783  1.0000
  H   H67       1.0  0.10975  0.6630400000000001  0.24459  1.0000
  H   H68       1.0  0.49916999999999995  0.76388  0.19102999999999995  1.0000
  H   H69       1.0  0.4238899999999999  0.019100000000000002  0.14207  1.0000
  H   H70       1.0  0.64558  0.09717  0.18273  1.0000
  H   H71       1.0  0.6002499999999998  0.01049  0.20379999999999995  1.0000
  H   H72       1.0  0.6418  0.02533  0.13362999999999997  1.0000
  H   H73       1.0  0.08  0.10817000000000002  0.24759999999999993  1.0000
  H   H74       1.0  0.12228999999999998  0.29126  0.35514  1.0000
  H   H75       1.0  0.40501  0.22272000000000003  0.24951999999999994  1.0000
  H   H76       1.0  0.7621399999999998  0.03278  0.27926  1.0000
  H   H77       1.0  0.79552  0.03368  0.35185  1.0000
  H   H78       1.0  0.64872  0.0501  0.32794  1.0000
  H   H79       1.0  0.7552799999999998  0.16495  0.35601999999999995  1.0000
  H   H80       1.0  0.70279  0.30248  0.3432899999999999  1.0000
  H   H81       1.0  0.6764899999999999  0.34603000000000006  0.27895  1.0000
  H   H82       1.0  0.7272699999999999  0.3961300000000001  0.33728  1.0000
  H   H83       1.0  0.51534  0.41858  0.32565  1.0000
  H   H84       1.0  0.8872099999999999  0.25548  0.9420699999999997  1.0000
  H   H85       1.0  0.6673  0.24855  0.94363  1.0000
  H   H86       1.0  0.66817  0.16647  0.10454  1.0000
  H   H87       1.0  0.88438  0.16023000000000004  0.10680999999999997  1.0000
  H   H88       1.0  0.0571  0.22499  0.11119999999999998  1.0000
  H   H89       1.0  0.27489  0.21804  0.10529999999999998  1.0000
  H   H90       1.0  0.26394999999999996  0.1747  0.9359899999999998  1.0000
  H   H91       1.0  0.04689  0.18111  0.93378  1.0000
  H   H92       1.0  0.50718  0.32526  0.09459  1.0000
  H   H93       1.0  0.50636  0.45837000000000006  0.09005999999999999  1.0000
  H   H94       1.0  0.40413  0.43949000000000005  0.9164299999999999  1.0000
  H   H95       1.0  0.4149  0.30804000000000004  0.9277699999999999  1.0000
  H   H96       1.0  0.26226999999999995  0.02886  0.08463999999999998  1.0000
  H   H97       1.0  0.047099999999999996  0.028950000000000004  0.08764999999999998  1.0000
  H   H98       1.0  0.87716  0.93486  0.07477999999999999  1.0000
  H   H99       1.0  0.6624499999999999  0.93629  0.07143  1.0000
  H   H100      1.0  0.4627599999999999  0.12659  0.23105  1.0000
  H   H101      1.0  0.89457  0.15618  0.25486  1.0000
  H   H102      1.0  0.50108  0.2645  0.30885  1.0000
  H   H103      1.0  0.42375999999999997  0.9812300000000003  0.8580199999999999  1.0000
  H   H104      1.0  0.64516  0.90281  0.81742  1.0000
  H   H105      1.0  0.6001  0.9895  0.7962299999999999  1.0000
  H   H106      1.0  0.64185  0.97477  0.8664399999999999  1.0000
  H   H107      1.0  0.07997  0.89182  0.75244  1.0000
  H   H108      1.0  0.12236999999999998  0.70876  0.64488  1.0000
  H   H109      1.0  0.40504  0.77731  0.7505599999999999  1.0000
  H   H110      1.0  0.76216  0.9672000000000002  0.72075  1.0000
  H   H111      1.0  0.7955299999999998  0.9663900000000001  0.64816  1.0000
  H   H112      1.0  0.6487499999999999  0.9499200000000001  0.67205  1.0000
  H   H113      1.0  0.7553599999999999  0.83511  0.6439099999999999  1.0000
  H   H114      1.0  0.70282  0.69753  0.65672  1.0000
  H   H115      1.0  0.6765199999999999  0.65399  0.72106  1.0000
  H   H116      1.0  0.72723  0.6038700000000001  0.66274  1.0000
  H   H117      1.0  0.51531  0.58146  0.67432  1.0000
  H   H118      1.0  0.8873299999999998  0.74449  0.05791  1.0000
  H   H119      1.0  0.6673999999999999  0.7514  0.05639  1.0000
  H   H120      1.0  0.66804  0.8335  0.8955  1.0000
  H   H121      1.0  0.8842899999999998  0.83974  0.8931799999999999  1.0000
  H   H122      1.0  0.05711999999999998  0.77504  0.8887899999999997  1.0000
  H   H123      1.0  0.27493  0.78204  0.89474  1.0000
  H   H124      1.0  0.26394  0.8252600000000002  0.06405  1.0000
  H   H125      1.0  0.04684  0.8188800000000002  0.06622  1.0000
  H   H126      1.0  0.50719  0.67491  0.9054499999999998  1.0000
  H   H127      1.0  0.50632  0.54179  0.9099499999999998  1.0000
  H   H128      1.0  0.40416  0.56063  0.08357999999999999  1.0000
  H   H129      1.0  0.41492999999999997  0.6921100000000001  0.07223  1.0000
  H   H130      1.0  0.26383  0.97188  0.9161199999999998  1.0000
  H   H131      1.0  0.048729999999999996  0.97085  0.9123499999999999  1.0000
  H   H132      1.0  0.8769299999999998  0.06476000000000001  0.9249999999999998  1.0000
  H   H133      1.0  0.66228  0.06417  0.92896  1.0000
  H   H134      1.0  0.46274  0.8733600000000001  0.7692699999999998  1.0000
  H   H135      1.0  0.8946099999999998  0.8438500000000002  0.7450999999999998  1.0000
  H   H136      1.0  0.50117  0.7355700000000001  0.69117  1.0000
  C   C1        1.0  0.53225  0.3814  0.60514  1.0000
  C   C2        1.0  0.52722  0.43185000000000007  0.6551899999999999  1.0000
  C   C3        1.0  0.40013  0.44981  0.67002  1.0000
  C   C4        1.0  0.7036999999999999  0.38842  0.70049  1.0000
  C   C5        1.0  0.75238  0.34027  0.74437  1.0000
  C   C6        1.0  0.86754  0.34904  0.7637299999999998  1.0000
  C   C7        1.0  0.91275  0.30293  0.80453  1.0000
  C   C8        1.0  0.8417999999999999  0.24781  0.8252799999999998  1.0000
  C   C9        1.0  0.72737  0.23842000000000002  0.8057199999999999  1.0000
  C   C10       1.0  0.68373  0.28445  0.7646899999999999  1.0000
  C   C11       1.0  0.030899999999999997  0.31475  0.8309099999999999  1.0000
  C   C12       1.0  0.25479999999999997  0.44103  0.8196099999999998  1.0000
  C   C13       1.0  0.23323999999999998  0.3601  0.8160099999999998  1.0000
  C   C14       1.0  0.32086999999999993  0.3265  0.77354  1.0000
  C   C15       1.0  0.6524599999999999  0.1804  0.8292999999999999  1.0000
  C   C16       1.0  0.32927  0.14848  0.82442  1.0000
  C   C17       1.0  0.45594  0.1334  0.84241  1.0000
  C   C18       1.0  0.4633599999999999  0.12722  0.9066099999999998  1.0000
  C   C19       1.0  0.15863  0.26871000000000006  0.47766  1.0000
  C   C20       1.0  0.28046  0.27034  0.47907  1.0000
  C   C21       1.0  0.28105  0.31713  0.5686  1.0000
  C   C22       1.0  0.15941  0.3189600000000001  0.57013  1.0000
  C   C23       1.0  0.0959  0.29487  0.52374  1.0000
  C   C24       1.0  0.96698  0.2976800000000001  0.52304  1.0000
  C   C25       1.0  0.90101  0.28703  0.5717499999999999  1.0000
  C   C26       1.0  0.7794599999999999  0.28989  0.5689  1.0000
  C   C27       1.0  0.785  0.3146300000000001  0.47415999999999997  1.0000
  C   C28       1.0  0.9065  0.3119  0.47331  1.0000
  C   C29       1.0  0.5149899999999998  0.14658  0.55628  1.0000
  C   C30       1.0  0.51671  0.07263  0.5534499999999999  1.0000
  C   C31       1.0  0.5448  0.03922  0.5026199999999998  1.0000
  C   C32       1.0  0.57113  0.08308000000000001  0.4568  1.0000
  C   C33       1.0  0.56724  0.15665  0.4628899999999999  1.0000
  C   C34       1.0  0.7863199999999999  0.48491  0.54687  1.0000
  C   C35       1.0  0.9084099999999999  0.4847  0.54864  1.0000
  C   C36       1.0  0.16632  0.5354  0.54156  1.0000
  C   C37       1.0  0.28836  0.53508  0.5396899999999999  1.0000
  C   C38       1.0  0.53229  0.6187800000000001  0.39462  1.0000
  C   C39       1.0  0.52724  0.5681700000000001  0.34472999999999987  1.0000
  C   C40       1.0  0.4001  0.5502000000000002  0.32996999999999993  1.0000
  C   C41       1.0  0.7037099999999997  0.61159  0.29948  1.0000
  C   C42       1.0  0.75239  0.65973  0.25562  1.0000
  C   C43       1.0  0.8675499999999999  0.65096  0.23628  1.0000
  C   C44       1.0  0.91276  0.69707  0.19547999999999996  1.0000
  C   C45       1.0  0.8418099999999998  0.7521800000000002  0.17470999999999995  1.0000
  C   C46       1.0  0.7273799999999999  0.76157  0.19426  1.0000
  C   C47       1.0  0.68374  0.71554  0.23528  1.0000
  C   C48       1.0  0.030909999999999993  0.68525  0.16911  1.0000
  C   C49       1.0  0.2548099999999999  0.559  0.18041  1.0000
  C   C50       1.0  0.23326  0.63993  0.18406  1.0000
  C   C51       1.0  0.32088  0.67349  0.22656999999999994  1.0000
  C   C52       1.0  0.65247  0.8196  0.17069  1.0000
  C   C53       1.0  0.32929  0.8515100000000001  0.17559999999999998  1.0000
  C   C54       1.0  0.45594999999999997  0.8666300000000001  0.15765  1.0000
  C   C55       1.0  0.46338  0.87293  0.09345  1.0000
  C   C56       1.0  0.15868  0.7312900000000001  0.52235  1.0000
  C   C57       1.0  0.28051  0.72965  0.5209399999999998  1.0000
  C   C58       1.0  0.28102  0.68287  0.43140999999999996  1.0000
  C   C59       1.0  0.15938  0.68104  0.4298799999999999  1.0000
  C   C60       1.0  0.09590999999999997  0.7051200000000002  0.47627999999999987  1.0000
  C   C61       1.0  0.96698  0.70232  0.4769799999999999  1.0000
  C   C62       1.0  0.90099  0.71297  0.42826  1.0000
  C   C63       1.0  0.77944  0.7101000000000002  0.43108999999999986  1.0000
  C   C64       1.0  0.785  0.68537  0.52584  1.0000
  C   C65       1.0  0.9065  0.68812  0.5267  1.0000
  C   C66       1.0  0.5149999999999999  0.85345  0.4437199999999999  1.0000
  C   C67       1.0  0.51671  0.92739  0.44656999999999997  1.0000
  C   C68       1.0  0.5448  0.9608  0.4974  1.0000
  C   C69       1.0  0.5711399999999999  0.9169400000000001  0.54322  1.0000
  C   C70       1.0  0.56726  0.84337  0.53714  1.0000
  C   C71       1.0  0.7865199999999999  0.5152300000000001  0.45305  1.0000
  C   C72       1.0  0.9085799999999999  0.51527  0.45130999999999993  1.0000
  C   C73       1.0  0.16634  0.46455  0.45849  1.0000
  C   C74       1.0  0.28838  0.46506000000000003  0.46029  1.0000
  C   C75       1.0  0.46671  0.11843  0.10541999999999997  1.0000
  C   C76       1.0  0.47032  0.06738  0.15509  1.0000
  C   C77       1.0  0.59767  0.04932  0.16958999999999994  1.0000
  C   C78       1.0  0.29377  0.11089000000000002  0.20124  1.0000
  C   C79       1.0  0.24717  0.16027  0.24480999999999994  1.0000
  C   C80       1.0  0.13154999999999997  0.15230000000000002  0.26372  1.0000
  C   C81       1.0  0.08576999999999999  0.19883  0.30396  1.0000
  C   C82       1.0  0.15675  0.25408  0.32445  1.0000
  C   C83       1.0  0.2721  0.26238000000000006  0.30565  1.0000
  C   C84       1.0  0.31633  0.21567  0.26528  1.0000
  C   C85       1.0  0.96672  0.18766  0.32945  1.0000
  C   C86       1.0  0.7421599999999999  0.05897000000000001  0.3192  1.0000
  C   C87       1.0  0.76644  0.13949000000000003  0.31512999999999997  1.0000
  C   C88       1.0  0.6798799999999999  0.17331000000000002  0.27248  1.0000
  C   C89       1.0  0.34734  0.32017  0.32930999999999994  1.0000
  C   C90       1.0  0.67026  0.35199  0.32447999999999994  1.0000
  C   C91       1.0  0.5436899999999999  0.36709  0.34244999999999987  1.0000
  C   C92       1.0  0.5366299999999999  0.3733500000000001  0.4066299999999999  1.0000
  C   C93       1.0  0.84104  0.23251000000000002  0.9777299999999998  1.0000
  C   C94       1.0  0.71922  0.23047000000000004  0.9790399999999998  1.0000
  C   C95       1.0  0.71883  0.18286000000000005  0.06837  1.0000
  C   C96       1.0  0.84049  0.18121  0.06991999999999998  1.0000
  C   C97       1.0  0.90389  0.20578  0.02361  1.0000
  C   C98       1.0  0.03285  0.20291  0.022749999999999992  1.0000
  C   C99       1.0  0.09903  0.21328  0.07143  1.0000
  C   C100      1.0  0.22054999999999994  0.21014  0.06854  1.0000
  C   C101      1.0  0.21473999999999996  0.18564  0.9738099999999998  1.0000
  C   C102      1.0  0.09322  0.18876  0.97299  1.0000
  C   C103      1.0  0.48491  0.3533600000000001  0.05615999999999999  1.0000
  C   C104      1.0  0.48318999999999995  0.4273  0.05333999999999999  1.0000
  C   C105      1.0  0.4549599999999999  0.4608400000000001  0.00254  1.0000
  C   C106      1.0  0.42876999999999993  0.4170700000000001  0.95668  1.0000
  C   C107      1.0  0.43265999999999993  0.3434900000000001  0.96278  1.0000
  C   C108      1.0  0.21316999999999997  0.0154  0.04718  1.0000
  C   C109      1.0  0.09108999999999999  0.01525  0.04874  1.0000
  C   C110      1.0  0.8339  0.96436  0.041499999999999995  1.0000
  C   C111      1.0  0.7118699999999999  0.96498  0.0398  1.0000
  C   C112      1.0  0.4666  0.88212  0.89508  1.0000
  C   C113      1.0  0.47017  0.9328700000000001  0.8451299999999999  1.0000
  C   C114      1.0  0.59752  0.95078  0.83053  1.0000
  C   C115      1.0  0.2937  0.8892000000000001  0.79895  1.0000
  C   C116      1.0  0.24715  0.83976  0.75534  1.0000
  C   C117      1.0  0.13157  0.84769  0.7363399999999999  1.0000
  C   C118      1.0  0.08582  0.80118  0.69606  1.0000
  C   C119      1.0  0.1568  0.7459500000000002  0.67558  1.0000
  C   C120      1.0  0.27214  0.73768  0.69441  1.0000
  C   C121      1.0  0.31634  0.7843800000000002  0.73482  1.0000
  C   C122      1.0  0.9667699999999999  0.8123500000000002  0.6705299999999997  1.0000
  C   C123      1.0  0.7421899999999999  0.94105  0.68079  1.0000
  C   C124      1.0  0.7665  0.86054  0.68481  1.0000
  C   C125      1.0  0.67993  0.8266900000000001  0.72742  1.0000
  C   C126      1.0  0.34736  0.67988  0.67072  1.0000
  C   C127      1.0  0.6702699999999999  0.6480300000000001  0.6755299999999999  1.0000
  C   C128      1.0  0.54367  0.63298  0.65756  1.0000
  C   C129      1.0  0.53661  0.62682  0.59339  1.0000
  C   C130      1.0  0.8411099999999998  0.7674700000000001  0.02227  1.0000
  C   C131      1.0  0.7193  0.76951  0.020979999999999995  1.0000
  C   C132      1.0  0.71878  0.81712  0.9316499999999999  1.0000
  C   C133      1.0  0.8404399999999999  0.81875  0.9300799999999998  1.0000
  C   C134      1.0  0.90389  0.7942  0.9763799999999998  1.0000
  C   C135      1.0  0.03284  0.7971  0.9772399999999999  1.0000
  C   C136      1.0  0.09903  0.78675  0.92858  1.0000
  C   C137      1.0  0.22054999999999994  0.7899100000000001  0.93149  1.0000
  C   C138      1.0  0.2147  0.81436  0.026219999999999993  1.0000
  C   C139      1.0  0.09318999999999997  0.81124  0.02702  1.0000
  C   C140      1.0  0.48491  0.6468000000000002  0.94387  1.0000
  C   C141      1.0  0.48318  0.57286  0.9466799999999999  1.0000
  C   C142      1.0  0.45497  0.5393  0.9974699999999997  1.0000
  C   C143      1.0  0.42879  0.58306  0.04332999999999999  1.0000
  C   C144      1.0  0.43268  0.65665  0.03724  1.0000
  C   C145      1.0  0.21397999999999998  0.98505  0.9533999999999999  1.0000
  C   C146      1.0  0.09191999999999999  0.9846800000000001  0.95144  1.0000
  C   C147      1.0  0.83381  0.035390000000000005  0.9584  1.0000
  C   C148      1.0  0.7117899999999999  0.03524000000000001  0.96043  1.0000
  C   C149      1.0  0.97237  0.49998  0.4999999999999999  1.0000
  C   C150      1.0  0.10215999999999999  0.4999700000000001  0.50002  1.0000
  C   C151      1.0  0.0277  0.99986  0.9999799999999999  1.0000
  C   C152      1.0  0.8979499999999999  0.9998  0.9998899999999998  1.0000
  N   N1        1.0  0.5862  0.40051000000000003  0.70311  1.0000
  N   N2        1.0  0.11348999999999997  0.34565  0.79766  1.0000
  N   N3        1.0  0.53485  0.18765000000000007  0.8209  1.0000
  N   N4        1.0  0.34146  0.29463000000000006  0.52351  1.0000
  N   N5        1.0  0.72168  0.30359  0.52089  1.0000
  N   N6        1.0  0.53945  0.18803  0.51178  1.0000
  N   N7        1.0  0.58618  0.59948  0.29681  1.0000
  N   N8        1.0  0.11349999999999998  0.65436  0.20239  1.0000
  N   N9        1.0  0.53486  0.8123500000000002  0.17909999999999995  1.0000
  N   N10       1.0  0.34149  0.70534  0.47649999999999987  1.0000
  N   N11       1.0  0.72165  0.6963900000000001  0.47909999999999997  1.0000
  N   N12       1.0  0.53947  0.8120000000000002  0.48823  1.0000
  N   N13       1.0  0.41166  0.09884  0.20305999999999996  1.0000
  N   N14       1.0  0.8870799999999999  0.15236  0.29736999999999997  1.0000
  N   N15       1.0  0.46491  0.31267  0.32126  1.0000
  N   N16       1.0  0.6583199999999999  0.2055  0.023319999999999997  1.0000
  N   N17       1.0  0.27824  0.19634000000000001  0.020539999999999996  1.0000
  N   N18       1.0  0.46035  0.31198000000000004  0.011679999999999996  1.0000
  N   N19       1.0  0.41161  0.9012600000000001  0.7971599999999998  1.0000
  N   N20       1.0  0.88714  0.84766  0.70259  1.0000
  N   N21       1.0  0.46494  0.68739  0.67877  1.0000
  N   N22       1.0  0.6583499999999999  0.7944900000000001  0.97672  1.0000
  N   N23       1.0  0.2782  0.8036900000000002  0.97951  1.0000
  N   N24       1.0  0.46035999999999994  0.68817  0.9883499999999997  1.0000
  N   N25       1.0  0.72558  0.50018  0.49994  1.0000
  N   N26       1.0  0.34961  0.5001900000000001  0.49994  1.0000
  N   N27       1.0  0.27442  0.0003700000000000001  0.00037999999999999997  1.0000
  N   N28       1.0  0.65061  0.00028  0.00020999999999999998  1.0000
  O   O1        1.0  0.5292  0.40747  0.55519  1.0000
  O   O2        1.0  0.5358  0.31471  0.6122499999999998  1.0000
  O   O3        1.0  0.7681099999999998  0.41447000000000006  0.66347  1.0000
  O   O4        1.0  0.27986  0.30697  0.7271299999999998  1.0000
  O   O5        1.0  0.42805  0.32523  0.7899699999999998  1.0000
  O   O6        1.0  0.04762999999999999  0.29957000000000006  0.8809799999999998  1.0000
  O   O7        1.0  0.47607  0.18549  0.9333999999999999  1.0000
  O   O8        1.0  0.45187  0.06562000000000001  0.92737  1.0000
  O   O9        1.0  0.6960899999999999  0.12878  0.85504  1.0000
  O   O10       1.0  0.5292  0.59287  0.4446999999999999  1.0000
  O   O11       1.0  0.5358099999999999  0.68536  0.3875  1.0000
  O   O12       1.0  0.7680499999999999  0.58556  0.3365299999999999  1.0000
  O   O13       1.0  0.27987  0.693  0.27297  1.0000
  O   O14       1.0  0.42801  0.67476  0.21011999999999995  1.0000
  O   O15       1.0  0.04762999999999999  0.70042  0.11904  1.0000
  O   O16       1.0  0.47591999999999995  0.81466  0.06664999999999999  1.0000
  O   O17       1.0  0.45203  0.9345900000000001  0.07277999999999998  1.0000
  O   O18       1.0  0.6960999999999999  0.8712400000000001  0.14499  1.0000
  O   O19       1.0  0.47071  0.09277  0.05532  1.0000
  O   O20       1.0  0.4637199999999999  0.18496  0.11281999999999999  1.0000
  O   O21       1.0  0.22747999999999996  0.08408  0.16563  1.0000
  O   O22       1.0  0.7207  0.18917000000000006  0.22510999999999995  1.0000
  O   O23       1.0  0.5735899999999999  0.17827  0.2894999999999999  1.0000
  O   O24       1.0  0.94662  0.20736000000000004  0.37839999999999996  1.0000
  O   O25       1.0  0.524  0.31496  0.4333799999999999  1.0000
  O   O26       1.0  0.54808  0.43494000000000005  0.42730999999999997  1.0000
  O   O27       1.0  0.30383  0.37176  0.3550499999999999  1.0000
  O   O28       1.0  0.47064999999999996  0.9079900000000001  0.9450199999999999  1.0000
  O   O29       1.0  0.4636799999999999  0.81547  0.8879199999999998  1.0000
  O   O30       1.0  0.22747  0.9161000000000001  0.83454  1.0000
  O   O31       1.0  0.72078  0.81087  0.7748  1.0000
  O   O32       1.0  0.57371  0.82165  0.71028  1.0000
  O   O33       1.0  0.94665  0.79262  0.62159  1.0000
  O   O34       1.0  0.52396  0.68522  0.56664  1.0000
  O   O35       1.0  0.54809  0.56528  0.57264  1.0000
  O   O36       1.0  0.30385  0.6283100000000001  0.64496  1.0000
