data_image0
_chemical_formula_structural       Eu8Si6H96C168O48
_chemical_formula_sum              "Eu8 Si6 H96 C168 O48"
_cell_length_a       18.84051
_cell_length_b       18.83165
_cell_length_c       23.62084
_cell_angle_alpha    89.96983999999999
_cell_angle_beta     90.03055
_cell_angle_gamma    114.24733999999998

_space_group_name_H-M_alt    "P 1"
_space_group_IT_number       1

loop_
  _space_group_symop_operation_xyz
  'x, y, z'

loop_
  _atom_site_type_symbol
  _atom_site_label
  _atom_site_symmetry_multiplicity
  _atom_site_fract_x
  _atom_site_fract_y
  _atom_site_fract_z
  _atom_site_occupancy
  Eu  Eu1       1.0  0.004990000000000003  0.61818  0.99963  1.0000
  Eu  Eu2       1.0  0.76866  0.6928500000000002  0.00033  1.0000
  Eu  Eu3       1.0  0.9955400000000001  0.38249  0.00028  1.0000
  Eu  Eu4       1.0  0.23186  0.30767000000000005  0.99907  1.0000
  Eu  Eu5       1.0  0.38238  0.99512  0.50087  1.0000
  Eu  Eu6       1.0  0.30816  0.23228  0.50047  1.0000
  Eu  Eu7       1.0  0.61793  0.00516  0.5006  1.0000
  Eu  Eu8       1.0  0.69313  0.76883  0.49946  1.0000
  Si  Si1       1.0  0.00017000000000000004  0.00010000000000000005  0.25002  1.0000
  Si  Si2       1.0  2.0000000000000052e-05  0.00028  0.74991  1.0000
  Si  Si3       1.0  0.38296  0.61723  0.75026  1.0000
  Si  Si4       1.0  0.61787  0.3833100000000001  0.7500799999999999  1.0000
  Si  Si5       1.0  0.61713  0.3826400000000001  0.24984000000000003  1.0000
  Si  Si6       1.0  0.38291  0.61784  0.25012  1.0000
  H   H1        1.0  0.07684999999999999  0.82634  0.125  1.0000
  H   H2        1.0  0.8565300000000001  0.87868  0.19987  1.0000
  H   H3        1.0  0.31389  0.80171  0.62948  1.0000
  H   H4        1.0  0.83197  0.77228  0.13153  1.0000
  H   H5        1.0  0.28364  0.69335  0.69891  1.0000
  H   H6        1.0  0.52125  0.71743  0.68674  1.0000
  H   H7        1.0  0.10242000000000005  0.9334400000000002  0.19438  1.0000
  H   H8        1.0  0.54995  0.82492  0.6176  1.0000
  H   H9        1.0  0.62495  0.79554  0.85715  1.0000
  H   H10       1.0  0.51574  0.7687300000000002  0.7896900000000001  1.0000
  H   H11       1.0  0.44988  0.52257  0.8087700000000001  1.0000
  H   H12       1.0  0.55852  0.55066  0.87818  1.0000
  H   H13       1.0  0.9241700000000002  0.17446  0.12468  1.0000
  H   H14       1.0  0.14394000000000007  0.12110000000000001  0.19995999999999997  1.0000
  H   H15       1.0  0.68676  0.1987  0.62974  1.0000
  H   H16       1.0  0.16882  0.22759  0.13141  1.0000
  H   H17       1.0  0.7169300000000001  0.30697  0.6991100000000001  1.0000
  H   H18       1.0  0.47944000000000003  0.28308  0.6866  1.0000
  H   H19       1.0  0.8980100000000001  0.06711  0.19411  1.0000
  H   H20       1.0  0.45065000000000005  0.17549  0.61763  1.0000
  H   H21       1.0  0.37543  0.20423000000000005  0.85621  1.0000
  H   H22       1.0  0.4852000000000001  0.23148  0.78923  1.0000
  H   H23       1.0  0.55054  0.47759  0.80853  1.0000
  H   H24       1.0  0.44124  0.44883  0.8774599999999999  1.0000
  H   H25       1.0  0.17376000000000005  0.9230900000000001  0.37525  1.0000
  H   H26       1.0  0.12171000000000001  0.14364  0.30005  1.0000
  H   H27       1.0  0.19907  0.68723  0.87069  1.0000
  H   H28       1.0  0.22790999999999997  0.1681  0.36857  1.0000
  H   H29       1.0  0.30662000000000006  0.7167600000000001  0.80082  1.0000
  H   H30       1.0  0.2822  0.47892  0.81361  1.0000
  H   H31       1.0  0.06686000000000002  0.89756  0.30576  1.0000
  H   H32       1.0  0.17557000000000003  0.45099  0.88325  1.0000
  H   H33       1.0  0.20426  0.37517  0.64358  1.0000
  H   H34       1.0  0.23129000000000002  0.48469000000000007  0.7108500000000001  1.0000
  H   H35       1.0  0.47735  0.55005  0.69194  1.0000
  H   H36       1.0  0.44889000000000007  0.441  0.62284  1.0000
  H   H37       1.0  0.8266  0.07727  0.37507999999999997  1.0000
  H   H38       1.0  0.8785400000000001  0.8566200000000002  0.3  1.0000
  H   H39       1.0  0.80216  0.31428  0.8714300000000001  1.0000
  H   H40       1.0  0.77228  0.83226  0.36844  1.0000
  H   H41       1.0  0.69461  0.2838  0.80142  1.0000
  H   H42       1.0  0.7180100000000001  0.5214700000000002  0.81324  1.0000
  H   H43       1.0  0.9336  0.1029  0.30548  1.0000
  H   H44       1.0  0.82493  0.55026  0.88281  1.0000
  H   H45       1.0  0.7955100000000003  0.62528  0.64275  1.0000
  H   H46       1.0  0.7691500000000001  0.5162200000000002  0.71037  1.0000
  H   H47       1.0  0.52283  0.45023  0.69175  1.0000
  H   H48       1.0  0.55077  0.55875  0.62216  1.0000
  H   H49       1.0  0.9224199999999999  0.17341  0.87491  1.0000
  H   H50       1.0  0.14333  0.12185  0.8002  1.0000
  H   H51       1.0  0.68681  0.19864000000000007  0.3707  1.0000
  H   H52       1.0  0.16742  0.22804  0.8686800000000001  1.0000
  H   H53       1.0  0.7162799999999999  0.30601  0.30061  1.0000
  H   H54       1.0  0.47862  0.28153  0.31294  1.0000
  H   H55       1.0  0.8973  0.06656  0.80539  1.0000
  H   H56       1.0  0.45068  0.17511  0.38291  1.0000
  H   H57       1.0  0.37491  0.20437  0.14306  1.0000
  H   H58       1.0  0.48408000000000007  0.23108000000000006  0.21057  1.0000
  H   H59       1.0  0.55032  0.47734000000000004  0.19128  1.0000
  H   H60       1.0  0.44165  0.44923  0.12192  1.0000
  H   H61       1.0  0.07643999999999998  0.8262  0.8752100000000002  1.0000
  H   H62       1.0  0.8565899999999999  0.87921  0.79997  1.0000
  H   H63       1.0  0.3132600000000001  0.8013600000000002  0.37149  1.0000
  H   H64       1.0  0.83182  0.7727900000000002  0.86854  1.0000
  H   H65       1.0  0.28364  0.69456  0.30089  1.0000
  H   H66       1.0  0.5214000000000001  0.7188100000000001  0.31314  1.0000
  H   H67       1.0  0.10247999999999996  0.9333199999999999  0.80554  1.0000
  H   H68       1.0  0.54929  0.82484  0.38349000000000005  1.0000
  H   H69       1.0  0.62494  0.79593  0.1434  1.0000
  H   H70       1.0  0.5159400000000001  0.7691300000000002  0.21103000000000002  1.0000
  H   H71       1.0  0.44938  0.5228500000000003  0.19155000000000003  1.0000
  H   H72       1.0  0.55779  0.55103  0.12199  1.0000
  H   H73       1.0  0.8258199999999999  0.07617  0.62462  1.0000
  H   H74       1.0  0.8790500000000001  0.85633  0.69991  1.0000
  H   H75       1.0  0.80095  0.31244  0.1291  1.0000
  H   H76       1.0  0.77254  0.83137  0.63158  1.0000
  H   H77       1.0  0.69349  0.28287  0.19892  1.0000
  H   H78       1.0  0.71792  0.52071  0.18647  1.0000
  H   H79       1.0  0.9331700000000002  0.10241  0.69402  1.0000
  H   H80       1.0  0.8246  0.54875  0.11678  1.0000
  H   H81       1.0  0.79547  0.62513  0.35662  1.0000
  H   H82       1.0  0.7686099999999999  0.51599  0.2891  1.0000
  H   H83       1.0  0.52256  0.45032  0.30807  1.0000
  H   H84       1.0  0.55089  0.55881  0.37760000000000005  1.0000
  H   H85       1.0  0.17377000000000006  0.9238800000000003  0.6248  1.0000
  H   H86       1.0  0.12137  0.1442  0.6999499999999999  1.0000
  H   H87       1.0  0.19956  0.68811  0.1292  1.0000
  H   H88       1.0  0.22762999999999997  0.16881000000000004  0.63145  1.0000
  H   H89       1.0  0.30671  0.71736  0.19929  1.0000
  H   H90       1.0  0.28233  0.47965  0.1868  1.0000
  H   H91       1.0  0.06672000000000004  0.89806  0.69434  1.0000
  H   H92       1.0  0.17609  0.45176  0.1168  1.0000
  H   H93       1.0  0.20433  0.37535  0.35649  1.0000
  H   H94       1.0  0.23128  0.48458000000000007  0.28889  1.0000
  H   H95       1.0  0.47736000000000006  0.54999  0.30791  1.0000
  H   H96       1.0  0.4489  0.4413  0.37749000000000005  1.0000
  C   C1        1.0  0.45172  0.88555  0.57936  1.0000
  C   C2        1.0  0.43362  0.8201200000000002  0.6202  1.0000
  C   C3        1.0  0.9367500000000001  0.72834  0.08178  1.0000
  C   C4        1.0  0.9529300000000003  0.7924500000000002  0.12393  1.0000
  C   C5        1.0  0.98135  0.91392  0.20282  1.0000
  C   C6        1.0  0.40073  0.69878  0.6991800000000001  1.0000
  C   C7        1.0  0.02919  0.83823  0.14196  1.0000
  C   C8        1.0  0.9053300000000002  0.8676800000000002  0.18408  1.0000
  C   C9        1.0  0.3585000000000001  0.7826200000000002  0.64281  1.0000
  C   C10       1.0  0.8911000000000001  0.80758  0.14538  1.0000
  C   C11       1.0  0.3422400000000001  0.7223400000000002  0.6818000000000001  1.0000
  C   C12       1.0  0.47543000000000013  0.7357500000000001  0.67492  1.0000
  C   C13       1.0  0.04296999999999998  0.89817  0.18091  1.0000
  C   C14       1.0  0.49211000000000005  0.79601  0.63595  1.0000
  C   C15       1.0  0.47444000000000003  0.6430300000000002  0.79375  1.0000
  C   C16       1.0  0.66337  0.68566  0.91164  1.0000
  C   C17       1.0  0.59897  0.6741  0.87092  1.0000
  C   C18       1.0  0.58657  0.73588  0.8461  1.0000
  C   C19       1.0  0.52482  0.72018  0.80821  1.0000
  C   C20       1.0  0.48800000000000004  0.58237  0.8191399999999999  1.0000
  C   C21       1.0  0.54871  0.59737  0.85743  1.0000
  C   C22       1.0  0.54906  0.11518  0.57923  1.0000
  C   C23       1.0  0.56698  0.18031  0.62029  1.0000
  C   C24       1.0  0.06469  0.27191  0.08156  1.0000
  C   C25       1.0  0.048050000000000016  0.20788000000000006  0.12386  1.0000
  C   C26       1.0  0.019089999999999992  0.08625  0.20276  1.0000
  C   C27       1.0  0.59993  0.30168  0.6991400000000001  1.0000
  C   C28       1.0  0.9716699999999999  0.16233  0.14179  1.0000
  C   C29       1.0  0.09522  0.13226  0.18408  1.0000
  C   C30       1.0  0.64211  0.21776  0.64295  1.0000
  C   C31       1.0  0.10971  0.19246000000000005  0.14539  1.0000
  C   C32       1.0  0.6583600000000001  0.27802  0.68191  1.0000
  C   C33       1.0  0.52523  0.26472000000000007  0.67485  1.0000
  C   C34       1.0  0.95758  0.10222  0.18073  1.0000
  C   C35       1.0  0.50852  0.20443  0.63596  1.0000
  C   C36       1.0  0.5262  0.35715  0.79342  1.0000
  C   C37       1.0  0.33668000000000003  0.31425  0.91055  1.0000
  C   C38       1.0  0.40114000000000005  0.32559  0.87003  1.0000
  C   C39       1.0  0.4138000000000001  0.26396  0.84536  1.0000
  C   C40       1.0  0.47584  0.27989  0.80772  1.0000
  C   C41       1.0  0.5124  0.41768  0.81873  1.0000
  C   C42       1.0  0.45139  0.40237  0.8567200000000001  1.0000
  C   C43       1.0  0.11597000000000002  0.54899  0.92187  1.0000
  C   C44       1.0  0.18081000000000005  0.5674000000000002  0.88053  1.0000
  C   C45       1.0  0.27172  0.06351  0.4184300000000001  1.0000
  C   C46       1.0  0.20767  0.04709  0.37623000000000006  1.0000
  C   C47       1.0  0.08633  0.018730000000000004  0.29725  1.0000
  C   C48       1.0  0.30125  0.59965  0.80102  1.0000
  C   C49       1.0  0.16193  0.97081  0.35825  1.0000
  C   C50       1.0  0.1326  0.09478  0.31595  1.0000
  C   C51       1.0  0.21799000000000002  0.64241  0.85754  1.0000
  C   C52       1.0  0.19261  0.10899  0.35472000000000004  1.0000
  C   C53       1.0  0.2778400000000001  0.6582800000000001  0.8182600000000001  1.0000
  C   C54       1.0  0.26432  0.52502  0.82546  1.0000
  C   C55       1.0  0.10204999999999996  0.95705  0.31923  1.0000
  C   C56       1.0  0.20458  0.50874  0.86471  1.0000
  C   C57       1.0  0.3569200000000002  0.5255700000000002  0.70693  1.0000
  C   C58       1.0  0.3143000000000001  0.3364700000000001  0.58938  1.0000
  C   C59       1.0  0.32558  0.40081  0.63002  1.0000
  C   C60       1.0  0.26393  0.41342  0.65464  1.0000
  C   C61       1.0  0.27972  0.47531000000000007  0.69243  1.0000
  C   C62       1.0  0.4174900000000001  0.5118700000000003  0.68163  1.0000
  C   C63       1.0  0.40232  0.4509800000000001  0.64352  1.0000
  C   C64       1.0  0.8848800000000001  0.45237  0.9219200000000001  1.0000
  C   C65       1.0  0.82012  0.43393  0.88052  1.0000
  C   C66       1.0  0.7288200000000001  0.9373600000000001  0.41845  1.0000
  C   C67       1.0  0.79271  0.95335  0.37611  1.0000
  C   C68       1.0  0.91395  0.98162  0.29706  1.0000
  C   C69       1.0  0.6995499999999999  0.40086  0.8009900000000001  1.0000
  C   C70       1.0  0.83849  0.02961  0.3580400000000001  1.0000
  C   C71       1.0  0.86771  0.90555  0.31585  1.0000
  C   C72       1.0  0.78306  0.3588  0.85787  1.0000
  C   C73       1.0  0.8076700000000002  0.8914000000000002  0.35458  1.0000
  C   C74       1.0  0.72319  0.34245  0.81854  1.0000
  C   C75       1.0  0.73626  0.47564000000000006  0.82523  1.0000
  C   C76       1.0  0.8983599999999999  0.04340000000000001  0.31901  1.0000
  C   C77       1.0  0.7961499999999999  0.49239  0.86445  1.0000
  C   C78       1.0  0.64347  0.47501000000000004  0.7066300000000001  1.0000
  C   C79       1.0  0.68569  0.66343  0.58822  1.0000
  C   C80       1.0  0.67412  0.59927  0.62916  1.0000
  C   C81       1.0  0.73594  0.5870000000000001  0.65391  1.0000
  C   C82       1.0  0.7205600000000001  0.52533  0.69189  1.0000
  C   C83       1.0  0.58266  0.48836999999999997  0.6812500000000001  1.0000
  C   C84       1.0  0.59751  0.54903  0.64289  1.0000
  C   C85       1.0  0.5486  0.11542000000000002  0.42184  1.0000
  C   C86       1.0  0.5670100000000001  0.18028  0.38043  1.0000
  C   C87       1.0  0.06275  0.27175  0.9183600000000001  1.0000
  C   C88       1.0  0.04646  0.2076  0.8762000000000001  1.0000
  C   C89       1.0  0.01845  0.08634  0.79711  1.0000
  C   C90       1.0  0.5993399999999999  0.30086  0.30077  1.0000
  C   C91       1.0  0.9702699999999999  0.16176  0.85802  1.0000
  C   C92       1.0  0.09439000000000002  0.13267  0.81595  1.0000
  C   C93       1.0  0.64198  0.2175  0.35747  1.0000
  C   C94       1.0  0.10838000000000002  0.19263  0.85473  1.0000
  C   C95       1.0  0.6578800000000001  0.27735  0.31811  1.0000
  C   C96       1.0  0.52471  0.26379  0.32509  1.0000
  C   C97       1.0  0.9567  0.10193  0.81897  1.0000
  C   C98       1.0  0.50842  0.20407  0.36444  1.0000
  C   C99       1.0  0.5256  0.35683  0.20636000000000002  1.0000
  C   C100      1.0  0.33691  0.31445  0.08826  1.0000
  C   C101      1.0  0.40107  0.32581  0.12916  1.0000
  C   C102      1.0  0.41336  0.26401  0.15406  1.0000
  C   C103      1.0  0.47509  0.27967  0.192  1.0000
  C   C104      1.0  0.5121000000000001  0.41752  0.18096  1.0000
  C   C105      1.0  0.45139999999999997  0.40249000000000007  0.14267  1.0000
  C   C106      1.0  0.45110999999999996  0.88344  0.4231  1.0000
  C   C107      1.0  0.43288000000000004  0.81927  0.3812  1.0000
  C   C108      1.0  0.93686  0.72892  0.91849  1.0000
  C   C109      1.0  0.95274  0.79278  0.87616  1.0000
  C   C110      1.0  0.9814  0.91412  0.79709  1.0000
  C   C111      1.0  0.40061  0.69954  0.30103  1.0000
  C   C112      1.0  0.028990000000000116  0.8383600000000002  0.8580900000000001  1.0000
  C   C113      1.0  0.9053100000000001  0.8680800000000002  0.81586  1.0000
  C   C114      1.0  0.35796  0.78245  0.35811000000000004  1.0000
  C   C115      1.0  0.8909400000000001  0.80798  0.8546400000000001  1.0000
  C   C116      1.0  0.3420500000000001  0.72298  0.31846  1.0000
  C   C117      1.0  0.4752700000000001  0.7364400000000001  0.32538  1.0000
  C   C118      1.0  0.04297999999999999  0.89827  0.81905  1.0000
  C   C119      1.0  0.49156999999999995  0.79583  0.36496  1.0000
  C   C120      1.0  0.47438  0.64342  0.20676000000000003  1.0000
  C   C121      1.0  0.66229  0.68564  0.0883  1.0000
  C   C122      1.0  0.59851  0.67446  0.1294  1.0000
  C   C123      1.0  0.58647  0.73628  0.15439  1.0000
  C   C124      1.0  0.52487  0.72057  0.19241  1.0000
  C   C125      1.0  0.48764  0.58268  0.18125000000000002  1.0000
  C   C126      1.0  0.54817  0.59774  0.14287  1.0000
  C   C127      1.0  0.88447  0.45131  0.07815  1.0000
  C   C128      1.0  0.8194200000000001  0.4324500000000001  0.11941  1.0000
  C   C129      1.0  0.7282800000000001  0.9362400000000001  0.5817  1.0000
  C   C130      1.0  0.79224  0.95231  0.62392  1.0000
  C   C131      1.0  0.91386  0.9812500000000001  0.70267  1.0000
  C   C132      1.0  0.69881  0.39998000000000006  0.19895000000000002  1.0000
  C   C133      1.0  0.83791  0.02868  0.64175  1.0000
  C   C134      1.0  0.8678900000000002  0.9050800000000002  0.6840199999999999  1.0000
  C   C135      1.0  0.78218  0.35736  0.14229  1.0000
  C   C136      1.0  0.80762  0.89056  0.64539  1.0000
  C   C137      1.0  0.72227  0.3414  0.18156  1.0000
  C   C138      1.0  0.73577  0.47462  0.17455  1.0000
  C   C139      1.0  0.8980100000000001  0.042830000000000014  0.68063  1.0000
  C   C140      1.0  0.79556  0.49100000000000005  0.13531  1.0000
  C   C141      1.0  0.6430000000000001  0.4745  0.29317  1.0000
  C   C142      1.0  0.68549  0.66273  0.41165000000000007  1.0000
  C   C143      1.0  0.6741000000000001  0.59895  0.37048  1.0000
  C   C144      1.0  0.73583  0.58671  0.34562  1.0000
  C   C145      1.0  0.7201  0.52504  0.30762  1.0000
  C   C146      1.0  0.58241  0.4882600000000001  0.31845  1.0000
  C   C147      1.0  0.59745  0.54882  0.35684  1.0000
  C   C148      1.0  0.11575000000000006  0.549  0.07838  1.0000
  C   C149      1.0  0.18097  0.56798  0.11953  1.0000
  C   C150      1.0  0.27148  0.06364  0.58166  1.0000
  C   C151      1.0  0.20748  0.04769000000000002  0.62382  1.0000
  C   C152      1.0  0.08625000000000001  0.019330000000000007  0.70279  1.0000
  C   C153      1.0  0.30135000000000006  0.60037  0.19924  1.0000
  C   C154      1.0  0.16175  0.97143  0.64186  1.0000
  C   C155      1.0  0.13242  0.09541  0.68405  1.0000
  C   C156      1.0  0.21818000000000004  0.64307  0.1424  1.0000
  C   C157      1.0  0.19243  0.10964  0.64528  1.0000
  C   C158      1.0  0.27796  0.65894  0.18178  1.0000
  C   C159      1.0  0.26458000000000004  0.5257800000000001  0.17478  1.0000
  C   C160      1.0  0.10190000000000002  0.9576  0.68087  1.0000
  C   C161      1.0  0.20494  0.50947  0.13541  1.0000
  C   C162      1.0  0.35682  0.52592  0.29321  1.0000
  C   C163      1.0  0.31448000000000004  0.3380800000000001  0.41185000000000005  1.0000
  C   C164      1.0  0.32577  0.40165  0.37053  1.0000
  C   C165      1.0  0.26399  0.41377  0.34557000000000004  1.0000
  C   C166      1.0  0.27969000000000005  0.4754900000000001  0.30762  1.0000
  C   C167      1.0  0.41749  0.5122  0.31842  1.0000
  C   C168      1.0  0.40245  0.45154  0.35675  1.0000
  O   O1        1.0  0.86671  0.69408  0.06323  1.0000
  O   O2        1.0  0.99178  0.7105  0.06602  1.0000
  O   O3        1.0  0.39584  0.90269  0.56306  1.0000
  O   O4        1.0  0.5216300000000001  0.9213300000000002  0.56282  1.0000
  O   O5        1.0  0.67071  0.62485  0.93105  1.0000
  O   O6        1.0  0.71048  0.75335  0.9284800000000001  1.0000
  O   O7        1.0  0.13477000000000003  0.30561000000000005  0.06305  1.0000
  O   O8        1.0  0.009940000000000015  0.29022  0.06585  1.0000
  O   O9        1.0  0.6054  0.09915  0.56248  1.0000
  O   O10       1.0  0.47902000000000006  0.07888  0.5629  1.0000
  O   O11       1.0  0.32877  0.37525  0.92868  1.0000
  O   O12       1.0  0.29028  0.24679  0.9283400000000002  1.0000
  O   O13       1.0  0.30541  0.13354  0.43710000000000004  1.0000
  O   O14       1.0  0.29009  0.00875  0.43408  1.0000
  O   O15       1.0  0.09764000000000005  0.60431  0.93754  1.0000
  O   O16       1.0  0.08189000000000002  0.47926  0.9394900000000002  1.0000
  O   O17       1.0  0.37540000000000007  0.3287200000000001  0.57138  1.0000
  O   O18       1.0  0.24687000000000003  0.29004  0.57163  1.0000
  O   O19       1.0  0.6948000000000001  0.86725  0.43699000000000005  1.0000
  O   O20       1.0  0.7108600000000002  0.9923200000000001  0.43416  1.0000
  O   O21       1.0  0.9008000000000002  0.39648  0.93991  1.0000
  O   O22       1.0  0.92104  0.52284  0.93725  1.0000
  O   O23       1.0  0.62492  0.67071  0.5688  1.0000
  O   O24       1.0  0.75345  0.71041  0.57151  1.0000
  O   O25       1.0  0.13280000000000003  0.30585000000000007  0.93688  1.0000
  O   O26       1.0  0.00776  0.28969  0.93403  1.0000
  O   O27       1.0  0.60369  0.09658  0.43724  1.0000
  O   O28       1.0  0.47900000000000004  0.08175  0.43979000000000007  1.0000
  O   O29       1.0  0.33002  0.3754  0.06875  1.0000
  O   O30       1.0  0.28966  0.24678  0.07142  1.0000
  O   O31       1.0  0.8668900000000002  0.69437  0.937  1.0000
  O   O32       1.0  0.99229  0.71156  0.9342  1.0000
  O   O33       1.0  0.39547  0.90036  0.44008  1.0000
  O   O34       1.0  0.52111  0.91823  0.43994  1.0000
  O   O35       1.0  0.66803  0.62437  0.06845  1.0000
  O   O36       1.0  0.71026  0.7531900000000002  0.07168  1.0000
  O   O37       1.0  0.69392  0.8662600000000003  0.56307  1.0000
  O   O38       1.0  0.71065  0.99154  0.56604  1.0000
  O   O39       1.0  0.90363  0.39639  0.0629  1.0000
  O   O40       1.0  0.9177900000000001  0.52094  0.06014  1.0000
  O   O41       1.0  0.62455  0.66948  0.43117  1.0000
  O   O42       1.0  0.7531700000000001  0.71003  0.42842  1.0000
  O   O43       1.0  0.30577999999999994  0.13363  0.56306  1.0000
  O   O44       1.0  0.2893  0.00852  0.56602  1.0000
  O   O45       1.0  0.09640999999999995  0.60372  0.06282  1.0000
  O   O46       1.0  0.08228999999999997  0.47922999999999993  0.060730000000000006  1.0000
  O   O47       1.0  0.37559000000000003  0.33195  0.43167  1.0000
  O   O48       1.0  0.24695  0.29048  0.42856000000000005  1.0000
