data_image0
_chemical_formula_structural       Cu12B4H108W4C94S12N38
_chemical_formula_sum              "Cu12 B4 H108 W4 C94 S12 N38"
_cell_length_a       18.06576
_cell_length_b       18.070040000000002
_cell_length_c       18.70903
_cell_angle_alpha    98.05167999999999
_cell_angle_beta     115.33816
_cell_angle_gamma    114.21502

_symmetry_space_group_name_H-M    'P 1'
_symmetry_Int_Tables_number       1

loop_
  _symmetry_equiv_pos_as_xyz
  'x,y,z'

loop_
  _atom_site_type_symbol
  _atom_site_label
  _atom_site_symmetry_multiplicity
  _atom_site_fract_x
  _atom_site_fract_y
  _atom_site_fract_z
  _atom_site_occupancy
  Cu  Cu1       1.0  0.69849  0.80062  0.2528900000000001  1.0000
  Cu  Cu2       1.0  0.68688  0.9225899999999998  0.34860000000000013  1.0000
  Cu  Cu3       1.0  0.02488999999999997  0.84011  0.3764  1.0000
  Cu  Cu4       1.0  0.04697999999999996  0.44480999999999987  0.24589  1.0000
  Cu  Cu5       1.0  0.07413000000000007  0.33747  0.15046000000000007  1.0000
  Cu  Cu6       1.0  0.96572  0.65208  0.12624000000000005  1.0000
  Cu  Cu7       1.0  0.30164  0.1996  0.74716  1.0000
  Cu  Cu8       1.0  0.31313000000000013  0.07746000000000011  0.6513800000000002  1.0000
  Cu  Cu9       1.0  0.9750500000000001  0.15982000000000007  0.6236400000000002  1.0000
  Cu  Cu10      1.0  0.95297  0.55513  0.75407  1.0000
  Cu  Cu11      1.0  0.9258600000000001  0.6625600000000001  0.8495100000000002  1.0000
  Cu  Cu12      1.0  0.03419999999999994  0.3478999999999999  0.87374  1.0000
  B   B1        1.0  0.3080299999999999  0.7136699999999998  0.04334000000000001  1.0000
  B   B2        1.0  0.17036000000000004  0.26461000000000007  0.4564600000000001  1.0000
  B   B3        1.0  0.6919500000000002  0.2863100000000001  0.9566300000000002  1.0000
  B   B4        1.0  0.8296299999999999  0.7353699999999997  0.54354  1.0000
  H   H1        1.0  0.2293000000000001  0.6876499999999999  0.9842000000000002  1.0000
  H   H2        1.0  0.42235000000000006  0.6347300000000001  0.8791500000000002  1.0000
  H   H3        1.0  0.64411  0.80439  0.07244  1.0000
  H   H4        1.0  0.60042  0.70006  0.9993700000000001  1.0000
  H   H5        1.0  0.62684  0.7146599999999997  0.10504000000000002  1.0000
  H   H6        1.0  0.18613999999999997  0.55549  0.86366  1.0000
  H   H7        1.0  0.23275000000000004  0.5781700000000001  0.7973900000000003  1.0000
  H   H8        1.0  0.21176999999999996  0.6536799999999999  0.8449200000000002  1.0000
  H   H9        1.0  0.20876999999999984  0.5441899999999997  0.19098  1.0000
  H   H10       1.0  0.44798999999999994  0.58182  0.2699900000000001  1.0000
  H   H11       1.0  0.3742  0.5769899999999998  0.3109500000000001  1.0000
  H   H12       1.0  0.47708  0.6793  0.3405600000000001  1.0000
  H   H13       1.0  0.12164  0.6516399999999999  0.03695  1.0000
  H   H14       1.0  0.07597000000000001  0.56063  0.06446000000000003  1.0000
  H   H15       1.0  0.09573000000000012  0.54863  0.9792900000000002  1.0000
  H   H16       1.0  0.39846  0.009730000000000004  0.15148  1.0000
  H   H17       1.0  0.5799  0.9957999999999999  0.3318300000000001  1.0000
  H   H18       1.0  0.5656100000000001  0.07278000000000005  0.2862600000000001  1.0000
  H   H19       1.0  0.63116  0.02788999999999998  0.27073  1.0000
  H   H20       1.0  0.21885000000000007  0.80798  0.9422500000000003  1.0000
  H   H21       1.0  0.22434999999999988  0.8972899999999998  0.00324  1.0000
  H   H22       1.0  0.17404999999999993  0.7931599999999998  0.009920000000000003  1.0000
  H   H23       1.0  0.9822900000000002  0.65347  0.3049400000000001  1.0000
  H   H24       1.0  0.96859  0.531  0.35352  1.0000
  H   H25       1.0  0.046710000000000015  0.6978299999999998  0.5950300000000002  1.0000
  H   H26       1.0  0.05804999999999991  0.8147099999999998  0.53616  1.0000
  H   H27       1.0  0.019889999999999974  0.55842  0.58262  1.0000
  H   H28       1.0  0.20354000000000014  0.2450800000000001  0.5156800000000002  1.0000
  H   H29       1.0  0.2551100000000003  0.5430000000000001  0.6202300000000002  1.0000
  H   H30       1.0  0.2319199999999999  0.5714399999999997  0.42687  1.0000
  H   H31       1.0  0.19992000000000004  0.6006300000000001  0.4995400000000001  1.0000
  H   H32       1.0  0.10945  0.52115  0.39394  1.0000
  H   H33       1.0  0.19182999999999995  0.32235999999999987  0.63627  1.0000
  H   H34       1.0  0.28056  0.43509  0.7023400000000002  1.0000
  H   H35       1.0  0.30862  0.36669  0.6548700000000002  1.0000
  H   H36       1.0  0.85349  0.01853000000000005  0.3097100000000001  1.0000
  H   H37       1.0  0.8125000000000001  0.17857000000000003  0.23010000000000005  1.0000
  H   H38       1.0  0.7668  0.06394000000000002  0.18927000000000005  1.0000
  H   H39       1.0  0.83968  0.13717  0.1597  1.0000
  H   H40       1.0  0.1146100000000001  0.08482000000000003  0.46367000000000014  1.0000
  H   H41       1.0  0.99621  0.012110000000000046  0.4365600000000001  1.0000
  H   H42       1.0  0.06940000000000014  0.11708000000000007  0.5213300000000002  1.0000
  H   H43       1.0  0.35895  0.24776999999999996  0.34841  1.0000
  H   H44       1.0  0.16462  0.24858  0.16763  1.0000
  H   H45       1.0  0.28712999999999994  0.2800099999999999  0.21340000000000006  1.0000
  H   H46       1.0  0.25743  0.3607999999999999  0.22866000000000006  1.0000
  H   H47       1.0  0.36579  0.27685  0.55736  1.0000
  H   H48       1.0  0.39432000000000006  0.22136  0.4966300000000001  1.0000
  H   H49       1.0  0.2836  0.16446  0.49009000000000014  1.0000
  H   H50       1.0  0.8474200000000002  0.67766  0.19613000000000005  1.0000
  H   H51       1.0  0.67611  0.61458  0.14642000000000005  1.0000
  H   H52       1.0  0.60443  0.45134  0.9062600000000002  1.0000
  H   H53       1.0  0.78018  0.52183  0.9662000000000002  1.0000
  H   H54       1.0  0.47622  0.4371499999999999  0.9177  1.0000
  H   H55       1.0  0.7706599999999999  0.31235  0.01577  1.0000
  H   H56       1.0  0.57761  0.36517  0.12085000000000003  1.0000
  H   H57       1.0  0.3560499999999999  0.1956399999999999  0.92758  1.0000
  H   H58       1.0  0.39952  0.29993  0.00059  1.0000
  H   H59       1.0  0.3729800000000002  0.28529  0.89487  1.0000
  H   H60       1.0  0.8137399999999999  0.4444799999999999  0.13625  1.0000
  H   H61       1.0  0.7671800000000001  0.42185000000000006  0.20255000000000006  1.0000
  H   H62       1.0  0.7883099999999998  0.34638999999999986  0.15514000000000006  1.0000
  H   H63       1.0  0.7913800000000001  0.4558400000000001  0.8090600000000002  1.0000
  H   H64       1.0  0.55202  0.4182899999999999  0.7299  1.0000
  H   H65       1.0  0.6258999999999999  0.42305999999999994  0.68901  1.0000
  H   H66       1.0  0.523  0.3207299999999999  0.65944  1.0000
  H   H67       1.0  0.87843  0.3484000000000001  0.9631400000000002  1.0000
  H   H68       1.0  0.92408  0.43939  0.9356000000000002  1.0000
  H   H69       1.0  0.90423  0.4513799999999999  0.020690000000000007  1.0000
  H   H70       1.0  0.6015300000000002  0.99033  0.8485900000000002  1.0000
  H   H71       1.0  0.41999000000000014  0.004120000000000121  0.6681200000000003  1.0000
  H   H72       1.0  0.4343400000000002  0.92723  0.7137300000000002  1.0000
  H   H73       1.0  0.36894000000000005  0.9722099999999999  0.72937  1.0000
  H   H74       1.0  0.78121  0.19206  0.05776000000000001  1.0000
  H   H75       1.0  0.77561  0.10272  0.99668  1.0000
  H   H76       1.0  0.82592  0.20684000000000002  0.9900100000000002  1.0000
  H   H77       1.0  0.017749999999999957  0.3465999999999999  0.69508  1.0000
  H   H78       1.0  0.0314400000000001  0.46904999999999997  0.6464700000000002  1.0000
  H   H79       1.0  0.95332  0.30223  0.40499  1.0000
  H   H80       1.0  0.94201  0.18534000000000006  0.4638600000000001  1.0000
  H   H81       1.0  0.9800800000000002  0.44160000000000005  0.4173500000000001  1.0000
  H   H82       1.0  0.7964800000000001  0.7549300000000001  0.48431000000000013  1.0000
  H   H83       1.0  0.74486  0.4569800000000001  0.3797600000000001  1.0000
  H   H84       1.0  0.76811  0.42859  0.57312  1.0000
  H   H85       1.0  0.8001000000000001  0.39935  0.5004900000000002  1.0000
  H   H86       1.0  0.89056  0.47882  0.60606  1.0000
  H   H87       1.0  0.8081699999999999  0.6776200000000001  0.3637400000000001  1.0000
  H   H88       1.0  0.7194699999999998  0.5648999999999997  0.2976800000000001  1.0000
  H   H89       1.0  0.6913699999999999  0.6332799999999998  0.34512  1.0000
  H   H90       1.0  0.1465  0.9814499999999999  0.69021  1.0000
  H   H91       1.0  0.18750000000000017  0.8214500000000001  0.7698100000000002  1.0000
  H   H92       1.0  0.23323  0.93607  0.81075  1.0000
  H   H93       1.0  0.16040000000000018  0.8627900000000001  0.8403200000000002  1.0000
  H   H94       1.0  0.8853799999999998  0.9151399999999998  0.5363500000000002  1.0000
  H   H95       1.0  0.003750000000000073  0.98786  0.5634200000000003  1.0000
  H   H96       1.0  0.93054  0.8829099999999998  0.4786200000000001  1.0000
  H   H97       1.0  0.64098  0.75216  0.65156  1.0000
  H   H98       1.0  0.8353799999999998  0.7513799999999999  0.8324600000000002  1.0000
  H   H99       1.0  0.71288  0.71998  0.7866300000000003  1.0000
  H   H100      1.0  0.7425400000000002  0.6391900000000001  0.7712800000000002  1.0000
  H   H101      1.0  0.63423  0.72319  0.4426500000000001  1.0000
  H   H102      1.0  0.6057000000000001  0.7786500000000001  0.5034100000000002  1.0000
  H   H103      1.0  0.7164300000000002  0.8355600000000001  0.5099700000000003  1.0000
  H   H104      1.0  0.15258000000000013  0.3223300000000001  0.8038900000000002  1.0000
  H   H105      1.0  0.3239000000000002  0.38538999999999995  0.8536200000000003  1.0000
  H   H106      1.0  0.39559  0.5486800000000001  0.09376000000000002  1.0000
  H   H107      1.0  0.2198499999999999  0.4782199999999998  0.03381  1.0000
  H   H108      1.0  0.5238200000000001  0.56282  0.08233000000000003  1.0000
  W   W1        1.0  0.5311899999999999  0.7852399999999998  0.21175  1.0000
  W   W2        1.0  0.07345  0.3193799999999999  0.2878700000000001  1.0000
  W   W3        1.0  0.46887000000000023  0.21474000000000004  0.7882700000000002  1.0000
  W   W4        1.0  0.9264899999999999  0.68056  0.71208  1.0000
  C   C1        1.0  0.4954399999999999  0.7071499999999997  0.01847  1.0000
  C   C2        1.0  0.4188400000000001  0.66025  0.9327500000000002  1.0000
  C   C3        1.0  0.33766  0.65235  0.93005  1.0000
  C   C4        1.0  0.5970000000000001  0.73312  0.050670000000000014  1.0000
  C   C5        1.0  0.23678000000000005  0.6077399999999998  0.85531  1.0000
  C   C6        1.0  0.35345  0.62852  0.21368000000000006  1.0000
  C   C7        1.0  0.25362999999999997  0.5883299999999998  0.17346000000000006  1.0000
  C   C8        1.0  0.22278000000000003  0.61589  0.10634000000000003  1.0000
  C   C9        1.0  0.41684  0.6162399999999998  0.2879000000000001  1.0000
  C   C10       1.0  0.12395999999999997  0.59311  0.04318  1.0000
  C   C11       1.0  0.47662  0.94132  0.19617  1.0000
  C   C12       1.0  0.4007300000000001  0.95037  0.14269000000000007  1.0000
  C   C13       1.0  0.3288699999999999  0.8683899999999998  0.077  1.0000
  C   C14       1.0  0.56842  0.013000000000000005  0.27546  1.0000
  C   C15       1.0  0.23160999999999993  0.8400599999999999  0.00419  1.0000
  C   C16       1.0  0.9950000000000001  0.66028  0.3684500000000001  1.0000
  C   C17       1.0  0.9884000000000003  0.59226  0.39683  1.0000
  C   C18       1.0  0.00827000000000006  0.6042000000000001  0.4805100000000001  1.0000
  C   C19       1.0  0.03233999999999997  0.6857599999999998  0.53049  1.0000
  C   C20       1.0  0.03763000000000007  0.7507  0.4976500000000001  1.0000
  C   C21       1.0  0.007010000000000106  0.5391700000000001  0.5185100000000002  1.0000
  C   C22       1.0  0.82055  0.81776  0.2924100000000001  1.0000
  C   C23       1.0  0.8003600000000001  0.009700000000000054  0.4499300000000001  1.0000
  C   C24       1.0  0.02039999999999992  0.7529999999999998  0.22157000000000004  1.0000
  C   C25       1.0  0.18857000000000004  0.47681000000000007  0.4810000000000001  1.0000
  C   C26       1.0  0.22726999999999997  0.48591  0.5667800000000002  1.0000
  C   C27       1.0  0.22220000000000023  0.40748000000000006  0.5696500000000002  1.0000
  C   C28       1.0  0.18219000000000005  0.54604  0.4484900000000001  1.0000
  C   C29       1.0  0.2523000000000001  0.38129000000000013  0.6444600000000003  1.0000
  C   C30       1.0  0.91526  0.14015  0.28654  1.0000
  C   C31       1.0  0.91517  0.08067999999999996  0.32703  1.0000
  C   C32       1.0  0.009720000000000055  0.11680000000000001  0.3940800000000001  1.0000
  C   C33       1.0  0.82902  0.12951  0.21230000000000004  1.0000
  C   C34       1.0  0.049980000000000045  0.08122  0.4574700000000001  1.0000
  C   C35       1.0  0.24541000000000002  0.28077  0.30342000000000013  1.0000
  C   C36       1.0  0.3080700000000001  0.25851  0.35698000000000013  1.0000
  C   C37       1.0  0.29152  0.25200999999999996  0.4226100000000001  1.0000
  C   C38       1.0  0.23797000000000004  0.2934299999999999  0.22410000000000005  1.0000
  C   C39       1.0  0.33606  0.22764000000000004  0.4955500000000001  1.0000
  C   C40       1.0  0.7913700000000001  0.6266300000000001  0.13266000000000006  1.0000
  C   C41       1.0  0.69485  0.5913399999999998  0.10366000000000003  1.0000
  C   C42       1.0  0.6238299999999999  0.5275399999999998  0.020010000000000007  1.0000
  C   C43       1.0  0.65617  0.5016300000000001  0.9707000000000002  1.0000
  C   C44       1.0  0.7540600000000001  0.53992  0.004180000000000001  1.0000
  C   C45       1.0  0.5208000000000002  0.4884100000000001  0.9816800000000002  1.0000
  C   C46       1.0  0.02382999999999993  0.5266299999999998  0.20542000000000005  1.0000
  C   C47       1.0  0.05977000000000001  0.35007  0.04915000000000001  1.0000
  C   C48       1.0  0.5045700000000001  0.2929600000000001  0.9814700000000002  1.0000
  C   C49       1.0  0.58113  0.33974  0.06722  1.0000
  C   C50       1.0  0.6623199999999999  0.34761999999999993  0.06993000000000003  1.0000
  C   C51       1.0  0.40299000000000007  0.26693  0.9492900000000002  1.0000
  C   C52       1.0  0.76318  0.39224  0.14466000000000007  1.0000
  C   C53       1.0  0.6466100000000002  0.37157  0.7863600000000002  1.0000
  C   C54       1.0  0.7464500000000001  0.4117199999999999  0.8265600000000002  1.0000
  C   C55       1.0  0.7772600000000001  0.38412  0.8936700000000002  1.0000
  C   C56       1.0  0.58323  0.3838499999999999  0.71208  1.0000
  C   C57       1.0  0.87607  0.40689000000000003  0.9568600000000003  1.0000
  C   C58       1.0  0.5233900000000002  0.0586900000000001  0.8037800000000003  1.0000
  C   C59       1.0  0.59924  0.04965000000000009  0.8572700000000002  1.0000
  C   C60       1.0  0.67111  0.13162  0.9229800000000002  1.0000
  C   C61       1.0  0.4315699999999999  0.9870099999999999  0.72453  1.0000
  C   C62       1.0  0.7683600000000003  0.1599600000000001  0.9957700000000003  1.0000
  C   C63       1.0  0.005020000000000008  0.33976  0.63156  1.0000
  C   C64       1.0  0.011630000000000137  0.4077800000000001  0.6031800000000003  1.0000
  C   C65       1.0  0.9917300000000001  0.39583000000000007  0.5194900000000002  1.0000
  C   C66       1.0  0.96768  0.31427000000000005  0.4695300000000001  1.0000
  C   C67       1.0  0.9624  0.24934  0.50237  1.0000
  C   C68       1.0  0.99297  0.46085000000000004  0.4814700000000001  1.0000
  C   C69       1.0  0.17955  0.18242999999999995  0.70764  1.0000
  C   C70       1.0  0.19969999999999993  0.9903199999999999  0.55005  1.0000
  C   C71       1.0  0.9794600000000001  0.24698999999999996  0.7784600000000003  1.0000
  C   C72       1.0  0.81145  0.52318  0.519  1.0000
  C   C73       1.0  0.7727399999999999  0.5140699999999998  0.4332200000000001  1.0000
  C   C74       1.0  0.77779  0.5924799999999999  0.4303400000000001  1.0000
  C   C75       1.0  0.81784  0.45397000000000004  0.5515000000000002  1.0000
  C   C76       1.0  0.7477  0.6186899999999997  0.3555500000000001  1.0000
  C   C77       1.0  0.08474000000000007  0.85986  0.71348  1.0000
  C   C78       1.0  0.08483999999999986  0.9193099999999997  0.67295  1.0000
  C   C79       1.0  0.9903  0.8831900000000001  0.60589  1.0000
  C   C80       1.0  0.17100000000000004  0.8704999999999998  0.7877000000000002  1.0000
  C   C81       1.0  0.95  0.9187599999999999  0.5425  1.0000
  C   C82       1.0  0.75467  0.7193099999999998  0.6966300000000002  1.0000
  C   C83       1.0  0.6919399999999999  0.7414999999999998  0.64304  1.0000
  C   C84       1.0  0.70846  0.74798  0.57739  1.0000
  C   C85       1.0  0.76206  0.70659  0.7759200000000003  1.0000
  C   C86       1.0  0.66395  0.77237  0.50447  1.0000
  C   C87       1.0  0.20864000000000013  0.3733900000000001  0.8673500000000002  1.0000
  C   C88       1.0  0.30517000000000005  0.4086599999999999  0.8963600000000003  1.0000
  C   C89       1.0  0.3761900000000001  0.47246999999999995  0.9800100000000003  1.0000
  C   C90       1.0  0.34385  0.4984  0.029310000000000006  1.0000
  C   C91       1.0  0.24596000000000018  0.46011  0.9958300000000002  1.0000
  C   C92       1.0  0.47922  0.51156  0.018340000000000006  1.0000
  C   C93       1.0  0.9761899999999999  0.47335  0.7945500000000002  1.0000
  C   C94       1.0  0.9402600000000002  0.6499100000000001  0.9508500000000002  1.0000
  S   S1        1.0  0.5705300000000001  0.68141  0.22585000000000005  1.0000
  S   S2        1.0  0.55135  0.83565  0.3392700000000001  1.0000
  S   S3        1.0  0.6595099999999999  0.8981099999999997  0.21637000000000006  1.0000
  S   S4        1.0  0.9553299999999999  0.34432  0.2737300000000001  1.0000
  S   S5        1.0  0.9967699999999999  0.21201999999999993  0.16055000000000005  1.0000
  S   S6        1.0  0.18106  0.44283  0.28248  1.0000
  S   S7        1.0  0.42970000000000014  0.31873  0.7743700000000002  1.0000
  S   S8        1.0  0.4488  0.16433  0.6608  1.0000
  S   S9        1.0  0.34046000000000015  0.1019000000000001  0.7835300000000002  1.0000
  S   S10       1.0  0.044600000000000015  0.6556499999999998  0.7261700000000002  1.0000
  S   S11       1.0  0.0030600000000001923  0.7879800000000001  0.8393100000000002  1.0000
  S   S12       1.0  0.81889  0.55707  0.7174100000000002  1.0000
  N   N1        1.0  0.46221000000000007  0.72658  0.06706000000000002  1.0000
  N   N2        1.0  0.36561  0.6931099999999998  0.011540000000000003  1.0000
  N   N3        1.0  0.3831999999999998  0.6797999999999997  0.17282  1.0000
  N   N4        1.0  0.30172  0.66994  0.10665000000000002  1.0000
  N   N5        1.0  0.45222  0.8565  0.1642  1.0000
  N   N6        1.0  0.36178  0.81326  0.091  1.0000
  N   N7        1.0  0.019530000000000113  0.7389100000000001  0.4177400000000001  1.0000
  N   N8        1.0  0.89902  0.8310999999999998  0.3227000000000001  1.0000
  N   N9        1.0  0.87203  0.06132999999999999  0.51556  1.0000
  N   N10       1.0  0.03572000000000006  0.80272  0.2815700000000001  1.0000
  N   N11       1.0  0.15955000000000005  0.39505  0.4325500000000001  1.0000
  N   N12       1.0  0.18164  0.354  0.4882100000000001  1.0000
  N   N13       1.0  0.007280000000000026  0.21055  0.3272200000000001  1.0000
  N   N14       1.0  0.06345000000000006  0.19524000000000002  0.3935000000000001  1.0000
  N   N15       1.0  0.19231000000000004  0.28805000000000003  0.3353000000000001  1.0000
  N   N16       1.0  0.22217999999999996  0.27065  0.40853  1.0000
  N   N17       1.0  0.8214000000000001  0.6019  0.08396  1.0000
  N   N18       1.0  0.00597999999999998  0.5738799999999997  0.17399000000000006  1.0000
  N   N19       1.0  0.04623000000000008  0.35675999999999997  0.9837300000000002  1.0000
  N   N20       1.0  0.5378300000000003  0.27353000000000005  0.9329000000000002  1.0000
  N   N21       1.0  0.63439  0.3069000000000001  0.9884400000000002  1.0000
  N   N22       1.0  0.6168300000000001  0.3202500000000001  0.8271900000000002  1.0000
  N   N23       1.0  0.6983  0.3300600000000001  0.8933300000000001  1.0000
  N   N24       1.0  0.54781  0.14351000000000003  0.8357800000000002  1.0000
  N   N25       1.0  0.63821  0.18674  0.90899  1.0000
  N   N26       1.0  0.9804900000000001  0.26112000000000013  0.5822800000000002  1.0000
  N   N27       1.0  0.10102999999999997  0.16903  0.67736  1.0000
  N   N28       1.0  0.1280400000000001  0.9386000000000001  0.4844600000000001  1.0000
  N   N29       1.0  0.9642900000000001  0.19740000000000008  0.7184600000000002  1.0000
  N   N30       1.0  0.8404300000000002  0.60493  0.5674300000000001  1.0000
  N   N31       1.0  0.8183400000000001  0.64597  0.5117700000000002  1.0000
  N   N32       1.0  0.9927199999999999  0.78946  0.6728000000000002  1.0000
  N   N33       1.0  0.9365599999999998  0.8047499999999997  0.60649  1.0000
  N   N34       1.0  0.8077200000000001  0.71197  0.6647200000000002  1.0000
  N   N35       1.0  0.77782  0.7293399999999998  0.59147  1.0000
  N   N36       1.0  0.17860000000000012  0.39813  0.9160400000000002  1.0000
  N   N37       1.0  0.9940699999999996  0.4261199999999999  0.82597  1.0000
  N   N38       1.0  0.9538  0.64328  0.0163  1.0000
