data_image0
_chemical_formula_structural       Ni4H132C128N16O20
_chemical_formula_sum              "Ni4 H132 C128 N16 O20"
_cell_length_a       13.22077
_cell_length_b       14.066269999999998
_cell_length_c       19.535179999999997
_cell_angle_alpha    66.53802
_cell_angle_beta     73.11612
_cell_angle_gamma    80.22653999999999

_symmetry_space_group_name_H-M    'P 1'
_symmetry_Int_Tables_number       1

loop_
  _symmetry_equiv_pos_as_xyz
  'x,y,z'

loop_
  _atom_site_type_symbol
  _atom_site_label
  _atom_site_symmetry_multiplicity
  _atom_site_fract_x
  _atom_site_fract_y
  _atom_site_fract_z
  _atom_site_occupancy
  Ni  Ni1       1.0  0.4186100000000002  0.62648  0.21002  1.0000
  Ni  Ni2       1.0  0.17404999999999998  0.8737500000000001  0.6084  1.0000
  Ni  Ni3       1.0  0.5814000000000002  0.37350999999999995  0.78998  1.0000
  Ni  Ni4       1.0  0.8259400000000001  0.12625000000000003  0.39161  1.0000
  H   H1        1.0  0.6245900000000002  0.46963  0.18979  1.0000
  H   H2        1.0  0.6947200000000001  0.5479799999999998  0.90529  1.0000
  H   H3        1.0  0.8207100000000003  0.43265999999999993  0.98077  1.0000
  H   H4        1.0  0.7858600000000002  0.39171000000000006  0.12064  1.0000
  H   H5        1.0  0.3054300000000001  0.73279  0.09822  1.0000
  H   H6        1.0  0.28064000000000006  0.69077  0.02968  1.0000
  H   H7        1.0  0.35488  0.8013400000000002  0.99707  1.0000
  H   H8        1.0  0.40694000000000013  0.6843199999999999  0.90723  1.0000
  H   H9        1.0  0.5347800000000001  0.6351399999999999  0.874  1.0000
  H   H10       1.0  0.4846900000000001  0.8470399999999997  0.89269  1.0000
  H   H11       1.0  0.6120700000000001  0.79562  0.86033  1.0000
  H   H12       1.0  0.43051000000000017  0.8637100000000001  0.7784999999999999  1.0000
  H   H13       1.0  0.5523400000000002  0.9199699999999998  0.74931  1.0000
  H   H14       1.0  0.5149800000000002  0.70867  0.75161  1.0000
  H   H15       1.0  0.6411000000000001  0.73943  0.74278  1.0000
  H   H16       1.0  0.6395500000000001  0.8884599999999999  0.6216  1.0000
  H   H17       1.0  0.61424  0.7723099999999999  0.6173  1.0000
  H   H18       1.0  0.5884  0.059840000000000004  0.60016  1.0000
  H   H19       1.0  0.50321  0.23613999999999996  0.55129  1.0000
  H   H20       1.0  0.32702999999999993  0.2623099999999999  0.52178  1.0000
  H   H21       1.0  0.23231  0.10994999999999999  0.54172  1.0000
  H   H22       1.0  0.35434000000000015  0.7083299999999998  0.6065  1.0000
  H   H23       1.0  0.36583999999999994  0.67988  0.70082  1.0000
  H   H24       1.0  0.4830499999999999  0.68642  0.62617  1.0000
  H   H25       1.0  0.5334  0.786  0.04471  1.0000
  H   H26       1.0  0.6294700000000003  0.9419499999999996  0.95376  1.0000
  H   H27       1.0  0.7551999999999999  0.012099999999999934  0.9916100000000001  1.0000
  H   H28       1.0  0.78853  0.92667  0.12256  1.0000
  H   H29       1.0  0.5106600000000001  0.55591  0.34544  1.0000
  H   H30       1.0  0.5926000000000002  0.61098  0.37623  1.0000
  H   H31       1.0  0.6490000000000001  0.51668  0.33427  1.0000
  H   H32       1.0  0.7771400000000003  0.8329999999999997  0.24239  1.0000
  H   H33       1.0  0.6880500000000003  0.76702  0.32876  1.0000
  H   H34       1.0  0.8657100000000003  0.64634  0.24978999999999998  1.0000
  H   H35       1.0  0.79608  0.60443  0.34711  1.0000
  H   H36       1.0  0.8789  0.7631  0.34902  1.0000
  H   H37       1.0  0.9585600000000001  0.6481699999999998  0.35328  1.0000
  H   H38       1.0  0.056380000000000034  0.7178099999999998  0.22381  1.0000
  H   H39       1.0  0.9570299999999999  0.81373  0.19524  1.0000
  H   H40       1.0  0.09331  0.81388  0.29879  1.0000
  H   H41       1.0  0.11957000000000002  0.8828599999999998  0.1989  1.0000
  H   H42       1.0  0.9744900000000004  0.9416200000000001  0.43801  1.0000
  H   H43       1.0  0.06909999999999997  0.8671000000000001  0.39015  1.0000
  H   H44       1.0  0.9372600000000004  0.82947  0.43292  1.0000
  H   H45       1.0  0.9911500000000001  0.9775599999999999  0.10446  1.0000
  H   H46       1.0  0.87644  0.12343  0.03589  1.0000
  H   H47       1.0  0.7597300000000002  0.23513999999999993  0.10099  1.0000
  H   H48       1.0  0.7603000000000002  0.21152999999999997  0.23480999999999996  1.0000
  H   H49       1.0  0.8523900000000001  0.3770299999999999  0.8488  1.0000
  H   H50       1.0  0.12391999999999997  0.55532  0.78357  1.0000
  H   H51       1.0  0.8788000000000001  0.6745600000000002  0.66207  1.0000
  H   H52       1.0  0.18919000000000008  0.38272  0.8543499999999999  1.0000
  H   H53       1.0  0.11661999999999999  0.47028999999999993  0.89884  1.0000
  H   H54       1.0  0.20665999999999995  0.32078999999999996  0.98519  1.0000
  H   H55       1.0  0.12832999999999997  0.23417  0.98222  1.0000
  H   H56       1.0  0.30344999999999994  0.96011  0.1718  1.0000
  H   H57       1.0  0.18215  0.08455999999999998  0.35223  1.0000
  H   H58       1.0  0.29380000000000006  0.76373  0.40777  1.0000
  H   H59       1.0  0.22540000000000002  0.23912000000000003  0.23651  1.0000
  H   H60       1.0  0.10022000000000003  0.1873099999999999  0.26275  1.0000
  H   H61       1.0  0.21807  0.29966  0.09577  1.0000
  H   H62       1.0  0.12936999999999999  0.36805  0.14902  1.0000
  H   H63       1.0  0.9808800000000001  0.27113  0.16751  1.0000
  H   H64       1.0  0.06383000000000003  0.18367999999999998  0.12919  1.0000
  H   H65       1.0  0.9635600000000002  0.32233999999999996  0.03745  1.0000
  H   H66       1.0  0.037610000000000025  0.4166399999999999  0.03569  1.0000
  H   H67       1.0  0.37542000000000014  0.53036  0.81021  1.0000
  H   H68       1.0  0.3052800000000001  0.4520100000000001  0.09471  1.0000
  H   H69       1.0  0.17930000000000001  0.56734  0.01922  1.0000
  H   H70       1.0  0.2141500000000002  0.60828  0.87936  1.0000
  H   H71       1.0  0.6945700000000002  0.26720999999999995  0.90178  1.0000
  H   H72       1.0  0.71937  0.30923000000000006  0.9703199999999998  1.0000
  H   H73       1.0  0.64513  0.19866  0.00293  1.0000
  H   H74       1.0  0.59307  0.31566  0.09277  1.0000
  H   H75       1.0  0.46522000000000013  0.36485  0.126  1.0000
  H   H76       1.0  0.5153100000000002  0.15294999999999997  0.10731  1.0000
  H   H77       1.0  0.3879400000000001  0.20437  0.13967  1.0000
  H   H78       1.0  0.5694900000000003  0.13629  0.2215  1.0000
  H   H79       1.0  0.4476700000000001  0.08001999999999998  0.25069  1.0000
  H   H80       1.0  0.48503  0.29132  0.24839  1.0000
  H   H81       1.0  0.3589  0.26056  0.25722  1.0000
  H   H82       1.0  0.36046  0.11152999999999998  0.3784  1.0000
  H   H83       1.0  0.38577  0.22768999999999992  0.3827  1.0000
  H   H84       1.0  0.41160000000000013  0.94015  0.39985  1.0000
  H   H85       1.0  0.49678  0.76384  0.44873  1.0000
  H   H86       1.0  0.6729600000000002  0.7376699999999999  0.47823000000000004  1.0000
  H   H87       1.0  0.7677  0.8900299999999999  0.45828  1.0000
  H   H88       1.0  0.6456700000000001  0.29166  0.39351  1.0000
  H   H89       1.0  0.6341600000000002  0.3201  0.29918  1.0000
  H   H90       1.0  0.51696  0.31355999999999995  0.37384  1.0000
  H   H91       1.0  0.46662  0.21398999999999993  0.95529  1.0000
  H   H92       1.0  0.37055000000000005  0.058049999999999984  0.04624  1.0000
  H   H93       1.0  0.24479000000000006  0.98791  0.00839  1.0000
  H   H94       1.0  0.21146000000000012  0.07333  0.87744  1.0000
  H   H95       1.0  0.48933999999999994  0.44409000000000004  0.65457  1.0000
  H   H96       1.0  0.40741  0.38902  0.62377  1.0000
  H   H97       1.0  0.35101000000000004  0.48332  0.66573  1.0000
  H   H98       1.0  0.22287  0.16698999999999997  0.75762  1.0000
  H   H99       1.0  0.31195  0.23297999999999996  0.67125  1.0000
  H   H100      1.0  0.13429000000000002  0.35365  0.75022  1.0000
  H   H101      1.0  0.2039200000000001  0.39557  0.6529  1.0000
  H   H102      1.0  0.12111000000000002  0.2369  0.65099  1.0000
  H   H103      1.0  0.04144999999999998  0.35182  0.64672  1.0000
  H   H104      1.0  0.9436300000000002  0.28218000000000004  0.77619  1.0000
  H   H105      1.0  0.04298000000000001  0.18626  0.80476  1.0000
  H   H106      1.0  0.9067000000000001  0.18612000000000004  0.7012  1.0000
  H   H107      1.0  0.8804300000000005  0.11714  0.80109  1.0000
  H   H108      1.0  0.025530000000000004  0.05836999999999997  0.56199  1.0000
  H   H109      1.0  0.9309200000000001  0.13288  0.60985  1.0000
  H   H110      1.0  0.06274999999999999  0.17052000000000003  0.56707  1.0000
  H   H111      1.0  0.008859999999999948  0.02244  0.89553  1.0000
  H   H112      1.0  0.12356999999999993  0.8765800000000001  0.96411  1.0000
  H   H113      1.0  0.24027000000000007  0.7648599999999998  0.89901  1.0000
  H   H114      1.0  0.2397000000000001  0.78846  0.76519  1.0000
  H   H115      1.0  0.14759  0.62298  0.1512  1.0000
  H   H116      1.0  0.8760500000000001  0.44469  0.21643  1.0000
  H   H117      1.0  0.12121  0.32543  0.3379  1.0000
  H   H118      1.0  0.8107900000000005  0.61728  0.14565  1.0000
  H   H119      1.0  0.8833600000000005  0.5297099999999998  0.10116  1.0000
  H   H120      1.0  0.79332  0.67923  0.0148  1.0000
  H   H121      1.0  0.87166  0.76583  0.01778  1.0000
  H   H122      1.0  0.69656  0.03989000000000001  0.8282  1.0000
  H   H123      1.0  0.8178500000000002  0.9154399999999998  0.64777  1.0000
  H   H124      1.0  0.70621  0.23627999999999996  0.59223  1.0000
  H   H125      1.0  0.7746100000000007  0.76088  0.76348  1.0000
  H   H126      1.0  0.8997800000000001  0.81271  0.73724  1.0000
  H   H127      1.0  0.7819300000000005  0.7003499999999999  0.90423  1.0000
  H   H128      1.0  0.8706300000000006  0.6319499999999997  0.85097  1.0000
  H   H129      1.0  0.019120000000000022  0.72887  0.8325  1.0000
  H   H130      1.0  0.93617  0.81632  0.87081  1.0000
  H   H131      1.0  0.03642000000000006  0.67766  0.96255  1.0000
  H   H132      1.0  0.9623800000000001  0.58336  0.9643199999999998  1.0000
  C   C1        1.0  0.63975  0.48601  0.12854  1.0000
  C   C2        1.0  0.56901  0.55152  0.08605  1.0000
  C   C3        1.0  0.5894300000000002  0.57375  0.00608  1.0000
  C   C4        1.0  0.6789500000000003  0.5309599999999999  0.96671  1.0000
  C   C5        1.0  0.7488400000000002  0.4658  0.00973  1.0000
  C   C6        1.0  0.72945  0.44347999999999993  0.08937  1.0000
  C   C7        1.0  0.43725000000000014  0.6555799999999998  0.04576  1.0000
  C   C8        1.0  0.3389000000000002  0.7243999999999998  0.04248  1.0000
  C   C9        1.0  0.4908100000000001  0.68683  0.90375  1.0000
  C   C10       1.0  0.5284700000000001  0.7972799999999997  0.86091  1.0000
  C   C11       1.0  0.51494  0.8452800000000001  0.77797  1.0000
  C   C12       1.0  0.56367  0.7749300000000001  0.73215  1.0000
  C   C13       1.0  0.5817200000000002  0.8289999999999997  0.64489  1.0000
  C   C14       1.0  0.4575500000000001  0.9868599999999998  0.59841  1.0000
  C   C15       1.0  0.5113300000000001  0.07049000000000001  0.58812  1.0000
  C   C16       1.0  0.46209000000000006  0.1693999999999999  0.56098  1.0000
  C   C17       1.0  0.36207000000000017  0.18385999999999988  0.54471  1.0000
  C   C18       1.0  0.30777  0.09978999999999999  0.55619  1.0000
  C   C19       1.0  0.35614  9.000000000003658e-05  0.58413  1.0000
  C   C20       1.0  0.40230000000000016  0.83373  0.62038  1.0000
  C   C21       1.0  0.4022200000000003  0.7204699999999999  0.6394  1.0000
  C   C22       1.0  0.58992  0.8143199999999998  0.06145  1.0000
  C   C23       1.0  0.6436700000000002  0.9026699999999998  0.01093  1.0000
  C   C24       1.0  0.7150800000000002  0.9425599999999998  0.03253  1.0000
  C   C25       1.0  0.73484  0.8947299999999998  0.10553  1.0000
  C   C26       1.0  0.6812499999999999  0.8056  0.15559  1.0000
  C   C27       1.0  0.6093500000000002  0.76447  0.13484  1.0000
  C   C28       1.0  0.6112400000000001  0.6663099999999998  0.25435  1.0000
  C   C29       1.0  0.5899100000000003  0.5825799999999995  0.33199  1.0000
  C   C30       1.0  0.7426100000000001  0.7576599999999999  0.2771  1.0000
  C   C31       1.0  0.8301400000000001  0.6725  0.298  1.0000
  C   C32       1.0  0.9164800000000002  0.71315  0.31608  1.0000
  C   C33       1.0  0.99678  0.7731599999999998  0.24226  1.0000
  C   C34       1.0  0.0557  0.85102  0.2506  1.0000
  C   C35       1.0  0.9863600000000002  0.8968999999999998  0.40108  1.0000
  C   C36       1.0  0.95512  0.9621499999999998  0.32856  1.0000
  C   C37       1.0  0.93492  0.011520000000000004  0.20921  1.0000
  C   C38       1.0  0.9395100000000002  0.02665  0.13312  1.0000
  C   C39       1.0  0.8752000000000002  0.10849999999999997  0.09523  1.0000
  C   C40       1.0  0.80928  0.17272  0.13222  1.0000
  C   C41       1.0  0.8077900000000001  0.15969999999999998  0.20712  1.0000
  C   C42       1.0  0.8723500000000003  0.07838000000000002  0.24569999999999997  1.0000
  C   C43       1.0  0.7499900000000003  0.50617  0.74477  1.0000
  C   C44       1.0  0.8555200000000004  0.52272  0.75329  1.0000
  C   C45       1.0  0.8963400000000004  0.44555999999999985  0.8122  1.0000
  C   C46       1.0  0.99234  0.45571999999999985  0.82469  1.0000
  C   C47       1.0  0.04883000000000004  0.54367  0.77701  1.0000
  C   C48       1.0  0.006940000000000031  0.62299  0.71939  1.0000
  C   C49       1.0  0.9108000000000002  0.6128199999999999  0.70684  1.0000
  C   C50       1.0  0.06491000000000008  0.7207299999999996  0.6778  1.0000
  C   C51       1.0  0.12050999999999999  0.39106999999999986  0.90006  1.0000
  C   C52       1.0  0.12841  0.3139500000000001  0.9789499999999999  1.0000
  C   C53       1.0  0.3453100000000002  0.76484  0.26065  1.0000
  C   C54       1.0  0.30439000000000005  0.85308  0.28664  1.0000
  C   C55       1.0  0.28552  0.95008  0.23208  1.0000
  C   C56       1.0  0.24101  0.03393999999999998  0.25458  1.0000
  C   C57       1.0  0.2183700000000001  0.02177  0.33226  1.0000
  C   C58       1.0  0.23876999999999998  0.92376  0.38672  1.0000
  C   C59       1.0  0.28106  0.8393099999999998  0.36449  1.0000
  C   C60       1.0  0.2128900000000001  0.9069099999999997  0.47030000000000005  1.0000
  C   C61       1.0  0.17152000000000006  0.21144999999999997  0.21583  1.0000
  C   C62       1.0  0.14656000000000005  0.29234  0.14288  1.0000
  C   C63       1.0  0.05340000000000001  0.26522  0.12392  1.0000
  C   C64       1.0  0.04004000000000002  0.33439999999999986  0.04338  1.0000
  C   C65       1.0  0.36025000000000024  0.51398  0.87147  1.0000
  C   C66       1.0  0.4309900000000001  0.44847999999999977  0.91395  1.0000
  C   C67       1.0  0.41057000000000005  0.42624000000000006  0.99393  1.0000
  C   C68       1.0  0.3210600000000001  0.46904  0.03329  1.0000
  C   C69       1.0  0.2511700000000001  0.5341899999999998  0.99027  1.0000
  C   C70       1.0  0.27056  0.55651  0.91062  1.0000
  C   C71       1.0  0.56276  0.34442000000000006  0.9542399999999999  1.0000
  C   C72       1.0  0.6611099999999999  0.2755999999999999  0.9575200000000001  1.0000
  C   C73       1.0  0.5092  0.3131599999999999  0.09625  1.0000
  C   C74       1.0  0.47154000000000007  0.20271  0.13909  1.0000
  C   C75       1.0  0.48507000000000017  0.15470999999999996  0.22203  1.0000
  C   C76       1.0  0.43634  0.22506000000000004  0.26784  1.0000
  C   C77       1.0  0.4182900000000002  0.17099  0.35511  1.0000
  C   C78       1.0  0.5424600000000003  0.013129999999999984  0.40159  1.0000
  C   C79       1.0  0.48867000000000005  0.9295  0.41189  1.0000
  C   C80       1.0  0.5379  0.83059  0.43903  1.0000
  C   C81       1.0  0.6379200000000002  0.8161200000000001  0.4553  1.0000
  C   C82       1.0  0.6922300000000002  0.9001899999999999  0.44382  1.0000
  C   C83       1.0  0.64387  0.9998999999999999  0.41588  1.0000
  C   C84       1.0  0.59771  0.16626  0.37963  1.0000
  C   C85       1.0  0.59779  0.27950999999999987  0.36061  1.0000
  C   C86       1.0  0.4100900000000001  0.18566999999999997  0.93855  1.0000
  C   C87       1.0  0.3563400000000001  0.09732999999999992  0.98907  1.0000
  C   C88       1.0  0.28491  0.05743999999999997  0.96747  1.0000
  C   C89       1.0  0.26516000000000006  0.10527999999999998  0.89448  1.0000
  C   C90       1.0  0.31875000000000003  0.19438999999999998  0.84442  1.0000
  C   C91       1.0  0.39065000000000005  0.23553000000000002  0.86517  1.0000
  C   C92       1.0  0.38875  0.3336899999999999  0.74565  1.0000
  C   C93       1.0  0.41009  0.41742000000000007  0.66802  1.0000
  C   C94       1.0  0.25739000000000006  0.24233999999999997  0.7229  1.0000
  C   C95       1.0  0.16986000000000004  0.32749999999999996  0.702  1.0000
  C   C96       1.0  0.08353  0.28684  0.68392  1.0000
  C   C97       1.0  0.0032300000000000367  0.22683000000000003  0.75773  1.0000
  C   C98       1.0  0.9443100000000001  0.14897999999999997  0.74939  1.0000
  C   C99       1.0  0.013660000000000012  0.10309000000000001  0.59891  1.0000
  C   C100      1.0  0.044879999999999996  0.037849999999999995  0.67144  1.0000
  C   C101      1.0  0.06509000000000002  0.9884799999999999  0.79079  1.0000
  C   C102      1.0  0.06050000000000008  0.9733499999999999  0.86688  1.0000
  C   C103      1.0  0.12480000000000004  0.8914999999999998  0.90477  1.0000
  C   C104      1.0  0.19072999999999996  0.82728  0.86778  1.0000
  C   C105      1.0  0.19222000000000006  0.8402899999999999  0.79287  1.0000
  C   C106      1.0  0.12765000000000007  0.9216099999999999  0.7543  1.0000
  C   C107      1.0  0.24999  0.49385999999999997  0.25521  1.0000
  C   C108      1.0  0.14448  0.4772699999999999  0.24669999999999997  1.0000
  C   C109      1.0  0.10366  0.55446  0.18779  1.0000
  C   C110      1.0  0.007640000000000003  0.54427  0.17531  1.0000
  C   C111      1.0  0.9511600000000002  0.45635  0.22299  1.0000
  C   C112      1.0  0.9930600000000003  0.3770099999999999  0.28061  1.0000
  C   C113      1.0  0.08921000000000001  0.3871999999999998  0.29314  1.0000
  C   C114      1.0  0.93509  0.27928  0.32219  1.0000
  C   C115      1.0  0.8794800000000003  0.6089299999999999  0.09994  1.0000
  C   C116      1.0  0.8715700000000002  0.6860499999999998  0.02105  1.0000
  C   C117      1.0  0.65468  0.23517000000000005  0.73937  1.0000
  C   C118      1.0  0.6956100000000001  0.14691999999999988  0.71336  1.0000
  C   C119      1.0  0.71447  0.04992  0.76793  1.0000
  C   C120      1.0  0.75898  0.9660699999999999  0.74541  1.0000
  C   C121      1.0  0.7816400000000001  0.97824  0.66774  1.0000
  C   C122      1.0  0.7612600000000003  0.07627  0.61327  1.0000
  C   C123      1.0  0.71895  0.1607  0.63551  1.0000
  C   C124      1.0  0.7871400000000001  0.09311999999999997  0.5297  1.0000
  C   C125      1.0  0.82848  0.7885500000000001  0.78417  1.0000
  C   C126      1.0  0.8534400000000001  0.70766  0.85712  1.0000
  C   C127      1.0  0.9466000000000002  0.7347799999999999  0.87608  1.0000
  C   C128      1.0  0.9599500000000001  0.6655999999999999  0.95662  1.0000
  N   N1        1.0  0.4736700000000002  0.6031899999999998  0.10889  1.0000
  N   N2        1.0  0.5048700000000003  0.64014  0.9823800000000001  1.0000
  N   N3        1.0  0.48494000000000004  0.88083  0.62089  1.0000
  N   N4        1.0  0.3234199999999998  0.9030699999999998  0.59972  1.0000
  N   N5        1.0  0.56691  0.6774699999999999  0.19781  1.0000
  N   N6        1.0  0.68089  0.7418599999999997  0.23147  1.0000
  N   N7        1.0  0.98588  0.93847  0.26304  1.0000
  N   N8        1.0  0.88884  0.04707000000000001  0.31905  1.0000
  N   N9        1.0  0.52634  0.39680999999999994  0.89111  1.0000
  N   N10       1.0  0.49514000000000014  0.3598499999999999  0.01762  1.0000
  N   N11       1.0  0.51506  0.11915999999999999  0.37911  1.0000
  N   N12       1.0  0.67658  0.09690999999999998  0.40029  1.0000
  N   N13       1.0  0.43309000000000003  0.32254  0.8022  1.0000
  N   N14       1.0  0.3191100000000001  0.2581399999999999  0.76854  1.0000
  N   N15       1.0  0.014129999999999966  0.06152999999999998  0.73695  1.0000
  N   N16       1.0  0.11116000000000006  0.9529199999999997  0.68095  1.0000
  O   O1        1.0  0.72684  0.4095299999999998  0.77665  1.0000
  O   O2        1.0  0.6925700000000002  0.58071  0.71183  1.0000
  O   O3        1.0  0.3627099999999999  0.78105  0.18854  1.0000
  O   O4        1.0  0.3634400000000001  0.67452  0.3084799999999999  1.0000
  O   O5        1.0  0.15227000000000002  0.7237399999999999  0.69346  1.0000
  O   O6        1.0  0.02668000000000006  0.8006299999999997  0.63065  1.0000
  O   O7        1.0  0.22908000000000003  0.81605  0.51845  1.0000
  O   O8        1.0  0.17637000000000008  0.98281  0.49276  1.0000
  O   O9        1.0  0.024510000000000014  0.37634999999999996  0.88467  1.0000
  O   O10       1.0  0.22267000000000003  0.12299999999999996  0.19602999999999998  1.0000
  O   O11       1.0  0.27314  0.59046  0.22334  1.0000
  O   O12       1.0  0.30745  0.4192599999999999  0.28818  1.0000
  O   O13       1.0  0.63729  0.21898000000000004  0.81146  1.0000
  O   O14       1.0  0.63657  0.32547  0.69151  1.0000
  O   O15       1.0  0.8477300000000002  0.27626  0.30654  1.0000
  O   O16       1.0  0.97331  0.19937  0.36935  1.0000
  O   O17       1.0  0.7709000000000001  0.18396999999999994  0.4815499999999999  1.0000
  O   O18       1.0  0.82367  0.017239999999999978  0.50723  1.0000
  O   O19       1.0  0.9754700000000003  0.6236499999999998  0.11532999999999999  1.0000
  O   O20       1.0  0.77732  0.8769999999999999  0.80397  1.0000
