data_image0
_chemical_formula_structural       Tb16H120C96N24O96
_chemical_formula_sum              "Tb16 H120 C96 N24 O96"
_cell_length_a       11.7805
_cell_length_b       19.10137
_cell_length_c       19.11569
_cell_angle_alpha    84.52832
_cell_angle_beta     72.05836999999998
_cell_angle_gamma    72.07666

_space_group_name_H-M_alt    "P 1"
_space_group_IT_number       1

loop_
  _space_group_symop_operation_xyz
  'x, y, z'

loop_
  _atom_site_type_symbol
  _atom_site_label
  _atom_site_symmetry_multiplicity
  _atom_site_fract_x
  _atom_site_fract_y
  _atom_site_fract_z
  _atom_site_occupancy
  Tb  Tb1       1.0  0.87915  0.79919  0.63701  1.0000
  Tb  Tb2       1.0  0.9657899999999998  0.9793199999999999  0.60588  1.0000
  Tb  Tb3       1.0  0.3168099999999998  0.70047  0.8628500000000002  1.0000
  Tb  Tb4       1.0  0.5515499999999999  0.52082  0.8941400000000003  1.0000
  Tb  Tb5       1.0  0.18213000000000004  0.6360799999999998  0.70003  1.0000
  Tb  Tb6       1.0  0.44581999999999994  0.60589  0.52075  1.0000
  Tb  Tb7       1.0  0.51448  0.8629  0.79854  1.0000
  Tb  Tb8       1.0  0.56985  0.8936199999999999  0.9791600000000001  1.0000
  Tb  Tb9       1.0  0.12039999999999994  0.2017  0.36311  1.0000
  Tb  Tb10      1.0  0.034229999999999934  0.0207  0.39412000000000014  1.0000
  Tb  Tb11      1.0  0.6831800000000001  0.29965  0.13701  1.0000
  Tb  Tb12      1.0  0.44842  0.47917999999999994  0.10584  1.0000
  Tb  Tb13      1.0  0.81764  0.36421  0.3001000000000001  1.0000
  Tb  Tb14      1.0  0.5541199999999998  0.39411  0.47926  1.0000
  Tb  Tb15      1.0  0.48556  0.13701  0.20136000000000004  1.0000
  Tb  Tb16      1.0  0.43016  0.10637  0.02084  1.0000
  H   H1        1.0  0.9264200000000002  0.77586  0.4403  1.0000
  H   H2        1.0  0.7976400000000002  0.8456799999999999  0.42373  1.0000
  H   H3        1.0  0.6510699999999999  0.9137  0.54733  1.0000
  H   H4        1.0  0.58612  0.8481799999999999  0.52633  1.0000
  H   H5        1.0  0.67832  0.0571  0.78303  1.0000
  H   H6        1.0  0.5860299999999999  0.09218999999999998  0.7226200000000002  1.0000
  H   H7        1.0  0.8767600000000001  0.15978  0.6814000000000002  1.0000
  H   H8        1.0  0.7552999999999999  0.1588  0.76369  1.0000
  H   H9        1.0  0.28975999999999985  0.85012  0.6789500000000003  1.0000
  H   H10       1.0  0.14117999999999994  0.9083799999999999  0.73034  1.0000
  H   H11       1.0  0.37393000000000015  0.9242299999999999  0.54701  1.0000
  H   H12       1.0  0.3121  0.8519699999999999  0.54411  1.0000
  H   H13       1.0  0.7695000000000001  0.75323  0.53277  1.0000
  H   H14       1.0  0.74659  0.11851999999999999  0.63917  1.0000
  H   H15       1.0  0.19284999999999994  0.98339  0.63695  1.0000
  H   H16       1.0  0.14312  0.72376  0.05944000000000001  1.0000
  H   H17       1.0  0.06847999999999999  0.65348  0.07541  1.0000
  H   H18       1.0  0.11208000000000001  0.58664  0.9519800000000002  1.0000
  H   H19       1.0  0.9610899999999998  0.65223  0.9728600000000001  1.0000
  H   H20       1.0  0.5196299999999999  0.44292999999999993  0.71675  1.0000
  H   H21       1.0  0.4027800000000001  0.40714  0.77717  1.0000
  H   H22       1.0  0.7195700000000003  0.3402499999999999  0.81821  1.0000
  H   H23       1.0  0.67982  0.34168  0.73566  1.0000
  H   H24       1.0  0.8193299999999999  0.65029  0.82108  1.0000
  H   H25       1.0  0.7808999999999999  0.59167  0.7698900000000002  1.0000
  H   H26       1.0  0.8453999999999999  0.57593  0.95336  1.0000
  H   H27       1.0  0.7087299999999997  0.6483  0.9563600000000001  1.0000
  H   H28       1.0  0.056339999999999925  0.74696  0.9668600000000002  1.0000
  H   H29       1.0  0.5063700000000001  0.38149  0.86062  1.0000
  H   H30       1.0  0.8132  0.51704  0.86325  1.0000
  H   H31       1.0  0.20275999999999988  0.43971  0.7238900000000003  1.0000
  H   H32       1.0  0.14375999999999992  0.42371  0.6539300000000002  1.0000
  H   H33       1.0  0.06418000000000006  0.54823  0.5863600000000001  1.0000
  H   H34       1.0  0.93482  0.52676  0.6524300000000001  1.0000
  H   H35       1.0  0.23585000000000012  0.78299  0.44339  1.0000
  H   H36       1.0  0.17881  0.7228299999999999  0.40773  1.0000
  H   H37       1.0  0.5367900000000001  0.6819099999999999  0.34016000000000013  1.0000
  H   H38       1.0  0.41430999999999996  0.76443  0.34191  1.0000
  H   H39       1.0  0.64182  0.67934  0.64897  1.0000
  H   H40       1.0  0.55089  0.7303899999999999  0.5908  1.0000
  H   H41       1.0  0.7992199999999998  0.5469  0.5758900000000002  1.0000
  H   H42       1.0  0.6648900000000001  0.5440799999999999  0.6478400000000001  1.0000
  H   H43       1.0  0.025179999999999998  0.5330599999999998  0.7465800000000002  1.0000
  H   H44       1.0  0.36592  0.63931  0.38151  1.0000
  H   H45       1.0  0.67754  0.63673  0.51622  1.0000
  H   H46       1.0  0.36706  0.05982  0.77667  1.0000
  H   H47       1.0  0.22242999999999996  0.07604  0.8471200000000002  1.0000
  H   H48       1.0  0.19793999999999995  0.95234  0.9139500000000002  1.0000
  H   H49       1.0  0.11248999999999995  0.97377  0.84828  1.0000
  H   H50       1.0  0.4609  0.71631  0.05713000000000001  1.0000
  H   H51       1.0  0.30839999999999995  0.77668  0.09247000000000001  1.0000
  H   H52       1.0  0.55787  0.81815  0.15966000000000005  1.0000
  H   H53       1.0  0.5192199999999999  0.73565  0.15869  1.0000
  H   H54       1.0  0.9678700000000001  0.82098  0.84983  1.0000
  H   H55       1.0  0.87179  0.76927  0.90843  1.0000
  H   H56       1.0  0.9210900000000001  0.9522899999999999  0.92434  1.0000
  H   H57       1.0  0.85645  0.95575  0.85199  1.0000
  H   H58       1.0  0.3022699999999999  0.9677700000000001  0.75371  1.0000
  H   H59       1.0  0.3857700000000001  0.8603099999999999  0.11835000000000001  1.0000
  H   H60       1.0  0.8286  0.8626  0.98314  1.0000
  H   H61       1.0  0.07360999999999995  0.22422  0.5599100000000001  1.0000
  H   H62       1.0  0.20239999999999997  0.15436  0.57632  1.0000
  H   H63       1.0  0.34859  0.08641999999999997  0.45261  1.0000
  H   H64       1.0  0.4138  0.15170999999999996  0.47369000000000006  1.0000
  H   H65       1.0  0.32162000000000013  0.94297  0.21699000000000004  1.0000
  H   H66       1.0  0.4138899999999999  0.90787  0.27742000000000006  1.0000
  H   H67       1.0  0.12319000000000002  0.8402299999999999  0.31862  1.0000
  H   H68       1.0  0.24462000000000003  0.84123  0.23630000000000004  1.0000
  H   H69       1.0  0.71043  0.14986  0.32107  1.0000
  H   H70       1.0  0.85909  0.09155999999999997  0.2696700000000001  1.0000
  H   H71       1.0  0.6261099999999999  0.0757  0.4530100000000001  1.0000
  H   H72       1.0  0.68789  0.14798  0.45588000000000006  1.0000
  H   H73       1.0  0.2308100000000001  0.24687  0.46758  1.0000
  H   H74       1.0  0.25333  0.88148  0.36085  1.0000
  H   H75       1.0  0.80724  0.01655  0.36307  1.0000
  H   H76       1.0  0.8568600000000001  0.27619999999999995  0.94047  1.0000
  H   H77       1.0  0.9316200000000002  0.34644  0.9244400000000002  1.0000
  H   H78       1.0  0.88795  0.41334  0.04788  1.0000
  H   H79       1.0  0.038950000000000054  0.34777999999999987  0.02701  1.0000
  H   H80       1.0  0.48039000000000004  0.5570499999999999  0.28325  1.0000
  H   H81       1.0  0.59724  0.59282  0.22283000000000003  1.0000
  H   H82       1.0  0.28048000000000006  0.65973  0.18176  1.0000
  H   H83       1.0  0.32021999999999995  0.65834  0.2643  1.0000
  H   H84       1.0  0.18069  0.34973  0.17886  1.0000
  H   H85       1.0  0.2192699999999999  0.4083  0.23007  1.0000
  H   H86       1.0  0.15459  0.42406999999999995  0.04659  1.0000
  H   H87       1.0  0.29125000000000006  0.35173  0.04368  1.0000
  H   H88       1.0  0.94352  0.25301  0.0331  1.0000
  H   H89       1.0  0.4936900000000001  0.61849  0.13938000000000003  1.0000
  H   H90       1.0  0.18665000000000004  0.48300999999999994  0.13672  1.0000
  H   H91       1.0  0.79672  0.5603  0.27599  1.0000
  H   H92       1.0  0.8558300000000001  0.57641  0.34589  1.0000
  H   H93       1.0  0.93557  0.4519099999999999  0.41352  1.0000
  H   H94       1.0  0.06475999999999998  0.47359  0.34743000000000007  1.0000
  H   H95       1.0  0.7642299999999997  0.21718  0.55628  1.0000
  H   H96       1.0  0.82107  0.2772  0.59234  1.0000
  H   H97       1.0  0.46312000000000003  0.3180399999999999  0.65986  1.0000
  H   H98       1.0  0.58563  0.23552  0.6580400000000001  1.0000
  H   H99       1.0  0.35773  0.32061999999999996  0.35124  1.0000
  H   H100      1.0  0.44901  0.26959  0.40926  1.0000
  H   H101      1.0  0.2007299999999999  0.45311000000000007  0.4240900000000001  1.0000
  H   H102      1.0  0.3351  0.45589999999999997  0.35217  1.0000
  H   H103      1.0  0.9743799999999999  0.46699  0.25329  1.0000
  H   H104      1.0  0.63385  0.36072  0.6186  1.0000
  H   H105      1.0  0.3223800000000002  0.3633099999999999  0.48389000000000004  1.0000
  H   H106      1.0  0.63323  0.94006  0.22333000000000003  1.0000
  H   H107      1.0  0.7777400000000001  0.9238899999999999  0.1528  1.0000
  H   H108      1.0  0.8021999999999999  0.04757  0.08604000000000003  1.0000
  H   H109      1.0  0.8877000000000002  0.02617  0.15167000000000003  1.0000
  H   H110      1.0  0.5390000000000001  0.28365  0.94291  1.0000
  H   H111      1.0  0.6915400000000002  0.22331  0.9075200000000002  1.0000
  H   H112      1.0  0.44213999999999987  0.18179  0.84032  1.0000
  H   H113      1.0  0.48077999999999993  0.2643  0.84129  1.0000
  H   H114      1.0  0.03221999999999997  0.17899  0.15032000000000006  1.0000
  H   H115      1.0  0.12826  0.2307  0.09171  1.0000
  H   H116      1.0  0.07892000000000002  0.04775  0.07568  1.0000
  H   H117      1.0  0.1435599999999999  0.04419  0.14806000000000002  1.0000
  H   H118      1.0  0.69822  0.03205  0.24627  1.0000
  H   H119      1.0  0.6142399999999999  0.13965  0.88164  1.0000
  H   H120      1.0  0.17138  0.13744999999999996  0.01698  1.0000
  C   C1        1.0  0.9108700000000001  0.8817299999999999  0.47448  1.0000
  C   C2        1.0  0.8501699999999999  0.8252  0.46384000000000003  1.0000
  C   C3        1.0  0.64573  0.85674  0.55733  1.0000
  C   C4        1.0  0.5879699999999998  0.85173  0.6394  1.0000
  C   C5        1.0  0.6866600000000006  0.9782999999999998  0.71147  1.0000
  C   C6        1.0  0.6779199999999999  0.057179999999999995  0.7254500000000003  1.0000
  C   C7        1.0  0.82883  0.12395  0.71933  1.0000
  C   C8        1.0  0.9265699999999999  0.06886  0.7516100000000002  1.0000
  C   C9        1.0  0.1264899999999999  0.82619  0.6717  1.0000
  C   C10       1.0  0.19461000000000003  0.87985  0.67763  1.0000
  C   C11       1.0  0.28760999999999987  0.9121499999999999  0.5494600000000002  1.0000
  C   C12       1.0  0.24490000000000012  0.9461699999999998  0.483  1.0000
  C   C13       1.0  0.26791  0.6181499999999999  0.02444  1.0000
  C   C14       1.0  0.14004000000000003  0.67455  0.035480000000000005  1.0000
  C   C15       1.0  0.06023000000000007  0.6436399999999998  0.9418900000000001  1.0000
  C   C16       1.0  0.07963000000000003  0.64856  0.85974  1.0000
  C   C17       1.0  0.37730000000000036  0.52123  0.78846  1.0000
  C   C18       1.0  0.4619399999999999  0.44253  0.7743400000000003  1.0000
  C   C19       1.0  0.6738800000000001  0.3762599999999999  0.78033  1.0000
  C   C20       1.0  0.74934  0.43117999999999995  0.74871  1.0000
  C   C21       1.0  0.6251899999999999  0.67378  0.82756  1.0000
  C   C22       1.0  0.7526399999999999  0.62047  0.8224800000000002  1.0000
  C   C23       1.0  0.7495099999999998  0.58815  0.95084  1.0000
  C   C24       1.0  0.67425  0.55401  0.01716  1.0000
  C   C25       1.0  0.2939600000000001  0.47356  0.6181300000000002  1.0000
  C   C26       1.0  0.17624000000000004  0.46355  0.67449  1.0000
  C   C27       1.0  0.003009999999999948  0.55781  0.64353  1.0000
  C   C28       1.0  0.9402600000000001  0.63994  0.6488200000000002  1.0000
  C   C29       1.0  0.16554999999999997  0.71104  0.5216  1.0000
  C   C30       1.0  0.23564999999999994  0.7254  0.44288000000000005  1.0000
  C   C31       1.0  0.4534  0.71969  0.37634  1.0000
  C   C32       1.0  0.49696  0.75144  0.43144  1.0000
  C   C33       1.0  0.4546199999999998  0.67187  0.67341  1.0000
  C   C34       1.0  0.5761  0.67778  0.6195400000000001  1.0000
  C   C35       1.0  0.7008700000000001  0.5494  0.58774  1.0000
  C   C36       1.0  0.69227  0.48292999999999997  0.5537  1.0000
  C   C37       1.0  0.3872399999999999  0.024669999999999994  0.8819500000000001  1.0000
  C   C38       1.0  0.31479999999999986  0.03596  0.8259700000000002  1.0000
  C   C39       1.0  0.20288999999999982  0.94259  0.8569300000000002  1.0000
  C   C40       1.0  0.22639999999999993  0.86051  0.8516500000000001  1.0000
  C   C41       1.0  0.3972100000000002  0.7881099999999998  0.97858  1.0000
  C   C42       1.0  0.40297000000000005  0.77392  0.05731  1.0000
  C   C43       1.0  0.5481400000000001  0.7801399999999997  0.12383  1.0000
  C   C44       1.0  0.6784300000000001  0.74845  0.06884  1.0000
  C   C45       1.0  0.7972099999999999  0.82708  0.82633  1.0000
  C   C46       1.0  0.8715399999999999  0.8220199999999998  0.87969  1.0000
  C   C47       1.0  0.83713  0.9501999999999999  0.9121200000000002  1.0000
  C   C48       1.0  0.7285  0.01681  0.94619  1.0000
  C   C49       1.0  0.08909000000000002  0.1184  0.52555  1.0000
  C   C50       1.0  0.14980000000000002  0.1749  0.53626  1.0000
  C   C51       1.0  0.3541000000000001  0.14333999999999997  0.44265  1.0000
  C   C52       1.0  0.41193  0.14845  0.36057  1.0000
  C   C53       1.0  0.31317999999999996  0.02175  0.28860000000000013  1.0000
  C   C54       1.0  0.32198000000000004  0.94286  0.27458  1.0000
  C   C55       1.0  0.17112  0.87606  0.28068  1.0000
  C   C56       1.0  0.07337  0.9311499999999999  0.24841000000000002  1.0000
  C   C57       1.0  0.87357  0.17385  0.3284300000000001  1.0000
  C   C58       1.0  0.8056  0.12010999999999998  0.32237  1.0000
  C   C59       1.0  0.71242  0.08779999999999999  0.4505600000000001  1.0000
  C   C60       1.0  0.75512  0.05382  0.51703  1.0000
  C   C61       1.0  0.73214  0.38185  0.97543  1.0000
  C   C62       1.0  0.8599900000000001  0.32543  0.96439  1.0000
  C   C63       1.0  0.93981  0.35635  0.057980000000000004  1.0000
  C   C64       1.0  0.92037  0.3514  0.14013  1.0000
  C   C65       1.0  0.6226500000000003  0.4787699999999999  0.21147  1.0000
  C   C66       1.0  0.53804  0.55746  0.22565  1.0000
  C   C67       1.0  0.32615000000000005  0.62374  0.21965000000000007  1.0000
  C   C68       1.0  0.2506800000000001  0.56883  0.25128  1.0000
  C   C69       1.0  0.37493  0.3262  0.17202  1.0000
  C   C70       1.0  0.24737999999999993  0.37956  0.17745000000000002  1.0000
  C   C71       1.0  0.25046000000000007  0.4118799999999999  0.04914  1.0000
  C   C72       1.0  0.32575  0.446  0.98282  1.0000
  C   C73       1.0  0.70574  0.52647  0.3818200000000001  1.0000
  C   C74       1.0  0.82333  0.53655  0.32538  1.0000
  C   C75       1.0  0.99669  0.44247  0.35632  1.0000
  C   C76       1.0  0.059649999999999995  0.36039999999999994  0.35078  1.0000
  C   C77       1.0  0.83437  0.2895999999999999  0.47847000000000006  1.0000
  C   C78       1.0  0.7643300000000001  0.27476  0.55707  1.0000
  C   C79       1.0  0.5465400000000001  0.28031  0.62366  1.0000
  C   C80       1.0  0.5029699999999999  0.24859  0.56856  1.0000
  C   C81       1.0  0.5449  0.32817999999999997  0.3265700000000001  1.0000
  C   C82       1.0  0.42358  0.32221  0.38058000000000003  1.0000
  C   C83       1.0  0.29905999999999994  0.4506  0.4122800000000001  1.0000
  C   C84       1.0  0.30765999999999993  0.51707  0.44632  1.0000
  C   C85       1.0  0.61286  0.97531  0.11808000000000002  1.0000
  C   C86       1.0  0.68538  0.96397  0.17402  1.0000
  C   C87       1.0  0.79729  0.05736  0.14304  1.0000
  C   C88       1.0  0.7737699999999997  0.13946  0.14826  1.0000
  C   C89       1.0  0.6028199999999999  0.21181999999999995  0.02141  1.0000
  C   C90       1.0  0.597  0.22604  0.94269  1.0000
  C   C91       1.0  0.4518499999999998  0.21981  0.8761500000000002  1.0000
  C   C92       1.0  0.32157  0.2514799999999999  0.9311400000000001  1.0000
  C   C93       1.0  0.20292  0.17292  0.17377  1.0000
  C   C94       1.0  0.12853999999999996  0.17794  0.12044  1.0000
  C   C95       1.0  0.16288  0.04978  0.08793000000000001  1.0000
  C   C96       1.0  0.27151  0.98319  0.05383  1.0000
  N   N1        1.0  0.7735699999999999  0.80564  0.53497  1.0000
  N   N2        1.0  0.7795  0.08502  0.67788  1.0000
  N   N3        1.0  0.18891999999999995  0.9356299999999999  0.6192700000000001  1.0000
  N   N4        1.0  0.11476999999999997  0.6945  0.96451  1.0000
  N   N5        1.0  0.5441199999999999  0.41504  0.82176  1.0000
  N   N6        1.0  0.7440200000000001  0.56483  0.8810000000000001  1.0000
  N   N7        1.0  0.0809799999999999  0.535  0.6939700000000002  1.0000
  N   N8        1.0  0.36517  0.67803  0.41508  1.0000
  N   N9        1.0  0.6258200000000002  0.61921  0.56405  1.0000
  N   N10       1.0  0.30852000000000007  0.96511  0.8061100000000002  1.0000
  N   N11       1.0  0.45720000000000005  0.82147  0.08496  1.0000
  N   N12       1.0  0.8073299999999998  0.8804999999999998  0.93534  1.0000
  N   N13       1.0  0.22631999999999994  0.19458  0.46514000000000005  1.0000
  N   N14       1.0  0.22042  0.91498  0.32214  1.0000
  N   N15       1.0  0.8111499999999998  0.06432  0.3807600000000001  1.0000
  N   N16       1.0  0.88523  0.30549999999999994  0.03537  1.0000
  N   N17       1.0  0.4558900000000001  0.58495  0.17823000000000006  1.0000
  N   N18       1.0  0.25587  0.43524  0.11897  1.0000
  N   N19       1.0  0.91865  0.46516  0.30593  1.0000
  N   N20       1.0  0.6347199999999998  0.32202  0.5849700000000002  1.0000
  N   N21       1.0  0.37404  0.3808  0.43602000000000013  1.0000
  N   N22       1.0  0.6916900000000001  0.03482  0.19392  1.0000
  N   N23       1.0  0.5427899999999999  0.17848  0.9150300000000001  1.0000
  N   N24       1.0  0.19271000000000002  0.11947999999999999  0.06475000000000002  1.0000
  O   O1        1.0  0.9143100000000001  0.88928  0.53964  1.0000
  O   O2        1.0  0.95441  0.9166399999999999  0.41834  1.0000
  O   O3        1.0  0.6631599999999999  0.81967  0.6779100000000002  1.0000
  O   O4        1.0  0.47367999999999993  0.87923  0.6705100000000002  1.0000
  O   O5        1.0  0.7926299999999998  0.93409  0.6777200000000002  1.0000
  O   O6        1.0  0.5866700000000001  0.9613099999999999  0.7391400000000002  1.0000
  O   O7        1.0  0.9601099999999998  0.09009999999999999  0.79913  1.0000
  O   O8        1.0  0.9671000000000001  0.00287  0.72386  1.0000
  O   O9        1.0  0.038440000000000044  0.8506799999999999  0.64077  1.0000
  O   O10       1.0  0.15493000000000007  0.76306  0.69834  1.0000
  O   O11       1.0  0.32017999999999985  0.9618900000000001  0.4272900000000001  1.0000
  O   O12       1.0  0.12664  0.9545399999999999  0.48934  1.0000
  O   O13       1.0  0.3433199999999998  0.61038  0.9590300000000003  1.0000
  O   O14       1.0  0.2911100000000001  0.5833599999999999  0.08036  1.0000
  O   O15       1.0  0.1623399999999999  0.68008  0.8211100000000002  1.0000
  O   O16       1.0  0.02321999999999994  0.6213  0.8290000000000001  1.0000
  O   O17       1.0  0.40568999999999983  0.56568  0.8216700000000002  1.0000
  O   O18       1.0  0.28742  0.53806  0.76124  1.0000
  O   O19       1.0  0.8516499999999996  0.40991  0.7012000000000003  1.0000
  O   O20       1.0  0.69691  0.4969199999999999  0.7770800000000002  1.0000
  O   O21       1.0  0.53074  0.64926  0.8587000000000002  1.0000
  O   O22       1.0  0.61697  0.7365  0.7997700000000002  1.0000
  O   O23       1.0  0.7091800000000001  0.53819  0.07296000000000002  1.0000
  O   O24       1.0  0.5708899999999999  0.54552  0.01065  1.0000
  O   O25       1.0  0.30653999999999976  0.53841  0.61054  1.0000
  O   O26       1.0  0.3714999999999997  0.41711  0.58334  1.0000
  O   O27       1.0  0.9843600000000001  0.67835  0.6803200000000003  1.0000
  O   O28       1.0  0.8529300000000002  0.6709299999999999  0.62159  1.0000
  O   O29       1.0  0.22767000000000015  0.6771599999999998  0.5657  1.0000
  O   O30       1.0  0.04866000000000009  0.7387299999999998  0.5385700000000001  1.0000
  O   O31       1.0  0.55386  0.79805  0.4101  1.0000
  O   O32       1.0  0.46951000000000004  0.72435  0.49765000000000004  1.0000
  O   O33       1.0  0.3912  0.64035  0.64933  1.0000
  O   O34       1.0  0.4198799999999999  0.69891  0.73628  1.0000
  O   O35       1.0  0.7832699999999999  0.42724  0.53806  1.0000
  O   O36       1.0  0.58248  0.48925  0.54525  1.0000
  O   O37       1.0  0.4547099999999998  0.95906  0.88933  1.0000
  O   O38       1.0  0.37670999999999993  0.08048  0.9165100000000002  1.0000
  O   O39       1.0  0.34026000000000023  0.8217699999999999  0.81956  1.0000
  O   O40       1.0  0.14286999999999997  0.8297199999999999  0.8789100000000002  1.0000
  O   O41       1.0  0.4688100000000001  0.8220599999999998  0.93421  1.0000
  O   O42       1.0  0.3248500000000001  0.76044  0.96162  1.0000
  O   O43       1.0  0.76007  0.70136  0.09006000000000002  1.0000
  O   O44       1.0  0.69102  0.77637  0.00293  1.0000
  O   O45       1.0  0.6783199999999999  0.85796  0.8506300000000001  1.0000
  O   O46       1.0  0.85224  0.79955  0.7635500000000001  1.0000
  O   O47       1.0  0.7485399999999999  0.07245  0.9618900000000001  1.0000
  O   O48       1.0  0.61656  0.01063  0.9545900000000002  1.0000
  O   O49       1.0  0.08553000000000002  0.11099999999999999  0.4604  1.0000
  O   O50       1.0  0.045669999999999995  0.08337  0.58163  1.0000
  O   O51       1.0  0.33668  0.18042999999999998  0.32206  1.0000
  O   O52       1.0  0.5262699999999999  0.12106999999999998  0.3295100000000001  1.0000
  O   O53       1.0  0.20725  0.06596  0.32233  1.0000
  O   O54       1.0  0.41327  0.03869  0.26091  1.0000
  O   O55       1.0  0.03987000000000004  0.9099  0.20088  1.0000
  O   O56       1.0  0.032820000000000016  0.99714  0.27617  1.0000
  O   O57       1.0  0.96119  0.14953  0.35976  1.0000
  O   O58       1.0  0.84518  0.23689999999999997  0.30161  1.0000
  O   O59       1.0  0.67984  0.03811  0.5727500000000001  1.0000
  O   O60       1.0  0.8733600000000001  0.04549  0.51069  1.0000
  O   O61       1.0  0.65673  0.38965  0.04084  1.0000
  O   O62       1.0  0.7089100000000002  0.41666  0.91953  1.0000
  O   O63       1.0  0.83768  0.31989  0.17874  1.0000
  O   O64       1.0  0.97674  0.37868  0.17088000000000006  1.0000
  O   O65       1.0  0.5943800000000001  0.43437  0.17815  1.0000
  O   O66       1.0  0.7124500000000001  0.46190999999999993  0.23876  1.0000
  O   O67       1.0  0.14837000000000003  0.59009  0.29879000000000006  1.0000
  O   O68       1.0  0.3030900000000001  0.50309  0.22291000000000002  1.0000
  O   O69       1.0  0.4693600000000001  0.35079  0.14102  1.0000
  O   O70       1.0  0.38325  0.26327  0.19917  1.0000
  O   O71       1.0  0.29081  0.46182  0.92702  1.0000
  O   O72       1.0  0.42912  0.45446999999999993  0.98934  1.0000
  O   O73       1.0  0.69309  0.46163999999999994  0.38944  1.0000
  O   O74       1.0  0.6283200000000001  0.58289  0.41668  1.0000
  O   O75       1.0  0.015009999999999938  0.32206  0.3195900000000001  1.0000
  O   O76       1.0  0.14752999999999994  0.32931  0.3775500000000001  1.0000
  O   O77       1.0  0.7720800000000001  0.32289  0.4342500000000001  1.0000
  O   O78       1.0  0.95144  0.26301  0.46152  1.0000
  O   O79       1.0  0.44602000000000014  0.20199999999999999  0.58991  1.0000
  O   O80       1.0  0.5304700000000001  0.27563  0.50234  1.0000
  O   O81       1.0  0.60889  0.35925  0.3507  1.0000
  O   O82       1.0  0.5787500000000001  0.30159  0.26357  1.0000
  O   O83       1.0  0.2167199999999999  0.57278  0.46193000000000006  1.0000
  O   O84       1.0  0.4174899999999999  0.51075  0.45474000000000003  1.0000
  O   O85       1.0  0.5455099999999999  0.04095  0.11068000000000001  1.0000
  O   O86       1.0  0.6232699999999999  0.9195499999999999  0.08349  1.0000
  O   O87       1.0  0.6599899999999999  0.17821  0.18043  1.0000
  O   O88       1.0  0.85725  0.17026  0.12090000000000001  1.0000
  O   O89       1.0  0.53134  0.1778  0.06574000000000003  1.0000
  O   O90       1.0  0.67509  0.23954999999999999  0.03838000000000001  1.0000
  O   O91       1.0  0.23994999999999994  0.29862  0.90995  1.0000
  O   O92       1.0  0.3089599999999999  0.22349  0.9970200000000001  1.0000
  O   O93       1.0  0.32176999999999994  0.14197  0.14941000000000002  1.0000
  O   O94       1.0  0.14793999999999996  0.2006  0.23649000000000006  1.0000
  O   O95       1.0  0.25148  0.92756  0.0381  1.0000
  O   O96       1.0  0.3834600000000001  0.9893599999999999  0.04542  1.0000
