data_image0
_chemical_formula_structural       Zn4H104C112N24O16
_chemical_formula_sum              "Zn4 H104 C112 N24 O16"
_cell_length_a       10.58211
_cell_length_b       13.196820000000002
_cell_length_c       21.61837
_cell_angle_alpha    90.0
_cell_angle_beta     90.0
_cell_angle_gamma    103.10932

_symmetry_space_group_name_H-M    'P 1'
_symmetry_Int_Tables_number       1

loop_
  _symmetry_equiv_pos_as_xyz
  'x,y,z'

loop_
  _atom_site_type_symbol
  _atom_site_label
  _atom_site_symmetry_multiplicity
  _atom_site_fract_x
  _atom_site_fract_y
  _atom_site_fract_z
  _atom_site_occupancy
  Zn  Zn1       1.0  0.7884600000000002  0.4927099999999999  0.14211  1.0000
  Zn  Zn2       1.0  0.3165  0.99828  0.06716  1.0000
  Zn  Zn3       1.0  0.21154  0.50729  0.64211  1.0000
  Zn  Zn4       1.0  0.68351  0.00173  0.56717  1.0000
  H   H1        1.0  0.45813999999999994  0.6930699999999997  0.22626  1.0000
  H   H2        1.0  0.37147  0.4808099999999999  0.38112999999999997  1.0000
  H   H3        1.0  0.20570999999999998  0.5079399999999998  0.45681999999999995  1.0000
  H   H4        1.0  0.061880000000000004  0.6164  0.4955199999999999  1.0000
  H   H5        1.0  0.9593300000000001  0.7657199999999998  0.48081  1.0000
  H   H6        1.0  0.10581999999999993  0.9861999999999997  0.33564999999999995  1.0000
  H   H7        1.0  0.63362  0.6342399999999998  0.21509999999999996  1.0000
  H   H8        1.0  0.44496  0.36955  0.3195  1.0000
  H   H9        1.0  0.63961  0.3209  0.24659999999999999  1.0000
  H   H10       1.0  0.89218  0.89059  0.52333  1.0000
  H   H11       1.0  0.901  0.02372  0.34385  1.0000
  H   H12       1.0  0.72594  0.09595999999999998  0.4196399999999999  1.0000
  H   H13       1.0  0.47803999999999996  0.16138999999999995  0.93117  1.0000
  H   H14       1.0  0.38602  0.44891999999999993  0.9909899999999999  1.0000
  H   H15       1.0  0.23580000000000004  0.52348  0.9252499999999999  1.0000
  H   H16       1.0  0.08479000000000002  0.50596  0.8364  1.0000
  H   H17       1.0  0.9687  0.3999699999999999  0.7494999999999998  1.0000
  H   H18       1.0  0.0683  0.10832  0.70909  1.0000
  H   H19       1.0  0.5924799999999999  0.48132999999999987  0.02849  1.0000
  H   H20       1.0  0.53969  0.15090999999999996  0.033889999999999997  1.0000
  H   H21       1.0  0.71677  0.24210999999999996  0.12252  1.0000
  H   H22       1.0  0.83373  0.06332  0.6932499999999999  1.0000
  H   H23       1.0  0.93366  0.37738  0.62949  1.0000
  H   H24       1.0  0.7630799999999999  0.25215999999999994  0.54639  1.0000
  H   H25       1.0  0.29173  0.26454  0.22185  1.0000
  H   H26       1.0  0.30073  0.32438  0.08634  1.0000
  H   H27       1.0  0.40317000000000003  0.3841799999999999  0.14642  1.0000
  H   H28       1.0  0.2594699999999999  0.4979399999999999  0.16508  1.0000
  H   H29       1.0  0.16475999999999996  0.4400599999999999  0.10268  1.0000
  H   H30       1.0  0.062379999999999984  0.36408  0.2912  1.0000
  H   H31       1.0  0.15081999999999995  0.4859599999999999  0.26219  1.0000
  H   H32       1.0  0.22972  0.38287  0.2722  1.0000
  H   H33       1.0  0.043  0.09454  0.22410999999999995  1.0000
  H   H34       1.0  0.9379400000000001  0.1798  0.24106  1.0000
  H   H35       1.0  0.09148  0.19540999999999994  0.2786199999999999  1.0000
  H   H36       1.0  0.9269  0.21092999999999995  0.12462999999999998  1.0000
  H   H37       1.0  0.03368  0.12711  0.11254  1.0000
  H   H38       1.0  0.07230999999999997  0.25534999999999997  0.08167  1.0000
  H   H39       1.0  0.8700600000000001  0.82752  0.08519  1.0000
  H   H40       1.0  0.82439  0.74486  0.9588099999999999  1.0000
  H   H41       1.0  0.91476  0.86794  0.98203  1.0000
  H   H42       1.0  0.7395299999999999  0.9274999999999998  0.93305  1.0000
  H   H43       1.0  0.62893  0.80751  0.9446399999999999  1.0000
  H   H44       1.0  0.75852  0.06483  0.011699999999999999  1.0000
  H   H45       1.0  0.8547  0.99281  0.05184  1.0000
  H   H46       1.0  0.72735  0.03461  0.09067  1.0000
  H   H47       1.0  0.73941  0.90671  0.15339  1.0000
  H   H48       1.0  0.6664299999999999  0.7765599999999998  0.17119  1.0000
  H   H49       1.0  0.56781  0.86551  0.15212  1.0000
  H   H50       1.0  0.55712  0.65146  0.09116  1.0000
  H   H51       1.0  0.5424  0.69086  0.01326  1.0000
  H   H52       1.0  0.45488  0.7365799999999998  0.07281  1.0000
  H   H53       1.0  0.5418600000000001  0.30692  0.7262599999999999  1.0000
  H   H54       1.0  0.62853  0.51919  0.8811299999999999  1.0000
  H   H55       1.0  0.7943000000000001  0.49206  0.95683  1.0000
  H   H56       1.0  0.9381199999999997  0.3835999999999999  0.99552  1.0000
  H   H57       1.0  0.04067999999999999  0.23427999999999993  0.9808099999999998  1.0000
  H   H58       1.0  0.89419  0.0138  0.8356499999999999  1.0000
  H   H59       1.0  0.36638999999999994  0.36576  0.7151  1.0000
  H   H60       1.0  0.55505  0.6304499999999997  0.8195  1.0000
  H   H61       1.0  0.3604  0.67908  0.7465999999999999  1.0000
  H   H62       1.0  0.10783000000000001  0.10941  0.023329999999999993  1.0000
  H   H63       1.0  0.09900000000000002  0.9762799999999999  0.84384  1.0000
  H   H64       1.0  0.27406  0.90404  0.91964  1.0000
  H   H65       1.0  0.52197  0.83861  0.4311699999999999  1.0000
  H   H66       1.0  0.61399  0.55108  0.49098999999999987  1.0000
  H   H67       1.0  0.76421  0.47651  0.42525  1.0000
  H   H68       1.0  0.9152100000000001  0.49404  0.3364  1.0000
  H   H69       1.0  0.03130000000000001  0.60003  0.24949999999999997  1.0000
  H   H70       1.0  0.93171  0.8916699999999997  0.20909  1.0000
  H   H71       1.0  0.40752  0.51868  0.5284899999999999  1.0000
  H   H72       1.0  0.46030999999999994  0.84908  0.5338999999999999  1.0000
  H   H73       1.0  0.28325  0.75788  0.62251  1.0000
  H   H74       1.0  0.16626999999999997  0.9366899999999999  0.19324999999999995  1.0000
  H   H75       1.0  0.06635000000000003  0.62262  0.12948999999999997  1.0000
  H   H76       1.0  0.23694  0.7478399999999997  0.04638  1.0000
  H   H77       1.0  0.7082799999999999  0.7354499999999999  0.72185  1.0000
  H   H78       1.0  0.69927  0.67562  0.58634  1.0000
  H   H79       1.0  0.59683  0.61582  0.64642  1.0000
  H   H80       1.0  0.74054  0.50206  0.6650799999999999  1.0000
  H   H81       1.0  0.83525  0.55994  0.6026799999999999  1.0000
  H   H82       1.0  0.93762  0.63592  0.7912  1.0000
  H   H83       1.0  0.8491900000000001  0.51404  0.7621899999999998  1.0000
  H   H84       1.0  0.77029  0.61713  0.7722  1.0000
  H   H85       1.0  0.9570100000000001  0.9054599999999999  0.7241199999999999  1.0000
  H   H86       1.0  0.06205999999999996  0.8201999999999998  0.74106  1.0000
  H   H87       1.0  0.90853  0.8045799999999997  0.7786199999999999  1.0000
  H   H88       1.0  0.07309999999999996  0.7890699999999998  0.62463  1.0000
  H   H89       1.0  0.9663200000000001  0.8728799999999999  0.61254  1.0000
  H   H90       1.0  0.9277000000000001  0.7446499999999998  0.58167  1.0000
  H   H91       1.0  0.12994999999999998  0.17246999999999996  0.58519  1.0000
  H   H92       1.0  0.17561  0.25514  0.45880999999999994  1.0000
  H   H93       1.0  0.08525  0.13206  0.4820299999999999  1.0000
  H   H94       1.0  0.26048  0.07249999999999998  0.4330499999999999  1.0000
  H   H95       1.0  0.37107  0.19248999999999997  0.44464  1.0000
  H   H96       1.0  0.24148999999999998  0.93517  0.5116999999999999  1.0000
  H   H97       1.0  0.1453  0.007179999999999998  0.55184  1.0000
  H   H98       1.0  0.27265  0.9653899999999997  0.5906699999999999  1.0000
  H   H99       1.0  0.2606  0.09328999999999998  0.65339  1.0000
  H   H100      1.0  0.33357  0.22343  0.6712  1.0000
  H   H101      1.0  0.43219  0.13448  0.6521299999999999  1.0000
  H   H102      1.0  0.44288999999999995  0.34853999999999996  0.59116  1.0000
  H   H103      1.0  0.4576  0.30914  0.51327  1.0000
  H   H104      1.0  0.54513  0.26342  0.5728099999999999  1.0000
  C   C1        1.0  0.41086000000000006  0.67007  0.27053  1.0000
  C   C2        1.0  0.42953  0.58004  0.30164  1.0000
  C   C3        1.0  0.36199999999999993  0.5499899999999999  0.35583999999999993  1.0000
  C   C4        1.0  0.27772  0.61015  0.3786399999999999  1.0000
  C   C5        1.0  0.20072999999999996  0.57966  0.43292  1.0000
  C   C6        1.0  0.12069999999999997  0.6397299999999999  0.45435999999999993  1.0000
  C   C7        1.0  0.1120899999999999  0.7337499999999998  0.42324  1.0000
  C   C8        1.0  0.02437  0.7930899999999999  0.44239  1.0000
  C   C9        1.0  0.019319999999999993  0.8831  0.41058  1.0000
  C   C10       1.0  0.10453999999999994  0.9136399999999998  0.36013999999999996  1.0000
  C   C11       1.0  0.18854999999999994  0.76769  0.36956  1.0000
  C   C12       1.0  0.2710199999999999  0.7026399999999999  0.34572  1.0000
  C   C13       1.0  0.60791  0.5556999999999999  0.23288999999999996  1.0000
  C   C14       1.0  0.51235  0.41651  0.28759  1.0000
  C   C15       1.0  0.60773  0.39287  0.25119  1.0000
  C   C16       1.0  0.8721399999999999  0.93746  0.48521  1.0000
  C   C17       1.0  0.87706  0.010599999999999997  0.3922  1.0000
  C   C18       1.0  0.78989  0.04445999999999999  0.4292899999999999  1.0000
  C   C19       1.0  0.42363  0.22191  0.92593  1.0000
  C   C20       1.0  0.44306  0.30628999999999995  0.96797  1.0000
  C   C21       1.0  0.37495  0.38332  0.95933  1.0000
  C   C22       1.0  0.28946  0.37608999999999987  0.90864  1.0000
  C   C23       1.0  0.22  0.45505999999999996  0.8956099999999998  1.0000
  C   C24       1.0  0.13646999999999998  0.44537999999999994  0.8466399999999997  1.0000
  C   C25       1.0  0.11425  0.35511  0.8078999999999998  1.0000
  C   C26       1.0  0.023479999999999984  0.34128999999999987  0.7590699999999999  1.0000
  C   C27       1.0  0.004649999999999995  0.25124  0.7245  1.0000
  C   C28       1.0  0.07951  0.17777  0.7378499999999999  1.0000
  C   C29       1.0  0.18261999999999998  0.27511  0.8188699999999999  1.0000
  C   C30       1.0  0.27403  0.28664  0.8697799999999999  1.0000
  C   C31       1.0  0.5986  0.40442  0.04346  1.0000
  C   C32       1.0  0.57643  0.23226999999999995  0.04501999999999999  1.0000
  C   C33       1.0  0.66395  0.27755  0.08912999999999999  1.0000
  C   C34       1.0  0.84287  0.13064  0.66339  1.0000
  C   C35       1.0  0.88879  0.29489  0.62929  1.0000
  C   C36       1.0  0.8051900000000001  0.23282999999999998  0.58918  1.0000
  C   C37       1.0  0.96871  0.38935  0.17978  1.0000
  C   C38       1.0  0.10214  0.36555  0.1913  1.0000
  C   C39       1.0  0.10121999999999999  0.24685  0.18185  1.0000
  C   C40       1.0  0.24987000000000004  0.25211  0.17526999999999998  1.0000
  C   C41       1.0  0.30187  0.34848999999999997  0.13488  1.0000
  C   C42       1.0  0.20929  0.42251  0.14596  1.0000
  C   C43       1.0  0.13772000000000004  0.40123999999999993  0.25837  1.0000
  C   C44       1.0  0.03939  0.1752  0.23484  1.0000
  C   C45       1.0  0.0294  0.2081  0.12143  1.0000
  C   C46       1.0  0.52196  0.92198  0.02214  1.0000
  C   C47       1.0  0.66013  0.9035099999999998  0.02696  1.0000
  C   C48       1.0  0.6621699999999999  0.81041  0.07329  1.0000
  C   C49       1.0  0.7943000000000001  0.7817599999999999  0.05520999999999999  1.0000
  C   C50       1.0  0.82011  0.8134399999999999  0.9865399999999998  1.0000
  C   C51       1.0  0.70861  0.8639699999999999  0.96637  1.0000
  C   C52       1.0  0.75576  0.00447  0.04695  1.0000
  C   C53       1.0  0.65843  0.8419  0.14128  1.0000
  C   C54       1.0  0.54738  0.7168999999999998  0.061549999999999994  1.0000
  C   C55       1.0  0.7929199999999998  0.6677  0.06789  1.0000
  C   C56       1.0  0.27862  0.1493  0.15398  1.0000
  C   C57       1.0  0.58915  0.32993  0.77053  1.0000
  C   C58       1.0  0.57048  0.4199599999999999  0.80164  1.0000
  C   C59       1.0  0.63801  0.45001  0.8558399999999998  1.0000
  C   C60       1.0  0.72229  0.38985  0.8786399999999999  1.0000
  C   C61       1.0  0.7992800000000001  0.42034  0.9329199999999997  1.0000
  C   C62       1.0  0.8793100000000003  0.36027  0.9543599999999998  1.0000
  C   C63       1.0  0.8879100000000001  0.26625  0.92324  1.0000
  C   C64       1.0  0.9756299999999999  0.20692  0.9423999999999998  1.0000
  C   C65       1.0  0.9806799999999999  0.1169  0.91058  1.0000
  C   C66       1.0  0.89546  0.08636  0.8601399999999998  1.0000
  C   C67       1.0  0.8114600000000001  0.23229999999999995  0.8695599999999999  1.0000
  C   C68       1.0  0.72899  0.29735  0.84572  1.0000
  C   C69       1.0  0.39207999999999993  0.4443  0.73289  1.0000
  C   C70       1.0  0.48766000000000004  0.5834899999999998  0.7875899999999999  1.0000
  C   C71       1.0  0.3922800000000001  0.6071299999999998  0.7511899999999999  1.0000
  C   C72       1.0  0.12787  0.06254  0.9852099999999999  1.0000
  C   C73       1.0  0.12295  0.98939  0.8921999999999999  1.0000
  C   C74       1.0  0.21012000000000003  0.9555399999999998  0.9292899999999998  1.0000
  C   C75       1.0  0.57637  0.77808  0.42593  1.0000
  C   C76       1.0  0.5569399999999999  0.6937099999999998  0.46797999999999995  1.0000
  C   C77       1.0  0.62505  0.61669  0.45933  1.0000
  C   C78       1.0  0.7105499999999999  0.6239099999999999  0.40863999999999995  1.0000
  C   C79       1.0  0.78001  0.54494  0.39560999999999996  1.0000
  C   C80       1.0  0.86353  0.55462  0.34663999999999995  1.0000
  C   C81       1.0  0.88577  0.6448799999999999  0.30789  1.0000
  C   C82       1.0  0.9765400000000001  0.6587099999999999  0.25907  1.0000
  C   C83       1.0  0.9953599999999999  0.7487699999999998  0.22449999999999995  1.0000
  C   C84       1.0  0.92049  0.8222299999999998  0.23784999999999998  1.0000
  C   C85       1.0  0.8174  0.72489  0.31886  1.0000
  C   C86       1.0  0.72598  0.7133599999999998  0.36976999999999993  1.0000
  C   C87       1.0  0.40141000000000004  0.59559  0.54346  1.0000
  C   C88       1.0  0.42357999999999996  0.76773  0.54502  1.0000
  C   C89       1.0  0.33606  0.72245  0.58913  1.0000
  C   C90       1.0  0.15712999999999994  0.8693499999999997  0.1634  1.0000
  C   C91       1.0  0.11122  0.70511  0.1293  1.0000
  C   C92       1.0  0.19481999999999994  0.7671699999999998  0.08918  1.0000
  C   C93       1.0  0.03129999999999997  0.6106499999999999  0.67978  1.0000
  C   C94       1.0  0.8978699999999998  0.63444  0.6912999999999999  1.0000
  C   C95       1.0  0.89878  0.7531499999999998  0.68185  1.0000
  C   C96       1.0  0.75013  0.74789  0.67527  1.0000
  C   C97       1.0  0.6981399999999998  0.65152  0.63488  1.0000
  C   C98       1.0  0.79072  0.57749  0.6459599999999999  1.0000
  C   C99       1.0  0.8622799999999999  0.59876  0.7583699999999999  1.0000
  C   C100      1.0  0.9606200000000001  0.8247999999999999  0.7348399999999999  1.0000
  C   C101      1.0  0.97061  0.79189  0.62143  1.0000
  C   C102      1.0  0.47806  0.07802  0.52215  1.0000
  C   C103      1.0  0.33988  0.09648  0.52696  1.0000
  C   C104      1.0  0.33783  0.18959  0.57328  1.0000
  C   C105      1.0  0.20570000000000002  0.21825  0.55521  1.0000
  C   C106      1.0  0.17989  0.18656  0.48653999999999986  1.0000
  C   C107      1.0  0.29139  0.13603  0.46636999999999995  1.0000
  C   C108      1.0  0.24424  0.99553  0.54695  1.0000
  C   C109      1.0  0.34158  0.15809999999999996  0.64128  1.0000
  C   C110      1.0  0.45263000000000003  0.28309999999999996  0.5615499999999999  1.0000
  C   C111      1.0  0.20708999999999994  0.33229999999999993  0.56789  1.0000
  C   C112      1.0  0.72139  0.85071  0.65398  1.0000
  N   N1        1.0  0.33577  0.72985  0.29189  1.0000
  N   N2        1.0  0.18474999999999997  0.8572799999999999  0.33961  1.0000
  N   N3        1.0  0.5127  0.52062  0.27569  1.0000
  N   N4        1.0  0.6664099999999997  0.48026999999999986  0.21757999999999997  1.0000
  N   N5        1.0  0.92941  0.94251  0.42828  1.0000
  N   N6        1.0  0.78795  0.9981299999999999  0.48695  1.0000
  N   N7        1.0  0.34156  0.21193  0.8788699999999999  1.0000
  N   N8        1.0  0.16504999999999997  0.18826999999999994  0.7833299999999997  1.0000
  N   N9        1.0  0.53431  0.31344999999999995  0.016549999999999995  1.0000
  N   N10       1.0  0.67741  0.3845299999999999  0.08725999999999999  1.0000
  N   N11       1.0  0.9133699999999999  0.22864999999999996  0.67583  1.0000
  N   N12       1.0  0.77731  0.13119  0.61106  1.0000
  N   N13       1.0  0.66424  0.27015  0.7918899999999999  1.0000
  N   N14       1.0  0.81525  0.14272  0.83962  1.0000
  N   N15       1.0  0.48729999999999996  0.4793799999999999  0.7756899999999999  1.0000
  N   N16       1.0  0.3336  0.51973  0.7175799999999999  1.0000
  N   N17       1.0  0.07059  0.05747999999999999  0.9282799999999999  1.0000
  N   N18       1.0  0.21207000000000004  0.0018699999999999997  0.9869599999999998  1.0000
  N   N19       1.0  0.6584400000000001  0.78808  0.37887  1.0000
  N   N20       1.0  0.83495  0.81173  0.28333  1.0000
  N   N21       1.0  0.46569  0.68655  0.51655  1.0000
  N   N22       1.0  0.3226  0.61547  0.58726  1.0000
  N   N23       1.0  0.08662999999999997  0.7713499999999998  0.17582999999999996  1.0000
  N   N24       1.0  0.2226899999999999  0.8687999999999998  0.11105999999999999  1.0000
  O   O1        1.0  0.96789  0.47244999999999987  0.14683  1.0000
  O   O2        1.0  0.8684  0.3341999999999999  0.20320999999999995  1.0000
  O   O3        1.0  0.28802  0.13616999999999999  0.09428  1.0000
  O   O4        1.0  0.28737  0.08251999999999998  0.19367  1.0000
  O   O5        1.0  0.49979999999999997  0.9951099999999998  0.05902999999999999  1.0000
  O   O6        1.0  0.43834999999999996  0.8684199999999997  0.9875999999999998  1.0000
  O   O7        1.0  0.78804  0.60416  0.02465  1.0000
  O   O8        1.0  0.79374  0.6419599999999998  0.12624999999999997  1.0000
  O   O9        1.0  0.03212000000000001  0.52755  0.64683  1.0000
  O   O10       1.0  0.1316  0.6658  0.70322  1.0000
  O   O11       1.0  0.7119899999999999  0.8638199999999998  0.59428  1.0000
  O   O12       1.0  0.71264  0.91748  0.69368  1.0000
  O   O13       1.0  0.50021  0.00489  0.5590299999999999  1.0000
  O   O14       1.0  0.56165  0.13158  0.4876  1.0000
  O   O15       1.0  0.21196  0.39583  0.52465  1.0000
  O   O16       1.0  0.20626  0.35804  0.62625  1.0000
