data_image0
_chemical_formula_structural       Gd16H88C48N12O64
_chemical_formula_sum              "Gd16 H88 C48 N12 O64"
_cell_length_a       12.02489
_cell_length_b       19.83085
_cell_length_c       23.520449999999997
_cell_angle_alpha    89.95759
_cell_angle_beta     89.99143
_cell_angle_gamma    89.97457

_symmetry_space_group_name_H-M    'P 1'
_symmetry_Int_Tables_number       1

loop_
  _symmetry_equiv_pos_as_xyz
  'x,y,z'

loop_
  _atom_site_type_symbol
  _atom_site_label
  _atom_site_symmetry_multiplicity
  _atom_site_fract_x
  _atom_site_fract_y
  _atom_site_fract_z
  _atom_site_occupancy
  Gd  Gd1       1.0  0.59012  0.96216  0.27819  1.0000
  Gd  Gd2       1.0  0.90957  0.9725000000000001  0.27675  1.0000
  Gd  Gd3       1.0  0.7566900000000001  0.87409  0.16218  1.0000
  Gd  Gd4       1.0  0.7419  0.06594  0.16685  1.0000
  Gd  Gd5       1.0  0.9102  0.03638  0.7784299999999998  1.0000
  Gd  Gd6       1.0  0.59124  0.028159999999999998  0.77702  1.0000
  Gd  Gd7       1.0  0.74363  0.12615  0.66254  1.0000
  Gd  Gd8       1.0  0.75858  0.9340799999999999  0.6669999999999999  1.0000
  Gd  Gd9       1.0  0.41015  0.46281999999999995  0.2219  1.0000
  Gd  Gd10      1.0  0.09066  0.47311999999999993  0.22277  1.0000
  Gd  Gd11      1.0  0.24281  0.37508  0.33761  1.0000
  Gd  Gd12      1.0  0.25803  0.56701  0.33297  1.0000
  Gd  Gd13      1.0  0.08972000000000002  0.53671  0.7216  1.0000
  Gd  Gd14      1.0  0.40881000000000006  0.52673  0.72254  1.0000
  Gd  Gd15      1.0  0.25426  0.62442  0.83777  1.0000
  Gd  Gd16      1.0  0.24157000000000003  0.43305  0.8331  1.0000
  H   H1        1.0  0.8546900000000002  0.92718  0.52079  1.0000
  H   H2        1.0  0.91608  0.9398499999999999  0.45295  1.0000
  H   H3        1.0  0.8517100000000001  0.8677700000000002  0.4666  1.0000
  H   H4        1.0  0.67711  0.92343  0.47233  1.0000
  H   H5        1.0  0.3676800000000001  0.70782  0.2961  1.0000
  H   H6        1.0  0.33156  0.76347  0.2422  1.0000
  H   H7        1.0  0.38122  0.79761  0.30113  1.0000
  H   H8        1.0  0.81629  0.0529  0.46014  1.0000
  H   H9        1.0  0.67106  0.04882  0.46651  1.0000
  H   H10       1.0  0.89143  0.73828  0.18901  1.0000
  H   H11       1.0  0.84724  0.67257  0.23538999999999996  1.0000
  H   H12       1.0  0.91092  0.64694  0.1771  1.0000
  H   H13       1.0  0.55261  0.74454  0.29305  1.0000
  H   H14       1.0  0.5948200000000001  0.67585  0.20572  1.0000
  H   H15       1.0  0.4568900000000001  0.68523  0.18304  1.0000
  H   H16       1.0  0.07813  0.69649  0.20181  1.0000
  H   H17       1.0  0.9458700000000002  0.75685  0.30092  1.0000
  H   H18       1.0  0.09013  0.76732  0.29046  1.0000
  H   H19       1.0  0.7612000000000001  0.85852  0.28356  1.0000
  H   H20       1.0  0.74611  0.07475  0.28893  1.0000
  H   H21       1.0  0.93588  0.9752  0.15523999999999996  1.0000
  H   H22       1.0  0.56698  0.96198  0.15591  1.0000
  H   H23       1.0  0.6460500000000001  0.0727  0.02106  1.0000
  H   H24       1.0  0.58413  0.06002999999999999  0.9533399999999997  1.0000
  H   H25       1.0  0.64802  0.13232  0.9668  1.0000
  H   H26       1.0  0.82306  0.07717  0.9722699999999997  1.0000
  H   H27       1.0  0.13121  0.29239  0.79644  1.0000
  H   H28       1.0  0.16929  0.23644  0.7430799999999999  1.0000
  H   H29       1.0  0.11992  0.20229999999999998  0.8021599999999998  1.0000
  H   H30       1.0  0.68357  0.9478599999999999  0.9603499999999999  1.0000
  H   H31       1.0  0.82902  0.95138  0.9655199999999998  1.0000
  H   H32       1.0  0.6099  0.2627  0.6896  1.0000
  H   H33       1.0  0.65258  0.32973  0.73591  1.0000
  H   H34       1.0  0.58964  0.3544  0.67716  1.0000
  H   H35       1.0  0.9475300000000002  0.25384  0.79361  1.0000
  H   H36       1.0  0.90384  0.3227  0.7067499999999999  1.0000
  H   H37       1.0  0.04098  0.31385  0.6831199999999998  1.0000
  H   H38       1.0  0.42281  0.30418  0.7012499999999999  1.0000
  H   H39       1.0  0.55401  0.24429  0.80092  1.0000
  H   H40       1.0  0.40998  0.23344  0.79007  1.0000
  H   H41       1.0  0.73948  0.14119  0.78382  1.0000
  H   H42       1.0  0.75349  0.9253799999999999  0.7894  1.0000
  H   H43       1.0  0.56401  0.024769999999999997  0.65499  1.0000
  H   H44       1.0  0.9340100000000001  0.03814  0.6567  1.0000
  H   H45       1.0  0.14636  0.42612999999999995  0.9788799999999998  1.0000
  H   H46       1.0  0.08392000000000002  0.43771  0.04681  1.0000
  H   H47       1.0  0.14878  0.36581  0.03287  1.0000
  H   H48       1.0  0.32333  0.42213999999999996  0.0278  1.0000
  H   H49       1.0  0.63327  0.20872  0.20359  1.0000
  H   H50       1.0  0.6683  0.26353  0.25786  1.0000
  H   H51       1.0  0.61869  0.29821  0.19911999999999996  1.0000
  H   H52       1.0  0.18065000000000006  0.55014  0.0397  1.0000
  H   H53       1.0  0.3261  0.54824  0.03397  1.0000
  H   H54       1.0  0.10895000000000002  0.23782999999999999  0.31062  1.0000
  H   H55       1.0  0.15176  0.17183  0.26385  1.0000
  H   H56       1.0  0.08842  0.1462  0.32222  1.0000
  H   H57       1.0  0.44763000000000003  0.24472  0.20644  1.0000
  H   H58       1.0  0.4053000000000001  0.17576  0.29402  1.0000
  H   H59       1.0  0.54321  0.18493  0.31645  1.0000
  H   H60       1.0  0.9217800000000003  0.1973  0.29842  1.0000
  H   H61       1.0  0.05390000000000001  0.25674  0.19883999999999996  1.0000
  H   H62       1.0  0.90996  0.26802  0.20956  1.0000
  H   H63       1.0  0.23918  0.35957  0.21699  1.0000
  H   H64       1.0  0.25462  0.57506  0.21078  1.0000
  H   H65       1.0  0.0643  0.47736999999999996  0.34443  1.0000
  H   H66       1.0  0.43336  0.4636199999999999  0.34482  1.0000
  H   H67       1.0  0.35243000000000013  0.57398  0.47865  1.0000
  H   H68       1.0  0.41614  0.5604  0.54577  1.0000
  H   H69       1.0  0.35246  0.63308  0.53339  1.0000
  H   H70       1.0  0.17678  0.57835  0.52806  1.0000
  H   H71       1.0  0.8679200000000001  0.79218  0.70333  1.0000
  H   H72       1.0  0.83161  0.73674  0.7572  1.0000
  H   H73       1.0  0.88125  0.70227  0.6983399999999997  1.0000
  H   H74       1.0  0.31541  0.4486399999999999  0.53994  1.0000
  H   H75       1.0  0.17010000000000003  0.45269  0.53376  1.0000
  H   H76       1.0  0.38974000000000003  0.75778  0.8086599999999999  1.0000
  H   H77       1.0  0.34704000000000007  0.82923  0.76407  1.0000
  H   H78       1.0  0.41008  0.8516699999999999  0.82319  1.0000
  H   H79       1.0  0.05317000000000001  0.75478  0.7067399999999999  1.0000
  H   H80       1.0  0.09397000000000001  0.82331  0.79475  1.0000
  H   H81       1.0  0.95501  0.8146400000000001  0.81603  1.0000
  H   H82       1.0  0.57677  0.80304  0.79859  1.0000
  H   H83       1.0  0.44886  0.74282  0.6978  1.0000
  H   H84       1.0  0.5924  0.73231  0.71027  1.0000
  H   H85       1.0  0.26075  0.64021  0.71697  1.0000
  H   H86       1.0  0.24576  0.42367000000000005  0.7109799999999998  1.0000
  H   H87       1.0  0.43507000000000007  0.52222  0.8444899999999999  1.0000
  H   H88       1.0  0.06575  0.53522  0.84382  1.0000
  C   C1        1.0  0.7518000000000001  0.94675  0.3915  1.0000
  C   C2        1.0  0.74746  0.95196  0.45507  1.0000
  C   C3        1.0  0.7485000000000003  0.02373  0.48005999999999993  1.0000
  C   C4        1.0  0.75843  0.02682  0.54422  1.0000
  C   C5        1.0  0.52549  0.81187  0.22136  1.0000
  C   C6        1.0  0.50204  0.74821  0.25366  1.0000
  C   C7        1.0  0.50954  0.6818  0.22175999999999998  1.0000
  C   C8        1.0  0.47827  0.62098  0.2567  1.0000
  C   C9        1.0  0.03238  0.63057  0.272  1.0000
  C   C10       1.0  0.015570000000000004  0.69289  0.2365  1.0000
  C   C11       1.0  0.011510000000000003  0.76038  0.26751  1.0000
  C   C12       1.0  0.9925800000000002  0.82002  0.22857  1.0000
  C   C13       1.0  0.7481700000000001  0.054450000000000005  0.8913599999999999  1.0000
  C   C14       1.0  0.7528100000000001  0.04859  0.955  1.0000
  C   C15       1.0  0.7523200000000001  0.97666  0.9798099999999997  1.0000
  C   C16       1.0  0.74444  0.9733599999999999  0.04399  1.0000
  C   C17       1.0  0.9746900000000001  0.18707  0.7218699999999998  1.0000
  C   C18       1.0  0.99822  0.25066  0.7542499999999998  1.0000
  C   C19       1.0  0.9896200000000002  0.31722  0.7222499999999997  1.0000
  C   C20       1.0  0.0213  0.37833  0.7567499999999999  1.0000
  C   C21       1.0  0.4667900000000001  0.36992  0.77195  1.0000
  C   C22       1.0  0.4846400000000001  0.30811  0.73626  1.0000
  C   C23       1.0  0.48879000000000006  0.24073999999999998  0.76734  1.0000
  C   C24       1.0  0.50884  0.18156  0.72826  1.0000
  C   C25       1.0  0.24833  0.44522999999999996  0.10854999999999998  1.0000
  C   C26       1.0  0.2525  0.45031  0.04499  1.0000
  C   C27       1.0  0.25005  0.52211  0.0199  1.0000
  C   C28       1.0  0.24178  0.52503  0.9558899999999999  1.0000
  C   C29       1.0  0.4729  0.31148  0.27858999999999995  1.0000
  C   C30       1.0  0.49766000000000005  0.24808  0.24601999999999996  1.0000
  C   C31       1.0  0.49047000000000013  0.18145  0.2777899999999999  1.0000
  C   C32       1.0  0.52214  0.12032  0.24321  1.0000
  C   C33       1.0  0.9647300000000002  0.13122  0.22792  1.0000
  C   C34       1.0  0.9836100000000002  0.19315  0.26342  1.0000
  C   C35       1.0  0.98861  0.26053  0.23237999999999995  1.0000
  C   C36       1.0  0.00905  0.31973  0.27144  1.0000
  C   C37       1.0  0.25214000000000003  0.5547  0.60868  1.0000
  C   C38       1.0  0.24706  0.54952  0.54506  1.0000
  C   C39       1.0  0.24738  0.47775  0.52005  1.0000
  C   C40       1.0  0.25594  0.47471  0.4559  1.0000
  C   C41       1.0  0.02474  0.68754  0.77841  1.0000
  C   C42       1.0  0.00207  0.75142  0.74597  1.0000
  C   C43       1.0  0.00927  0.8179300000000002  0.77784  1.0000
  C   C44       1.0  0.9797  0.8790199999999999  0.7426999999999999  1.0000
  C   C45       1.0  0.53664  0.8694499999999998  0.72868  1.0000
  C   C46       1.0  0.5153  0.80704  0.76353  1.0000
  C   C47       1.0  0.5125200000000001  0.73958  0.73203  1.0000
  C   C48       1.0  0.4905400000000001  0.68007  0.77077  1.0000
  N   N1        1.0  0.8531200000000001  0.91805  0.47666  1.0000
  N   N2        1.0  0.3838  0.75522  0.27614  1.0000
  N   N3        1.0  0.9058400000000002  0.68581  0.20559  1.0000
  N   N4        1.0  0.6471  0.08202  0.9768799999999997  1.0000
  N   N5        1.0  0.11643  0.24438  0.7767999999999999  1.0000
  N   N6        1.0  0.59483  0.31581  0.70593  1.0000
  N   N7        1.0  0.14721  0.41618999999999995  0.0232  1.0000
  N   N8        1.0  0.61613  0.25555  0.22386  1.0000
  N   N9        1.0  0.09371  0.18521  0.29386  1.0000
  N   N10       1.0  0.35268000000000005  0.58291  0.52296  1.0000
  N   N11       1.0  0.8840000000000001  0.74472  0.7232599999999999  1.0000
  N   N12       1.0  0.40489  0.8141  0.7935499999999999  1.0000
  O   O1        1.0  0.75572  0.89893  0.26048  1.0000
  O   O2        1.0  0.74385  0.03657  0.26324  1.0000
  O   O3        1.0  0.8662200000000001  0.97328  0.17605999999999997  1.0000
  O   O4        1.0  0.63309  0.96663  0.17924  1.0000
  O   O5        1.0  0.85105  0.9659899999999999  0.36874  1.0000
  O   O6        1.0  0.65468  0.95937  0.36581  1.0000
  O   O7        1.0  0.7548300000000001  0.08456  0.56894  1.0000
  O   O8        1.0  0.7728  0.96926  0.5715799999999999  1.0000
  O   O9        1.0  0.50457  0.86691  0.2542  1.0000
  O   O10       1.0  0.6124  0.81128  0.18544  1.0000
  O   O11       1.0  0.40611  0.6289  0.29994  1.0000
  O   O12       1.0  0.50503  0.56163  0.23758999999999994  1.0000
  O   O13       1.0  0.01143  0.57291  0.24278  1.0000
  O   O14       1.0  0.11917000000000003  0.63311  0.30875  1.0000
  O   O15       1.0  0.005560000000000002  0.8809  0.2515  1.0000
  O   O16       1.0  0.9067200000000001  0.81144  0.18876999999999997  1.0000
  O   O17       1.0  0.7448300000000001  0.10103999999999999  0.76042  1.0000
  O   O18       1.0  0.75576  0.96323  0.76329  1.0000
  O   O19       1.0  0.63417  0.026889999999999997  0.67524  1.0000
  O   O20       1.0  0.86708  0.03331  0.67939  1.0000
  O   O21       1.0  0.6490200000000002  0.03384  0.86879  1.0000
  O   O22       1.0  0.8453  0.04048  0.86577  1.0000
  O   O23       1.0  0.74997  0.91552  0.06879  1.0000
  O   O24       1.0  0.7276500000000001  0.030599999999999995  0.0716  1.0000
  O   O25       1.0  0.9957900000000002  0.13164  0.75404  1.0000
  O   O26       1.0  0.88847  0.18849  0.68559  1.0000
  O   O27       1.0  0.09409000000000002  0.37059  0.80003  1.0000
  O   O28       1.0  0.9946900000000002  0.43788  0.73735  1.0000
  O   O29       1.0  0.48872  0.42777  0.74315  1.0000
  O   O30       1.0  0.37974  0.36711  0.80855  1.0000
  O   O31       1.0  0.49893  0.12066  0.7515799999999999  1.0000
  O   O32       1.0  0.59475  0.19123  0.68843  1.0000
  O   O33       1.0  0.24466000000000002  0.40017  0.23986  1.0000
  O   O34       1.0  0.25616  0.53695  0.23659999999999998  1.0000
  O   O35       1.0  0.13393  0.47464  0.32366  1.0000
  O   O36       1.0  0.36707  0.4678899999999999  0.32161  1.0000
  O   O37       1.0  0.14914  0.46455  0.13124  1.0000
  O   O38       1.0  0.34536  0.4578499999999999  0.13434  1.0000
  O   O39       1.0  0.24985000000000004  0.58282  0.9306799999999998  1.0000
  O   O40       1.0  0.22211000000000003  0.46765  0.92824  1.0000
  O   O41       1.0  0.49456  0.36691  0.24615  1.0000
  O   O42       1.0  0.38484  0.31015  0.31399999999999995  1.0000
  O   O43       1.0  0.59386  0.12794  0.19997999999999996  1.0000
  O   O44       1.0  0.49468  0.06106  0.26231  1.0000
  O   O45       1.0  0.98416  0.07342  0.25721  1.0000
  O   O46       1.0  0.87789  0.1345  0.19122  1.0000
  O   O47       1.0  0.99874  0.38065  0.24841  1.0000
  O   O48       1.0  0.09428  0.31013999999999997  0.31147  1.0000
  O   O49       1.0  0.25462  0.59954  0.7397399999999997  1.0000
  O   O50       1.0  0.24378  0.46196  0.7365699999999998  1.0000
  O   O51       1.0  0.3649800000000001  0.52535  0.82417  1.0000
  O   O52       1.0  0.13224  0.53183  0.82061  1.0000
  O   O53       1.0  0.3506  0.53253  0.6309999999999999  1.0000
  O   O54       1.0  0.15455000000000002  0.54202  0.63434  1.0000
  O   O55       1.0  0.25018  0.41706999999999994  0.43102  1.0000
  O   O56       1.0  0.27227  0.53218  0.42846  1.0000
  O   O57       1.0  0.00417  0.63245  0.74553  1.0000
  O   O58       1.0  0.11151  0.68773  0.81449  1.0000
  O   O59       1.0  0.9060900000000001  0.8718199999999999  0.69993  1.0000
  O   O60       1.0  0.00541  0.9384700000000001  0.76245  1.0000
  O   O61       1.0  0.51552  0.9271399999999999  0.7571299999999999  1.0000
  O   O62       1.0  0.62148  0.86567  0.69138  1.0000
  O   O63       1.0  0.50082  0.61908  0.7481399999999999  1.0000
  O   O64       1.0  0.40127  0.69038  0.80907  1.0000
