data_image0
_chemical_formula_structural       Cd4H104C154N12O12
_chemical_formula_sum              "Cd4 H104 C154 N12 O12"
_cell_length_a       10.06733
_cell_length_b       24.57592
_cell_length_c       24.57722
_cell_angle_alpha    105.95372
_cell_angle_beta     93.37063000000002
_cell_angle_gamma    93.37268

_symmetry_space_group_name_H-M    'P 1'
_symmetry_Int_Tables_number       1

loop_
  _symmetry_equiv_pos_as_xyz
  'x,y,z'

loop_
  _atom_site_type_symbol
  _atom_site_label
  _atom_site_symmetry_multiplicity
  _atom_site_fract_x
  _atom_site_fract_y
  _atom_site_fract_z
  _atom_site_occupancy
  Cd  Cd1       1.0  0.06151999999999998  0.09246  0.44798  1.0000
  Cd  Cd2       1.0  0.54012  0.07899000000000003  0.45060000000000006  1.0000
  Cd  Cd3       1.0  0.9384600000000001  0.55202  0.9075400000000002  1.0000
  Cd  Cd4       1.0  0.45986999999999983  0.5494  0.92101  1.0000
  H   H1        1.0  0.79029  0.11847  0.38871  1.0000
  H   H2        1.0  0.70774  0.19500000000000003  0.3523200000000001  1.0000
  H   H3        1.0  0.11970000000000004  0.25920000000000004  0.3554300000000001  1.0000
  H   H4        1.0  0.18545999999999999  0.18132  0.39352  1.0000
  H   H5        1.0  0.66612  0.28255  0.36125  1.0000
  H   H6        1.0  0.6005  0.3663699999999999  0.33453  1.0000
  H   H7        1.0  0.97821  0.3806199999999999  0.26366  1.0000
  H   H8        1.0  0.04396  0.29624  0.28962  1.0000
  H   H9        1.0  0.73545  0.36501  0.18316  1.0000
  H   H10       1.0  0.78213  0.39258  0.09721  1.0000
  H   H11       1.0  0.9105300000000001  0.5625  0.20038000000000003  1.0000
  H   H12       1.0  0.86461  0.5338499999999999  0.28592  1.0000
  H   H13       1.0  0.88443  0.4148  0.03166000000000001  1.0000
  H   H14       1.0  0.92503  0.44935  0.9491900000000001  1.0000
  H   H15       1.0  0.8928700000000002  0.61719  0.04147000000000001  1.0000
  H   H16       1.0  0.85433  0.58973  0.12805  1.0000
  H   H17       1.0  0.75421  0.44717  0.40312  1.0000
  H   H18       1.0  0.62843  0.51381  0.4709900000000001  1.0000
  H   H19       1.0  0.47258000000000006  0.57808  0.3362800000000001  1.0000
  H   H20       1.0  0.59383  0.51022  0.2681  1.0000
  H   H21       1.0  0.42905  0.10108000000000002  0.33684000000000003  1.0000
  H   H22       1.0  0.37063  0.17867999999999995  0.29631  1.0000
  H   H23       1.0  0.50749  0.2962899999999999  0.45958000000000004  1.0000
  H   H24       1.0  0.5678  0.21363  0.49116000000000004  1.0000
  H   H25       1.0  0.3291  0.24322  0.26721  1.0000
  H   H26       1.0  0.25486  0.32244  0.23412000000000002  1.0000
  H   H27       1.0  0.37193  0.43799  0.3982600000000001  1.0000
  H   H28       1.0  0.44363  0.3592799999999999  0.43304  1.0000
  H   H29       1.0  0.07595999999999997  0.4613099999999999  0.2267  1.0000
  H   H30       1.0  0.11804000000000002  0.47694000000000003  0.13568000000000002  1.0000
  H   H31       1.0  0.51637  0.42228000000000004  0.15032  1.0000
  H   H32       1.0  0.47168999999999994  0.40605  0.24126  1.0000
  H   H33       1.0  0.15926999999999997  0.4993699999999999  0.06819  1.0000
  H   H34       1.0  0.22272  0.52982  0.98552  1.0000
  H   H35       1.0  0.60417  0.4772799999999999  0.99739  1.0000
  H   H36       1.0  0.55858  0.44443  0.08145000000000001  1.0000
  H   H37       1.0  0.10366000000000002  0.41001  0.37599000000000005  1.0000
  H   H38       1.0  0.98153  0.47906999999999994  0.4429100000000001  1.0000
  H   H39       1.0  0.11439000000000002  0.60969  0.3681400000000001  1.0000
  H   H40       1.0  0.23987  0.54063  0.30174  1.0000
  H   H41       1.0  0.72811  0.96417  0.27466000000000007  1.0000
  H   H42       1.0  0.7123999999999999  0.88369  0.1863  1.0000
  H   H43       1.0  0.29885  0.8482499999999997  0.20875000000000002  1.0000
  H   H44       1.0  0.3152  0.9304699999999999  0.29545000000000005  1.0000
  H   H45       1.0  0.68358  0.22589000000000004  0.5920900000000001  1.0000
  H   H46       1.0  0.77193  0.30339  0.67628  1.0000
  H   H47       1.0  0.16039  0.23754999999999996  0.66108  1.0000
  H   H48       1.0  0.07034  0.16148  0.57658  1.0000
  H   H49       1.0  0.29927  0.26086  0.53472  1.0000
  H   H50       1.0  0.39614000000000005  0.3416000000000001  0.6162100000000001  1.0000
  H   H51       1.0  0.53731  0.22264999999999996  0.7016100000000001  1.0000
  H   H52       1.0  0.45015  0.14230999999999994  0.61773  1.0000
  H   H53       1.0  0.20971000000000004  0.6112899999999999  0.88152  1.0000
  H   H54       1.0  0.29225  0.64768  0.80499  1.0000
  H   H55       1.0  0.8803000000000001  0.6445600000000001  0.7408  1.0000
  H   H56       1.0  0.81453  0.60647  0.81868  1.0000
  H   H57       1.0  0.33386999999999994  0.63874  0.71744  1.0000
  H   H58       1.0  0.39949  0.66546  0.63362  1.0000
  H   H59       1.0  0.02177999999999999  0.73633  0.61938  1.0000
  H   H60       1.0  0.9560300000000002  0.71038  0.70376  1.0000
  H   H61       1.0  0.26454  0.81684  0.63499  1.0000
  H   H62       1.0  0.21786  0.90279  0.60741  1.0000
  H   H63       1.0  0.08946000000000003  0.7996100000000003  0.43750000000000006  1.0000
  H   H64       1.0  0.13537999999999997  0.7140599999999999  0.4661600000000001  1.0000
  H   H65       1.0  0.11556000000000001  0.96834  0.5852  1.0000
  H   H66       1.0  0.07495  0.050820000000000004  0.55064  1.0000
  H   H67       1.0  0.10711999999999999  0.9585299999999999  0.38281  1.0000
  H   H68       1.0  0.14567  0.87194  0.41028  1.0000
  H   H69       1.0  0.24579  0.59686  0.55283  1.0000
  H   H70       1.0  0.37157  0.5290000000000001  0.4861900000000001  1.0000
  H   H71       1.0  0.5274  0.66372  0.42192  1.0000
  H   H72       1.0  0.40616  0.7318999999999998  0.4897900000000001  1.0000
  H   H73       1.0  0.57095  0.6631699999999999  0.8989100000000002  1.0000
  H   H74       1.0  0.62937  0.70369  0.8213100000000001  1.0000
  H   H75       1.0  0.49249000000000004  0.54041  0.7037200000000002  1.0000
  H   H76       1.0  0.43218  0.50883  0.78637  1.0000
  H   H77       1.0  0.6709  0.7327899999999999  0.7567800000000001  1.0000
  H   H78       1.0  0.74514  0.76588  0.67755  1.0000
  H   H79       1.0  0.62806  0.60173  0.56201  1.0000
  H   H80       1.0  0.5563499999999999  0.5669499999999998  0.6407300000000001  1.0000
  H   H81       1.0  0.9240400000000001  0.7733  0.5386900000000001  1.0000
  H   H82       1.0  0.88195  0.8643199999999998  0.52306  1.0000
  H   H83       1.0  0.4836199999999999  0.8496799999999998  0.57772  1.0000
  H   H84       1.0  0.5283  0.75874  0.59395  1.0000
  H   H85       1.0  0.84072  0.93181  0.50063  1.0000
  H   H86       1.0  0.77726  0.014480000000000012  0.47017  1.0000
  H   H87       1.0  0.39581  0.0026100000000000173  0.5227100000000001  1.0000
  H   H88       1.0  0.44141  0.91855  0.55558  1.0000
  H   H89       1.0  0.8963300000000001  0.6239999999999998  0.58998  1.0000
  H   H90       1.0  0.01847000000000003  0.5570800000000001  0.5209200000000002  1.0000
  H   H91       1.0  0.88559  0.63186  0.39031  1.0000
  H   H92       1.0  0.7601  0.6982599999999998  0.45938000000000007  1.0000
  H   H93       1.0  0.27188  0.72534  0.03583  1.0000
  H   H94       1.0  0.28759  0.8136999999999998  0.11631  1.0000
  H   H95       1.0  0.70114  0.79125  0.15175  1.0000
  H   H96       1.0  0.68479  0.70454  0.06953000000000001  1.0000
  H   H97       1.0  0.31641  0.4079100000000001  0.7741100000000001  1.0000
  H   H98       1.0  0.22805999999999998  0.32372  0.6966100000000001  1.0000
  H   H99       1.0  0.83959  0.33892  0.76244  1.0000
  H   H100      1.0  0.92963  0.42342  0.83852  1.0000
  H   H101      1.0  0.7007300000000001  0.46529000000000004  0.7391400000000001  1.0000
  H   H102      1.0  0.6038500000000001  0.3837900000000001  0.6584000000000001  1.0000
  H   H103      1.0  0.46267  0.29838  0.7773400000000001  1.0000
  H   H104      1.0  0.54983  0.38226  0.8576900000000001  1.0000
  C   C1        1.0  0.85996  0.15069  0.38102  1.0000
  C   C2        1.0  0.8148299999999999  0.19404  0.36051  1.0000
  C   C3        1.0  0.90586  0.23530999999999994  0.34968  1.0000
  C   C4        1.0  0.042490000000000014  0.22884000000000002  0.36121000000000003  1.0000
  C   C5        1.0  0.08084000000000001  0.18505  0.38252  1.0000
  C   C6        1.0  0.8626599999999999  0.2828899999999999  0.32951  1.0000
  C   C7        1.0  0.73575  0.30349  0.33992  1.0000
  C   C8        1.0  0.69815  0.35129  0.32505000000000006  1.0000
  C   C9        1.0  0.7865399999999999  0.3816299999999999  0.29957  1.0000
  C   C10       1.0  0.90982  0.3593  0.28522000000000003  1.0000
  C   C11       1.0  0.94674  0.31138  0.30027  1.0000
  C   C12       1.0  0.79089  0.44817  0.24076000000000006  1.0000
  C   C13       1.0  0.77338  0.4083399999999999  0.18672  1.0000
  C   C14       1.0  0.80062  0.42427  0.13818  1.0000
  C   C15       1.0  0.84508  0.48088999999999993  0.14058000000000004  1.0000
  C   C16       1.0  0.8683200000000001  0.5195399999999999  0.19567  1.0000
  C   C17       1.0  0.84341  0.50363  0.24426000000000006  1.0000
  C   C18       1.0  0.86647  0.49883  0.08976  1.0000
  C   C19       1.0  0.88428  0.46008  0.03631  1.0000
  C   C20       1.0  0.9070600000000001  0.47902999999999996  0.98949  1.0000
  C   C21       1.0  0.89243  0.57285  0.0412  1.0000
  C   C22       1.0  0.8711600000000002  0.55683  0.08985  1.0000
  C   C23       1.0  0.68273  0.47291999999999995  0.33019000000000004  1.0000
  C   C24       1.0  0.69074  0.47508000000000006  0.3881  1.0000
  C   C25       1.0  0.61857  0.51264  0.4263100000000001  1.0000
  C   C26       1.0  0.53823  0.55079  0.40903000000000006  1.0000
  C   C27       1.0  0.53442  0.54955  0.35137  1.0000
  C   C28       1.0  0.60304  0.51112  0.3125800000000001  1.0000
  C   C29       1.0  0.44517  0.14525999999999997  0.36206  1.0000
  C   C30       1.0  0.412  0.18919999999999998  0.34008  1.0000
  C   C31       1.0  0.4294  0.24629  0.37438  1.0000
  C   C32       1.0  0.48747  0.25418  0.43019000000000013  1.0000
  C   C33       1.0  0.52094  0.20821  0.4488  1.0000
  C   C34       1.0  0.38985  0.29359  0.3537100000000001  1.0000
  C   C35       1.0  0.33828  0.28541  0.29689000000000004  1.0000
  C   C36       1.0  0.296  0.33001  0.2777  1.0000
  C   C37       1.0  0.3037100000000001  0.38538  0.31461000000000006  1.0000
  C   C38       1.0  0.36047  0.39488  0.37043  1.0000
  C   C39       1.0  0.4011100000000001  0.35002999999999995  0.3895000000000001  1.0000
  C   C40       1.0  0.27264999999999995  0.43457  0.24155  1.0000
  C   C41       1.0  0.17258  0.45293999999999995  0.20997  1.0000
  C   C42       1.0  0.19789  0.46208  0.15822000000000003  1.0000
  C   C43       1.0  0.32283  0.45295  0.13545  1.0000
  C   C44       1.0  0.41876  0.43075999999999987  0.16594  1.0000
  C   C45       1.0  0.39459  0.4215  0.21779000000000004  1.0000
  C   C46       1.0  0.35349  0.46872999999999987  0.08386000000000002  1.0000
  C   C47       1.0  0.25957  0.49325999999999987  0.05489000000000001  1.0000
  C   C48       1.0  0.29404  0.51108  0.008560000000000002  1.0000
  C   C49       1.0  0.50718  0.4813199999999999  0.014920000000000003  1.0000
  C   C50       1.0  0.47981999999999997  0.46263  0.061720000000000004  1.0000
  C   C51       1.0  0.18083  0.47049  0.33423  1.0000
  C   C52       1.0  0.10776999999999999  0.4538899999999999  0.37478  1.0000
  C   C53       1.0  0.03901  0.49298  0.41238  1.0000
  C   C54       1.0  0.03727000000000001  0.54954  0.41028  1.0000
  C   C55       1.0  0.11003  0.5656799999999998  0.3693400000000001  1.0000
  C   C56       1.0  0.18186  0.52709  0.33223  1.0000
  C   C57       1.0  0.53318  0.0002600000000000127  0.34463  1.0000
  C   C58       1.0  0.52287  0.9523999999999999  0.2907100000000001  1.0000
  C   C59       1.0  0.6344799999999999  0.9385499999999999  0.25948  1.0000
  C   C60       1.0  0.6252499999999999  0.89309  0.21039  1.0000
  C   C61       1.0  0.50451  0.85932  0.19099  1.0000
  C   C62       1.0  0.39269  0.87405  0.22232000000000002  1.0000
  C   C63       1.0  0.40147  0.91977  0.27109  1.0000
  C   C64       1.0  0.8140900000000003  0.14293  0.52741  1.0000
  C   C65       1.0  0.8712  0.18887  0.57846  1.0000
  C   C66       1.0  0.7879  0.22915999999999995  0.60744  1.0000
  C   C67       1.0  0.83786  0.2722099999999999  0.65498  1.0000
  C   C68       1.0  0.9732199999999999  0.27685000000000004  0.6749600000000001  1.0000
  C   C69       1.0  0.05587000000000001  0.23579  0.64622  1.0000
  C   C70       1.0  0.005349999999999997  0.19251999999999997  0.59874  1.0000
  C   C71       1.0  0.31038000000000004  0.14909000000000003  0.5221600000000001  1.0000
  C   C72       1.0  0.36948  0.19692999999999997  0.57127  1.0000
  C   C73       1.0  0.35422  0.2532499999999999  0.571  1.0000
  C   C74       1.0  0.40793000000000007  0.2979399999999999  0.6164400000000001  1.0000
  C   C75       1.0  0.47269000000000005  0.28746  0.6644900000000001  1.0000
  C   C76       1.0  0.4847100000000001  0.23092999999999997  0.6651000000000001  1.0000
  C   C77       1.0  0.43644000000000005  0.18605999999999998  0.6184000000000001  1.0000
  C   C78       1.0  0.14003000000000004  0.61897  0.8493100000000002  1.0000
  C   C79       1.0  0.18516  0.63949  0.80596  1.0000
  C   C80       1.0  0.09413000000000003  0.65032  0.7646800000000002  1.0000
  C   C81       1.0  0.9575000000000001  0.63879  0.77116  1.0000
  C   C82       1.0  0.9191500000000001  0.61747  0.8149500000000002  1.0000
  C   C83       1.0  0.13733000000000004  0.67048  0.7171000000000001  1.0000
  C   C84       1.0  0.26424  0.66007  0.6965  1.0000
  C   C85       1.0  0.30184000000000005  0.67494  0.6487000000000002  1.0000
  C   C86       1.0  0.21345  0.70043  0.61837  1.0000
  C   C87       1.0  0.09016999999999997  0.7147699999999999  0.6407  1.0000
  C   C88       1.0  0.053250000000000026  0.69973  0.6886200000000002  1.0000
  C   C89       1.0  0.20910000000000004  0.7592299999999997  0.55184  1.0000
  C   C90       1.0  0.2266  0.81328  0.59166  1.0000
  C   C91       1.0  0.19936999999999996  0.8618199999999999  0.5757300000000001  1.0000
  C   C92       1.0  0.15491000000000005  0.8594100000000001  0.51911  1.0000
  C   C93       1.0  0.13166999999999998  0.8043199999999998  0.48046000000000005  1.0000
  C   C94       1.0  0.15658000000000002  0.75573  0.49638000000000004  1.0000
  C   C95       1.0  0.13351999999999997  0.9102399999999999  0.50117  1.0000
  C   C96       1.0  0.11571  0.96369  0.53991  1.0000
  C   C97       1.0  0.09293000000000003  0.010509999999999992  0.52097  1.0000
  C   C98       1.0  0.10756999999999997  0.9587999999999998  0.4271500000000001  1.0000
  C   C99       1.0  0.12883  0.91015  0.44317000000000006  1.0000
  C   C100      1.0  0.31726  0.6698  0.5270900000000001  1.0000
  C   C101      1.0  0.30926  0.6118900000000002  0.52492  1.0000
  C   C102      1.0  0.38142  0.57368  0.4873600000000001  1.0000
  C   C103      1.0  0.46176  0.59097  0.44921  1.0000
  C   C104      1.0  0.46557  0.64862  0.45046000000000014  1.0000
  C   C105      1.0  0.39695  0.68742  0.48889000000000005  1.0000
  C   C106      1.0  0.55482  0.6379399999999998  0.8547400000000003  1.0000
  C   C107      1.0  0.58799  0.65991  0.8107900000000002  1.0000
  C   C108      1.0  0.57059  0.62561  0.75371  1.0000
  C   C109      1.0  0.51251  0.5698000000000001  0.7458300000000001  1.0000
  C   C110      1.0  0.47904  0.5512  0.7917900000000002  1.0000
  C   C111      1.0  0.61014  0.64629  0.70641  1.0000
  C   C112      1.0  0.66172  0.7031  0.71458  1.0000
  C   C113      1.0  0.704  0.7223  0.66998  1.0000
  C   C114      1.0  0.6962900000000001  0.68538  0.6146200000000002  1.0000
  C   C115      1.0  0.63952  0.62956  0.60512  1.0000
  C   C116      1.0  0.59888  0.61049  0.64997  1.0000
  C   C117      1.0  0.72734  0.7584399999999999  0.56543  1.0000
  C   C118      1.0  0.8274200000000002  0.79003  0.5470600000000001  1.0000
  C   C119      1.0  0.8020999999999999  0.84178  0.5379200000000001  1.0000
  C   C120      1.0  0.67717  0.86454  0.5470500000000001  1.0000
  C   C121      1.0  0.58123  0.8340499999999998  0.5692400000000001  1.0000
  C   C122      1.0  0.6054  0.7821999999999998  0.5785  1.0000
  C   C123      1.0  0.6465000000000001  0.91614  0.53126  1.0000
  C   C124      1.0  0.74042  0.94511  0.50674  1.0000
  C   C125      1.0  0.70594  0.99144  0.4889100000000001  1.0000
  C   C126      1.0  0.49281  0.98508  0.51867  1.0000
  C   C127      1.0  0.52017  0.9382799999999999  0.53737  1.0000
  C   C128      1.0  0.8191599999999999  0.66577  0.5295100000000001  1.0000
  C   C129      1.0  0.89223  0.6252099999999999  0.54611  1.0000
  C   C130      1.0  0.9609899999999998  0.5876099999999999  0.50701  1.0000
  C   C131      1.0  0.9627199999999999  0.58972  0.45045  1.0000
  C   C132      1.0  0.88995  0.63066  0.43433  1.0000
  C   C133      1.0  0.81812  0.66777  0.47292  1.0000
  C   C134      1.0  0.46681  0.6553699999999998  0.9997400000000001  1.0000
  C   C135      1.0  0.47711999999999993  0.70929  0.047590000000000014  1.0000
  C   C136      1.0  0.36551  0.74052  0.06145  1.0000
  C   C137      1.0  0.37474  0.7895999999999999  0.10691000000000002  1.0000
  C   C138      1.0  0.49548  0.8090099999999998  0.14067  1.0000
  C   C139      1.0  0.6073  0.77768  0.12594  1.0000
  C   C140      1.0  0.59852  0.7289099999999997  0.08023000000000001  1.0000
  C   C141      1.0  0.18588999999999997  0.47258999999999995  0.85707  1.0000
  C   C142      1.0  0.12878000000000003  0.42153000000000007  0.8111200000000002  1.0000
  C   C143      1.0  0.21209  0.39255  0.7708400000000002  1.0000
  C   C144      1.0  0.16213000000000002  0.34501999999999994  0.7277900000000002  1.0000
  C   C145      1.0  0.02676  0.32504  0.72315  1.0000
  C   C146      1.0  0.94411  0.35377999999999993  0.76421  1.0000
  C   C147      1.0  0.9946300000000001  0.40125000000000005  0.8074800000000002  1.0000
  C   C148      1.0  0.68961  0.47783999999999993  0.8509100000000003  1.0000
  C   C149      1.0  0.63051  0.42873  0.80306  1.0000
  C   C150      1.0  0.64577  0.42901  0.74675  1.0000
  C   C151      1.0  0.59206  0.38356999999999997  0.70206  1.0000
  C   C152      1.0  0.5273  0.3355  0.71254  1.0000
  C   C153      1.0  0.51527  0.33489  0.76906  1.0000
  C   C154      1.0  0.56355  0.38159  0.81393  1.0000
  N   N1        1.0  0.9919300000000001  0.14565  0.39237000000000005  1.0000
  N   N2        1.0  0.75319  0.43381  0.29014  1.0000
  N   N3        1.0  0.9123700000000001  0.53503  0.9907200000000003  1.0000
  N   N4        1.0  0.4983100000000001  0.15388  0.41592  1.0000
  N   N5        1.0  0.25231999999999993  0.43022999999999995  0.29656  1.0000
  N   N6        1.0  0.4162  0.50565  0.98864  1.0000
  N   N7        1.0  0.008060000000000022  0.60763  0.8543500000000003  1.0000
  N   N8        1.0  0.24679  0.70985  0.5661900000000001  1.0000
  N   N9        1.0  0.08762  0.009279999999999993  0.46497  1.0000
  N   N10       1.0  0.50168  0.58407  0.8461200000000002  1.0000
  N   N11       1.0  0.74767  0.70344  0.56977  1.0000
  N   N12       1.0  0.58379  0.011360000000000006  0.49435  1.0000
  O   O1        1.0  0.42555  0.01293999999999997  0.36913  1.0000
  O   O2        1.0  0.64717  0.02598000000000003  0.36431000000000013  1.0000
  O   O3        1.0  0.69228  0.14506999999999998  0.51225  1.0000
  O   O4        1.0  0.88687  0.10366999999999998  0.5027400000000001  1.0000
  O   O5        1.0  0.21351000000000003  0.16175999999999993  0.49227  1.0000
  O   O6        1.0  0.35403000000000007  0.10048000000000004  0.5131700000000001  1.0000
  O   O7        1.0  0.57444  0.63086  0.98706  1.0000
  O   O8        1.0  0.35282  0.63569  0.9740100000000002  1.0000
  O   O9        1.0  0.30772  0.48774  0.8549400000000003  1.0000
  O   O10       1.0  0.11312000000000003  0.49726  0.8963300000000002  1.0000
  O   O11       1.0  0.7864800000000001  0.50773  0.8382400000000001  1.0000
  O   O12       1.0  0.64596  0.48683000000000004  0.8995200000000001  1.0000
