data_image0
_chemical_formula_structural       Na2U4H60C120N12O32
_chemical_formula_sum              "Na2 U4 H60 C120 N12 O32"
_cell_length_a       8.37922
_cell_length_b       10.48349
_cell_length_c       44.22378
_cell_angle_alpha    89.73203
_cell_angle_beta     89.4217
_cell_angle_gamma    66.17283

_symmetry_space_group_name_H-M    'P 1'
_symmetry_Int_Tables_number       1

loop_
  _symmetry_equiv_pos_as_xyz
  'x,y,z'

loop_
  _atom_site_type_symbol
  _atom_site_label
  _atom_site_symmetry_multiplicity
  _atom_site_fract_x
  _atom_site_fract_y
  _atom_site_fract_z
  _atom_site_occupancy
  Na  Na1       1.0  0.80236  0.38813  0.75002  1.0000
  Na  Na2       1.0  0.21301000000000003  0.60606  0.24847999999999998  1.0000
  U   U1        1.0  0.64942  0.39647  0.83845  1.0000
  U   U2        1.0  0.96251  0.39415  0.6618  1.0000
  U   U3        1.0  0.35141000000000017  0.60424  0.16127  1.0000
  U   U4        1.0  0.04081000000000002  0.61035  0.33799  1.0000
  H   H1        1.0  0.22204999999999997  0.07602  0.86519  1.0000
  H   H2        1.0  0.41234000000000004  0.84084  0.84776  1.0000
  H   H3        1.0  0.67523  0.49517  0.9576  1.0000
  H   H4        1.0  0.7769500000000001  0.11148000000000001  0.7336099999999999  1.0000
  H   H5        1.0  0.8367800000000001  0.67188  0.7651299999999999  1.0000
  H   H6        1.0  0.42378999999999994  0.25301  0.79288  1.0000
  H   H7        1.0  0.20184000000000002  0.9418499999999999  0.65069  1.0000
  H   H8        1.0  0.22191999999999998  0.28459  0.8378099999999999  1.0000
  H   H9        1.0  0.18284000000000003  0.53025  0.70573  1.0000
  H   H10       1.0  0.3966100000000001  0.70322  0.63427  1.0000
  H   H11       1.0  0.38816999999999996  0.49737000000000003  0.66107  1.0000
  H   H12       1.0  0.9446399999999999  0.30985  0.9444199999999998  1.0000
  H   H13       1.0  0.10269  0.26488  0.89495  1.0000
  H   H14       1.0  0.06308  0.39096  0.9882999999999998  1.0000
  H   H15       1.0  0.37155000000000005  0.30012  0.8890799999999999  1.0000
  H   H16       1.0  0.70192  0.07424  0.63503  1.0000
  H   H17       1.0  0.7482799999999998  0.8391  0.65228  1.0000
  H   H18       1.0  0.8293700000000002  0.49590000000000006  0.54232  1.0000
  H   H19       1.0  0.111  0.11145  0.7667199999999998  1.0000
  H   H20       1.0  0.49122  0.67233  0.73488  1.0000
  H   H21       1.0  0.32275  0.25219  0.7075  1.0000
  H   H22       1.0  0.8557099999999999  0.9432  0.84953  1.0000
  H   H23       1.0  0.49306  0.28276  0.66258  1.0000
  H   H24       1.0  0.28856999999999994  0.53059  0.7940499999999999  1.0000
  H   H25       1.0  0.9002099999999998  0.70497  0.8655999999999999  1.0000
  H   H26       1.0  0.11527999999999997  0.49879000000000007  0.83864  1.0000
  H   H27       1.0  0.74757  0.30851  0.55584  1.0000
  H   H28       1.0  0.63456  0.26364  0.60532  1.0000
  H   H29       1.0  0.54793  0.39036  0.51175  1.0000
  H   H30       1.0  0.32855999999999985  0.30033  0.61096  1.0000
  H   H31       1.0  0.7775400000000001  0.9234600000000001  0.13483999999999996  1.0000
  H   H32       1.0  0.58765  0.15919  0.15221  1.0000
  H   H33       1.0  0.32470999999999994  0.50468  0.04233  1.0000
  H   H34       1.0  0.2257400000000001  0.8885099999999999  0.26672  1.0000
  H   H35       1.0  0.1645  0.32885  0.23506  1.0000
  H   H36       1.0  0.5750399999999999  0.74816  0.20746  1.0000
  H   H37       1.0  0.7994  0.057210000000000004  0.34944  1.0000
  H   H38       1.0  0.7774399999999999  0.71545  0.16242  1.0000
  H   H39       1.0  0.8149799999999999  0.46967000000000003  0.2942  1.0000
  H   H40       1.0  0.60415  0.29543  0.36585999999999996  1.0000
  H   H41       1.0  0.6116800000000001  0.50172  0.33912  1.0000
  H   H42       1.0  0.055179999999999965  0.69031  0.055589999999999994  1.0000
  H   H43       1.0  0.89703  0.7351200000000001  0.10508  1.0000
  H   H44       1.0  0.9369599999999999  0.60906  0.01167  1.0000
  H   H45       1.0  0.6280899999999999  0.6998700000000001  0.11091  1.0000
  H   H46       1.0  0.29853  0.92661  0.36500999999999995  1.0000
  H   H47       1.0  0.25148  0.16189  0.34768  1.0000
  H   H48       1.0  0.17050000000000004  0.50596  0.4575399999999999  1.0000
  H   H49       1.0  0.89022  0.8878499999999999  0.23308  1.0000
  H   H50       1.0  0.50907  0.3282  0.26507  1.0000
  H   H51       1.0  0.6756699999999999  0.74877  0.29223  1.0000
  H   H52       1.0  0.14441999999999997  0.057940000000000005  0.15024  1.0000
  H   H53       1.0  0.50679  0.71799  0.33737  1.0000
  H   H54       1.0  0.7118499999999999  0.4691  0.20625  1.0000
  H   H55       1.0  0.09895999999999999  0.29653  0.13432  1.0000
  H   H56       1.0  0.88385  0.50195  0.16148  1.0000
  H   H57       1.0  0.2517499999999999  0.69058  0.44425  1.0000
  H   H58       1.0  0.36412000000000005  0.73599  0.39475  1.0000
  H   H59       1.0  0.45263000000000003  0.60927  0.48816  1.0000
  H   H60       1.0  0.66878  0.70122  0.3889699999999999  1.0000
  C   C1        1.0  0.8646500000000001  0.88813  0.7362299999999999  1.0000
  C   C2        1.0  0.06855000000000004  0.75357  0.70127  1.0000
  C   C3        1.0  0.31187  0.06384  0.8463399999999999  1.0000
  C   C4        1.0  0.6113  0.39411  0.90199  1.0000
  C   C5        1.0  0.41836  0.93125  0.83675  1.0000
  C   C6        1.0  0.27834  0.40142  0.9630199999999999  1.0000
  C   C7        1.0  0.56487  0.46549999999999997  0.95771  1.0000
  C   C8        1.0  0.36771  0.37864  0.93435  1.0000
  C   C9        1.0  0.51583  0.41458  0.93208  1.0000
  C   C10       1.0  0.96475  0.0087  0.69838  1.0000
  C   C11       1.0  0.6473700000000001  0.77662  0.80006  1.0000
  C   C12       1.0  0.86399  0.013229999999999999  0.7236  1.0000
  C   C13       1.0  0.7506999999999999  0.77049  0.7751199999999999  1.0000
  C   C14       1.0  0.54177  0.030169999999999995  0.79703  1.0000
  C   C15       1.0  0.42599000000000004  0.16582  0.80667  1.0000
  C   C16       1.0  0.19482000000000005  0.8517700000000001  0.66182  1.0000
  C   C17       1.0  0.31408  0.18150000000000002  0.83095  1.0000
  C   C18       1.0  0.07536000000000007  0.8741899999999999  0.68624  1.0000
  C   C19       1.0  0.18146000000000004  0.61691  0.69161  1.0000
  C   C20       1.0  0.65638  0.64285  0.81259  1.0000
  C   C21       1.0  0.94992  0.14487  0.68529  1.0000
  C   C22       1.0  0.30239  0.71812  0.65262  1.0000
  C   C23       1.0  0.29622999999999994  0.60084  0.6677199999999999  1.0000
  C   C24       1.0  0.06301  0.32768  0.94198  1.0000
  C   C25       1.0  0.15171999999999997  0.30306  0.9139699999999998  1.0000
  C   C26       1.0  0.47203999999999996  0.47705  0.98569  1.0000
  C   C27       1.0  0.5358499999999999  0.9101700000000001  0.81211  1.0000
  C   C28       1.0  0.12656  0.37382  0.96624  1.0000
  C   C29       1.0  0.30131  0.32616  0.91027  1.0000
  C   C30       1.0  0.7501500000000001  0.89528  0.7624999999999998  1.0000
  C   C31       1.0  0.24684999999999996  0.88858  0.7639399999999998  1.0000
  C   C32       1.0  0.17820000000000005  0.75405  0.7988099999999999  1.0000
  C   C33       1.0  0.62428  0.062060000000000004  0.65386  1.0000
  C   C34       1.0  0.9972300000000001  0.39621  0.5979  1.0000
  C   C35       1.0  0.6512399999999999  0.9295099999999998  0.66342  1.0000
  C   C36       1.0  0.32164000000000004  0.40161  0.53684  1.0000
  C   C37       1.0  0.96997  0.46607  0.54217  1.0000
  C   C38       1.0  0.25494999999999995  0.37908000000000003  0.56551  1.0000
  C   C39       1.0  0.07089999999999999  0.41461  0.56774  1.0000
  C   C40       1.0  0.026470000000000004  0.009  0.8018999999999998  1.0000
  C   C41       1.0  0.57697  0.77507  0.70004  1.0000
  C   C42       1.0  0.12225000000000001  0.01353  0.77666  1.0000
  C   C43       1.0  0.47888  0.77073  0.7249899999999999  1.0000
  C   C44       1.0  0.42758999999999997  0.029590000000000005  0.7031599999999999  1.0000
  C   C45       1.0  0.40724  0.16506  0.69355  1.0000
  C   C46       1.0  0.9531899999999999  0.8529300000000001  0.83833  1.0000
  C   C47       1.0  0.50369  0.17995  0.6692599999999999  1.0000
  C   C48       1.0  0.050710000000000005  0.87472  0.81397  1.0000
  C   C49       1.0  0.20252999999999996  0.61737  0.8082099999999998  1.0000
  C   C50       1.0  0.7017299999999999  0.6392  0.68749  1.0000
  C   C51       1.0  0.9054400000000001  0.14475  0.8150799999999999  1.0000
  C   C52       1.0  0.9796999999999999  0.71934  0.8473  1.0000
  C   C53       1.0  0.10353999999999998  0.60199  0.83209  1.0000
  C   C54       1.0  0.61101  0.32698  0.55825  1.0000
  C   C55       1.0  0.54679  0.30266  0.58629  1.0000
  C   C56       1.0  0.05125000000000001  0.47765  0.51413  1.0000
  C   C57       1.0  0.5546099999999999  0.90877  0.68804  1.0000
  C   C58       1.0  0.50163  0.37342  0.53384  1.0000
  C   C59       1.0  0.37327  0.32663  0.5897999999999999  1.0000
  C   C60       1.0  0.35413000000000006  0.89577  0.73769  1.0000
  C   C61       1.0  0.13522000000000003  0.11200999999999998  0.26383  1.0000
  C   C62       1.0  0.9304399999999999  0.24645  0.29872  1.0000
  C   C63       1.0  0.6872799999999998  0.9362000000000001  0.15365  1.0000
  C   C64       1.0  0.38904  0.60579  0.09786  1.0000
  C   C65       1.0  0.58096  0.06894  0.1632  1.0000
  C   C66       1.0  0.7217400000000002  0.59853  0.03697  1.0000
  C   C67       1.0  0.43517  0.53423  0.04222  1.0000
  C   C68       1.0  0.63238  0.62126  0.06563  1.0000
  C   C69       1.0  0.4843400000000001  0.58522  0.06782  1.0000
  C   C70       1.0  0.03721999999999994  0.99185  0.30185999999999996  1.0000
  C   C71       1.0  0.35243  0.22375000000000003  0.20002  1.0000
  C   C72       1.0  0.1379  0.9867900000000001  0.27661  1.0000
  C   C73       1.0  0.24936  0.22999  0.22499  1.0000
  C   C74       1.0  0.4573099999999998  0.97039  0.20293999999999998  1.0000
  C   C75       1.0  0.5731599999999999  0.83464  0.19341999999999998  1.0000
  C   C76       1.0  0.8061  0.14742  0.33832  1.0000
  C   C77       1.0  0.6850700000000001  0.8187  0.16914  1.0000
  C   C78       1.0  0.9255799999999998  0.12576  0.31395  1.0000
  C   C79       1.0  0.81663  0.38285  0.30826  1.0000
  C   C80       1.0  0.3442299999999999  0.35723  0.18734999999999996  1.0000
  C   C81       1.0  0.05625999999999997  0.8551900000000001  0.31516  1.0000
  C   C82       1.0  0.69782  0.28094  0.34745  1.0000
  C   C83       1.0  0.70299  0.39844  0.33228  1.0000
  C   C84       1.0  0.93689  0.67236  0.05802999999999999  1.0000
  C   C85       1.0  0.84815  0.69691  0.08604  1.0000
  C   C86       1.0  0.52802  0.5228400000000001  0.01426  1.0000
  C   C87       1.0  0.46338  0.09028  0.18785  1.0000
  C   C88       1.0  0.8735  0.62619  0.03374  1.0000
  C   C89       1.0  0.69859  0.67375  0.08974  1.0000
  C   C90       1.0  0.24926000000000004  0.10516  0.23752  1.0000
  C   C91       1.0  0.75244  0.11141  0.23599999999999996  1.0000
  C   C92       1.0  0.8217499999999999  0.24606000000000003  0.20112999999999998  1.0000
  C   C93       1.0  0.37594  0.93883  0.34616  1.0000
  C   C94       1.0  0.00296  0.60615  0.40184  1.0000
  C   C95       1.0  0.34861  0.07142  0.3366  1.0000
  C   C96       1.0  0.6781099999999999  0.59968  0.4629  1.0000
  C   C97       1.0  0.029939999999999977  0.5357  0.45758  1.0000
  C   C98       1.0  0.7443900000000001  0.62257  0.43426  1.0000
  C   C99       1.0  0.9286800000000001  0.58649  0.43196  1.0000
  C   C100      1.0  0.97288  0.9917  0.19806  1.0000
  C   C101      1.0  0.42248  0.22539  0.29989  1.0000
  C   C102      1.0  0.87723  0.9865200000000001  0.22325999999999993  1.0000
  C   C103      1.0  0.521  0.22997  0.27499  1.0000
  C   C104      1.0  0.57158  0.97126  0.2968  1.0000
  C   C105      1.0  0.59199  0.83575  0.30631  1.0000
  C   C106      1.0  0.04635999999999999  0.14779  0.16148999999999997  1.0000
  C   C107      1.0  0.49603000000000014  0.82085  0.33068  1.0000
  C   C108      1.0  0.9489  0.12572  0.18586  1.0000
  C   C109      1.0  0.79751  0.3829  0.19187  1.0000
  C   C110      1.0  0.29738  0.36133  0.3125  1.0000
  C   C111      1.0  0.09414999999999998  0.8557700000000001  0.18494999999999998  1.0000
  C   C112      1.0  0.01971  0.28154  0.15260999999999997  1.0000
  C   C113      1.0  0.89608  0.39857  0.16797  1.0000
  C   C114      1.0  0.3881  0.67301  0.44181999999999994  1.0000
  C   C115      1.0  0.45182999999999995  0.69802  0.41381  1.0000
  C   C116      1.0  0.94863  0.524  0.48554  1.0000
  C   C117      1.0  0.44504  0.09195  0.31192  1.0000
  C   C118      1.0  0.49843999999999994  0.62687  0.46608999999999995  1.0000
  C   C119      1.0  0.6247800000000002  0.6752  0.41017  1.0000
  C   C120      1.0  0.64509  0.1048  0.26228  1.0000
  N   N1        1.0  0.9617100000000001  0.76243  0.72528  1.0000
  N   N2        1.0  0.65015  0.02087  0.77319  1.0000
  N   N3        1.0  0.33193  0.44795  0.9879999999999999  1.0000
  N   N4        1.0  0.27583  0.76299  0.7748  1.0000
  N   N5        1.0  0.328  0.021150000000000002  0.7269699999999999  1.0000
  N   N6        1.0  0.22102999999999998  0.4481200000000001  0.5118  1.0000
  N   N7        1.0  0.03663999999999997  0.23757000000000003  0.27461  1.0000
  N   N8        1.0  0.34882000000000013  0.9796399999999998  0.22676  1.0000
  N   N9        1.0  0.6680100000000001  0.5521  0.011979999999999998  1.0000
  N   N10       1.0  0.72432  0.23679  0.22513  1.0000
  N   N11       1.0  0.6707800000000002  0.97947  0.2729  1.0000
  N   N12       1.0  0.77911  0.55267  0.4878399999999999  1.0000
  O   O1        1.0  0.7175299999999999  0.53125  0.79664  1.0000
  O   O2        1.0  0.60641  0.29768  0.88428  1.0000
  O   O3        1.0  0.68729  0.47068000000000004  0.89257  1.0000
  O   O4        1.0  0.5318199999999998  0.32675000000000004  0.74984  1.0000
  O   O5        1.0  0.6043299999999999  0.63498  0.8398  1.0000
  O   O6        1.0  0.90036  0.25524  0.70182  1.0000
  O   O7        1.0  0.98373  0.15649  0.65734  1.0000
  O   O8        1.0  0.44830000000000003  0.46004  0.75154  1.0000
  O   O9        1.0  0.75265  0.5275400000000001  0.7034299999999999  1.0000
  O   O10       1.0  0.08899000000000001  0.29194  0.61492  1.0000
  O   O11       1.0  0.8525600000000002  0.4846500000000001  0.60837  1.0000
  O   O12       1.0  0.14958000000000002  0.32468  0.75021  1.0000
  O   O13       1.0  0.76046  0.63106  0.66017  1.0000
  O   O14       1.0  0.8455200000000002  0.25636  0.7986899999999999  1.0000
  O   O15       1.0  0.8591800000000002  0.15538  0.843  1.0000
  O   O16       1.0  0.09811  0.45813  0.74851  1.0000
  O   O17       1.0  0.2853  0.46892  0.20325  1.0000
  O   O18       1.0  0.3935  0.70288  0.11549  1.0000
  O   O19       1.0  0.31346000000000007  0.52911  0.10741  1.0000
  O   O20       1.0  0.4853500000000001  0.67685  0.25012  1.0000
  O   O21       1.0  0.39443000000000006  0.3647  0.16  1.0000
  O   O22       1.0  0.0976800000000001  0.74655  0.29817  1.0000
  O   O23       1.0  0.036039999999999926  0.8419  0.34371999999999997  1.0000
  O   O24       1.0  0.56094  0.54047  0.2485  1.0000
  O   O25       1.0  0.24848  0.4729300000000001  0.29653  1.0000
  O   O26       1.0  0.9015399999999999  0.70304  0.3839299999999999  1.0000
  O   O27       1.0  0.15558  0.52899  0.39253999999999994  1.0000
  O   O28       1.0  0.8561999999999999  0.67247  0.24980999999999998  1.0000
  O   O29       1.0  0.23702  0.36971  0.33971  1.0000
  O   O30       1.0  0.15585999999999994  0.74469  0.20144  1.0000
  O   O31       1.0  0.13795000000000002  0.8449699999999999  0.15689  1.0000
  O   O32       1.0  0.91569  0.53956  0.25149  1.0000
