data_image0
_chemical_formula_structural       Zn8H80C136N12O40
_chemical_formula_sum              "Zn8 H80 C136 N12 O40"
_cell_length_a       14.93988
_cell_length_b       14.93127
_cell_length_c       21.158810000000003
_cell_angle_alpha    85.06823
_cell_angle_beta     84.97602
_cell_angle_gamma    67.65364

_symmetry_space_group_name_H-M    'P 1'
_symmetry_Int_Tables_number       1

loop_
  _symmetry_equiv_pos_as_xyz
  'x,y,z'

loop_
  _atom_site_type_symbol
  _atom_site_label
  _atom_site_symmetry_multiplicity
  _atom_site_fract_x
  _atom_site_fract_y
  _atom_site_fract_z
  _atom_site_occupancy
  Zn  Zn1       1.0  0.9832500000000001  0.9984  0.31307  1.0000
  Zn  Zn2       1.0  0.56591  0.047479999999999994  0.99505  1.0000
  Zn  Zn3       1.0  0.002599999999999999  0.015369999999999998  0.18839  1.0000
  Zn  Zn4       1.0  0.95273  0.4338699999999999  0.50522  1.0000
  Zn  Zn5       1.0  0.016739999999999998  0.0016100000000000031  0.68693  1.0000
  Zn  Zn6       1.0  0.43409  0.95253  0.00495  1.0000
  Zn  Zn7       1.0  0.9974000000000001  0.98463  0.8116099999999999  1.0000
  Zn  Zn8       1.0  0.04726999999999997  0.56614  0.49477999999999994  1.0000
  H   H1        1.0  0.8980799999999998  0.33153  0.13747999999999996  1.0000
  H   H2        1.0  0.8487499999999998  0.5098  0.14619  1.0000
  H   H3        1.0  0.89238  0.46289  0.34699  1.0000
  H   H4        1.0  0.93999  0.28548  0.33817  1.0000
  H   H5        1.0  0.57306  0.74004  0.14375  1.0000
  H   H6        1.0  0.67606  0.60515  0.21639  1.0000
  H   H7        1.0  0.8867899999999999  0.7375399999999999  0.20616  1.0000
  H   H8        1.0  0.7832299999999998  0.87276  0.13376  1.0000
  H   H9        1.0  0.45621  0.8852  0.38688  1.0000
  H   H10       1.0  0.2790400000000001  0.9205099999999998  0.3854099999999999  1.0000
  H   H11       1.0  0.2965499999999999  0.9649  0.18167  1.0000
  H   H12       1.0  0.47156  0.93147  0.18291999999999997  1.0000
  H   H13       1.0  0.8577200000000001  0.79908  0.36962  1.0000
  H   H14       1.0  0.72232  0.91533  0.30754999999999993  1.0000
  H   H15       1.0  0.5682900000000001  0.72267  0.33964  1.0000
  H   H16       1.0  0.7034  0.60627  0.40075  1.0000
  H   H17       1.0  0.75348  0.05058000000000001  0.9225099999999999  1.0000
  H   H18       1.0  0.81555  0.17958  0.87895  1.0000
  H   H19       1.0  0.7201799999999998  0.35222  0.90687  1.0000
  H   H20       1.0  0.51627  0.24928  0.016279999999999996  1.0000
  H   H21       1.0  0.66731  0.10214  0.36274  1.0000
  H   H22       1.0  0.4890900000000001  0.15154  0.35361  1.0000
  H   H23       1.0  0.53775  0.10757000000000001  0.15281999999999998  1.0000
  H   H24       1.0  0.7152  0.05967999999999998  0.16214  1.0000
  H   H25       1.0  0.25982  0.42697999999999997  0.35637  1.0000
  H   H26       1.0  0.39487999999999995  0.32396  0.28351  1.0000
  H   H27       1.0  0.26307  0.11278  0.29357  1.0000
  H   H28       1.0  0.1276800000000001  0.21616  0.36628  1.0000
  H   H29       1.0  0.11457000000000002  0.54447  0.11349  1.0000
  H   H30       1.0  0.07970000000000002  0.72154  0.11622999999999999  1.0000
  H   H31       1.0  0.035209999999999984  0.70186  0.31989  1.0000
  H   H32       1.0  0.06852000000000008  0.52686  0.31736  1.0000
  H   H33       1.0  0.20232000000000003  0.14141999999999993  0.1303  1.0000
  H   H34       1.0  0.08460000000000005  0.2767199999999999  0.19209  1.0000
  H   H35       1.0  0.27584000000000003  0.4325799999999999  0.16044  1.0000
  H   H36       1.0  0.39286  0.29795  0.09941999999999998  1.0000
  H   H37       1.0  0.9489900000000001  0.24661999999999998  0.57763  1.0000
  H   H38       1.0  0.8197999999999998  0.1846  0.62074  1.0000
  H   H39       1.0  0.64736  0.28032  0.59279  1.0000
  H   H40       1.0  0.75107  0.48403  0.48391999999999996  1.0000
  H   H41       1.0  0.10192000000000007  0.66848  0.8625199999999998  1.0000
  H   H42       1.0  0.15125  0.49021  0.85381  1.0000
  H   H43       1.0  0.10761999999999998  0.53712  0.65301  1.0000
  H   H44       1.0  0.06000999999999998  0.71452  0.66184  1.0000
  H   H45       1.0  0.42694  0.25997  0.8562599999999999  1.0000
  H   H46       1.0  0.3239399999999998  0.39485  0.78361  1.0000
  H   H47       1.0  0.11320000000000004  0.26247  0.7938399999999999  1.0000
  H   H48       1.0  0.21676999999999996  0.12725  0.86624  1.0000
  H   H49       1.0  0.54378  0.11479999999999999  0.61312  1.0000
  H   H50       1.0  0.72096  0.0795  0.61459  1.0000
  H   H51       1.0  0.70344  0.035110000000000016  0.8183399999999998  1.0000
  H   H52       1.0  0.52844  0.06852999999999997  0.81708  1.0000
  H   H53       1.0  0.14228000000000002  0.20093  0.63038  1.0000
  H   H54       1.0  0.27767  0.08467  0.69245  1.0000
  H   H55       1.0  0.43171  0.27734000000000003  0.66036  1.0000
  H   H56       1.0  0.2966  0.39374  0.59926  1.0000
  H   H57       1.0  0.24652000000000004  0.9494299999999999  0.07749  1.0000
  H   H58       1.0  0.18444999999999995  0.82043  0.12104999999999999  1.0000
  H   H59       1.0  0.2798200000000001  0.6477899999999999  0.09314  1.0000
  H   H60       1.0  0.48372000000000004  0.75073  0.98372  1.0000
  H   H61       1.0  0.33269000000000004  0.8978599999999999  0.63727  1.0000
  H   H62       1.0  0.51091  0.8484699999999997  0.64639  1.0000
  H   H63       1.0  0.46224  0.89244  0.84718  1.0000
  H   H64       1.0  0.2848  0.94033  0.8378599999999999  1.0000
  H   H65       1.0  0.74018  0.5730299999999999  0.6436299999999999  1.0000
  H   H66       1.0  0.60512  0.6760499999999999  0.7164899999999998  1.0000
  H   H67       1.0  0.73693  0.8872199999999999  0.70643  1.0000
  H   H68       1.0  0.8723200000000001  0.78384  0.6337299999999999  1.0000
  H   H69       1.0  0.88543  0.45553000000000005  0.88652  1.0000
  H   H70       1.0  0.9203  0.27846  0.88377  1.0000
  H   H71       1.0  0.9647899999999997  0.29815  0.68011  1.0000
  H   H72       1.0  0.9314799999999999  0.4731399999999999  0.68264  1.0000
  H   H73       1.0  0.79768  0.85859  0.8697099999999999  1.0000
  H   H74       1.0  0.9154000000000001  0.72329  0.80791  1.0000
  H   H75       1.0  0.7241600000000001  0.56743  0.8395599999999998  1.0000
  H   H76       1.0  0.6071400000000002  0.7020599999999999  0.9005799999999998  1.0000
  H   H77       1.0  0.051  0.75338  0.42236999999999997  1.0000
  H   H78       1.0  0.1802  0.8154  0.37926  1.0000
  H   H79       1.0  0.35263999999999995  0.71969  0.40721  1.0000
  H   H80       1.0  0.24893000000000004  0.51597  0.51608  1.0000
  C   C1        1.0  0.92135  0.29672  0.2373  1.0000
  C   C2        1.0  0.89533  0.36063  0.18327999999999997  1.0000
  C   C3        1.0  0.86776  0.46007  0.18791999999999995  1.0000
  C   C4        1.0  0.8665699999999994  0.49615  0.24719999999999998  1.0000
  C   C5        1.0  0.89255  0.43359999999999993  0.30157999999999996  1.0000
  C   C6        1.0  0.9192700000000001  0.33460999999999996  0.29633  1.0000
  C   C7        1.0  0.95414  0.19051  0.23331999999999994  1.0000
  C   C8        1.0  0.67252  0.81367  0.13356  1.0000
  C   C9        1.0  0.64225  0.73825  0.15726  1.0000
  C   C10       1.0  0.69924  0.66336  0.19738  1.0000
  C   C11       1.0  0.7879899999999999  0.6636  0.21342999999999995  1.0000
  C   C12       1.0  0.8183700000000002  0.73897  0.19163999999999998  1.0000
  C   C13       1.0  0.7604499999999998  0.8138599999999998  0.15176  1.0000
  C   C14       1.0  0.61173  0.89068  0.08839  1.0000
  C   C15       1.0  0.47479  0.9034599999999998  0.28469  1.0000
  C   C16       1.0  0.42099999999999993  0.9005500000000001  0.34215999999999996  1.0000
  C   C17       1.0  0.32214  0.9197599999999998  0.34112  1.0000
  C   C18       1.0  0.2762800000000001  0.9413699999999999  0.2833  1.0000
  C   C19       1.0  0.3315000000000001  0.9455599999999997  0.22648  1.0000
  C   C20       1.0  0.4296  0.92732  0.22689999999999994  1.0000
  C   C21       1.0  0.17103999999999997  0.96386  0.28047  1.0000
  C   C22       1.0  0.7897399999999999  0.69455  0.3892  1.0000
  C   C23       1.0  0.79425  0.78259  0.36334  1.0000
  C   C24       1.0  0.7188400000000001  0.8481999999999997  0.32923  1.0000
  C   C25       1.0  0.63759  0.8264799999999999  0.32104  1.0000
  C   C26       1.0  0.6308100000000001  0.73989  0.34717999999999993  1.0000
  C   C27       1.0  0.70713  0.67448  0.38101  1.0000
  C   C28       1.0  0.8717500000000001  0.6231199999999996  0.42434  1.0000
  C   C29       1.0  0.55226  0.4132  0.9834599999999999  1.0000
  C   C30       1.0  0.71558  0.12620999999999996  0.9334899999999999  1.0000
  C   C31       1.0  0.7490400000000002  0.19849000000000003  0.9093599999999998  1.0000
  C   C32       1.0  0.6964199999999999  0.29389  0.92497  1.0000
  C   C33       1.0  0.61139  0.3143699999999999  0.96472  1.0000
  C   C34       1.0  0.5823900000000001  0.23764999999999997  0.9864499999999999  1.0000
  C   C35       1.0  0.70269  0.0789  0.26308  1.0000
  C   C36       1.0  0.63826  0.10494  0.31695  1.0000
  C   C37       1.0  0.53901  0.13230999999999998  0.31198  1.0000
  C   C38       1.0  0.5036899999999997  0.13332  0.25254  1.0000
  C   C39       1.0  0.56673  0.10726  0.19829999999999995  1.0000
  C   C40       1.0  0.6656  0.08057999999999997  0.20385  1.0000
  C   C41       1.0  0.80873  0.04688  0.26793999999999996  1.0000
  C   C42       1.0  0.18631  0.32748  0.36627  1.0000
  C   C43       1.0  0.2617900000000001  0.35769  0.34269  1.0000
  C   C44       1.0  0.33673  0.3006699999999999  0.30246  1.0000
  C   C45       1.0  0.33646  0.21194  0.28623  1.0000
  C   C46       1.0  0.26134999999999997  0.18134  0.30818999999999996  1.0000
  C   C47       1.0  0.18640000000000004  0.23921  0.34821  1.0000
  C   C48       1.0  0.10841999999999997  0.389  0.41083  1.0000
  C   C49       1.0  0.09543999999999998  0.52511  0.21555  1.0000
  C   C50       1.0  0.09895000000000001  0.57931  0.15841  1.0000
  C   C51       1.0  0.08034  0.67795  0.16019  1.0000
  C   C52       1.0  0.058720000000000015  0.72319  0.21828999999999998  1.0000
  C   C53       1.0  0.054439999999999995  0.66753  0.27481  1.0000
  C   C54       1.0  0.07224000000000007  0.56952  0.27366999999999997  1.0000
  C   C55       1.0  0.03631999999999999  0.82838  0.2213  1.0000
  C   C56       1.0  0.30573  0.21042  0.11082  1.0000
  C   C57       1.0  0.21790999999999996  0.20538  0.1366  1.0000
  C   C58       1.0  0.15165000000000003  0.2806999999999999  0.17057999999999998  1.0000
  C   C59       1.0  0.17249  0.36247  0.17883999999999997  1.0000
  C   C60       1.0  0.25907  0.36974  0.15291  1.0000
  C   C61       1.0  0.32493  0.29350999999999994  0.11905  1.0000
  C   C62       1.0  0.37781  0.12849  0.07586  1.0000
  C   C63       1.0  0.58679  0.44799999999999995  0.51651  1.0000
  C   C64       1.0  0.87347  0.28462  0.5666  1.0000
  C   C65       1.0  0.80106  0.25121  0.5905  1.0000
  C   C66       1.0  0.70582  0.30396  0.57485  1.0000
  C   C67       1.0  0.68555  0.38903  0.53525  1.0000
  C   C68       1.0  0.7624  0.41798  0.51372  1.0000
  C   C69       1.0  0.07865  0.70329  0.7627  1.0000
  C   C70       1.0  0.10466999999999997  0.63938  0.81672  1.0000
  C   C71       1.0  0.13223  0.53993  0.81209  1.0000
  C   C72       1.0  0.13343000000000002  0.5038600000000001  0.7528099999999999  1.0000
  C   C73       1.0  0.10744999999999999  0.56641  0.69842  1.0000
  C   C74       1.0  0.08072999999999998  0.66539  0.70368  1.0000
  C   C75       1.0  0.04586000000000008  0.8095  0.7666799999999998  1.0000
  C   C76       1.0  0.32747  0.18633  0.86644  1.0000
  C   C77       1.0  0.35773999999999995  0.26176  0.8427399999999999  1.0000
  C   C78       1.0  0.30075  0.33665  0.8026199999999999  1.0000
  C   C79       1.0  0.21200000000000002  0.33641  0.7865799999999997  1.0000
  C   C80       1.0  0.18162999999999999  0.26103  0.80836  1.0000
  C   C81       1.0  0.23955  0.18615  0.84825  1.0000
  C   C82       1.0  0.38827000000000006  0.10932000000000001  0.9116099999999999  1.0000
  C   C83       1.0  0.52521  0.09655  0.71532  1.0000
  C   C84       1.0  0.5789999999999998  0.09945000000000001  0.6578499999999999  1.0000
  C   C85       1.0  0.67785  0.08025  0.6588799999999999  1.0000
  C   C86       1.0  0.72372  0.058640000000000005  0.7166999999999999  1.0000
  C   C87       1.0  0.6685  0.05445  0.7735199999999999  1.0000
  C   C88       1.0  0.5704000000000001  0.07269  0.7731099999999999  1.0000
  C   C89       1.0  0.82895  0.03615  0.7195399999999998  1.0000
  C   C90       1.0  0.21026000000000003  0.30546  0.6108  1.0000
  C   C91       1.0  0.20575  0.21742  0.63666  1.0000
  C   C92       1.0  0.28115  0.1518  0.67077  1.0000
  C   C93       1.0  0.36239999999999994  0.17353  0.67897  1.0000
  C   C94       1.0  0.3691900000000001  0.26012  0.65282  1.0000
  C   C95       1.0  0.2928700000000001  0.32552  0.61899  1.0000
  C   C96       1.0  0.1282500000000001  0.37688  0.5756699999999999  1.0000
  C   C97       1.0  0.4477300000000001  0.5868099999999999  0.01654  1.0000
  C   C98       1.0  0.28442000000000006  0.8737899999999997  0.06651  1.0000
  C   C99       1.0  0.2509600000000001  0.8015099999999997  0.09065  1.0000
  C   C100      1.0  0.30358  0.70611  0.07504  1.0000
  C   C101      1.0  0.38861  0.68563  0.03527999999999999  1.0000
  C   C102      1.0  0.41761000000000004  0.76236  0.01356  1.0000
  C   C103      1.0  0.2973099999999998  0.9211  0.73692  1.0000
  C   C104      1.0  0.36173999999999995  0.89506  0.68305  1.0000
  C   C105      1.0  0.46098  0.8677  0.68802  1.0000
  C   C106      1.0  0.49631000000000003  0.86668  0.74746  1.0000
  C   C107      1.0  0.43327  0.89275  0.8017  1.0000
  C   C108      1.0  0.3344  0.91942  0.79616  1.0000
  C   C109      1.0  0.19125999999999993  0.95313  0.73206  1.0000
  C   C110      1.0  0.8136900000000001  0.67252  0.6337299999999999  1.0000
  C   C111      1.0  0.7382  0.6423099999999999  0.65731  1.0000
  C   C112      1.0  0.6632700000000001  0.6993299999999998  0.69754  1.0000
  C   C113      1.0  0.66354  0.78807  0.71377  1.0000
  C   C114      1.0  0.7386500000000001  0.8186599999999999  0.6918099999999999  1.0000
  C   C115      1.0  0.8136  0.7608  0.65179  1.0000
  C   C116      1.0  0.8915799999999999  0.611  0.5891799999999999  1.0000
  C   C117      1.0  0.90455  0.4749  0.78445  1.0000
  C   C118      1.0  0.9010399999999998  0.42069  0.8416  1.0000
  C   C119      1.0  0.9196599999999999  0.32206  0.8398099999999998  1.0000
  C   C120      1.0  0.94127  0.27681999999999995  0.7817199999999999  1.0000
  C   C121      1.0  0.94556  0.33246999999999993  0.7252  1.0000
  C   C122      1.0  0.9277599999999999  0.43049  0.72633  1.0000
  C   C123      1.0  0.9636800000000001  0.17163  0.7787  1.0000
  C   C124      1.0  0.6942700000000002  0.7895800000000001  0.8891799999999997  1.0000
  C   C125      1.0  0.7820900000000001  0.79463  0.8634099999999999  1.0000
  C   C126      1.0  0.8483400000000001  0.71931  0.82942  1.0000
  C   C127      1.0  0.8275100000000002  0.6375399999999998  0.8211599999999998  1.0000
  C   C128      1.0  0.7409300000000001  0.63027  0.8470899999999999  1.0000
  C   C129      1.0  0.67507  0.7064899999999997  0.88095  1.0000
  C   C130      1.0  0.62218  0.87151  0.92414  1.0000
  C   C131      1.0  0.4132099999999998  0.55201  0.48349  1.0000
  C   C132      1.0  0.12653  0.71538  0.43341  1.0000
  C   C133      1.0  0.19892999999999997  0.7488  0.4094999999999999  1.0000
  C   C134      1.0  0.29418  0.69605  0.4251499999999999  1.0000
  C   C135      1.0  0.31444999999999995  0.61097  0.46475  1.0000
  C   C136      1.0  0.2376  0.58203  0.48627999999999993  1.0000
  N   N1        1.0  0.5772500000000002  0.48690999999999984  0.9568399999999999  1.0000
  N   N2        1.0  0.47625  0.42439  0.026269999999999998  1.0000
  N   N3        1.0  0.63349  0.14581000000000002  0.9712199999999999  1.0000
  N   N4        1.0  0.5131700000000002  0.42285999999999996  0.54317  1.0000
  N   N5        1.0  0.57551  0.52391  0.47367999999999993  1.0000
  N   N6        1.0  0.8540799999999997  0.36678  0.5290199999999999  1.0000
  N   N7        1.0  0.42275000000000007  0.51309  0.04317  1.0000
  N   N8        1.0  0.52374  0.5756099999999998  0.9737299999999999  1.0000
  N   N9        1.0  0.36651  0.8542  0.028779999999999997  1.0000
  N   N10       1.0  0.48683  0.57714  0.45684  1.0000
  N   N11       1.0  0.42449  0.4761  0.52633  1.0000
  N   N12       1.0  0.14591999999999997  0.63323  0.47097999999999995  1.0000
  O   O1        1.0  0.8465  0.5927099999999998  0.25503  1.0000
  O   O2        1.0  0.96328  0.13942  0.28566  1.0000
  O   O3        1.0  0.97309  0.15485  0.17771  1.0000
  O   O4        1.0  0.6408499999999999  0.95849  0.06722  1.0000
  O   O5        1.0  0.53422  0.8825099999999998  0.07364  1.0000
  O   O6        1.0  0.57109  0.8912299999999997  0.28071  1.0000
  O   O7        1.0  0.11945000000000007  0.96409  0.33319999999999994  1.0000
  O   O8        1.0  0.13693000000000013  0.9817899999999998  0.22558  1.0000
  O   O9        1.0  0.94111  0.6491399999999999  0.43496999999999997  1.0000
  O   O10       1.0  0.8672299999999995  0.54045  0.44144999999999995  1.0000
  O   O11       1.0  0.40723  0.15381  0.24431999999999998  1.0000
  O   O12       1.0  0.8613  0.03633999999999998  0.21604  1.0000
  O   O13       1.0  0.84302  0.029840000000000005  0.3239099999999999  1.0000
  O   O14       1.0  0.04069000000000001  0.35971999999999993  0.43172  1.0000
  O   O15       1.0  0.11563000000000002  0.46744  0.42516999999999994  1.0000
  O   O16       1.0  0.10651  0.42901  0.21877  1.0000
  O   O17       1.0  0.037010000000000015  0.8794599999999999  0.16843  1.0000
  O   O18       1.0  0.017300000000000017  0.8632799999999999  0.27601  1.0000
  O   O19       1.0  0.35401999999999995  0.05707  0.06682  1.0000
  O   O20       1.0  0.45914  0.13511  0.05730999999999999  1.0000
  O   O21       1.0  0.15349999999999994  0.4073  0.7449799999999999  1.0000
  O   O22       1.0  0.03671999999999999  0.86059  0.71434  1.0000
  O   O23       1.0  0.026900000000000028  0.84516  0.82229  1.0000
  O   O24       1.0  0.35915  0.04150999999999999  0.93278  1.0000
  O   O25       1.0  0.4657800000000001  0.11750000000000001  0.9263599999999999  1.0000
  O   O26       1.0  0.42891  0.10878  0.71929  1.0000
  O   O27       1.0  0.88054  0.03590999999999999  0.66681  1.0000
  O   O28       1.0  0.86307  0.018209999999999997  0.77442  1.0000
  O   O29       1.0  0.05889  0.35087  0.56504  1.0000
  O   O30       1.0  0.13277000000000005  0.4595499999999999  0.55856  1.0000
  O   O31       1.0  0.5927700000000001  0.8462  0.75568  1.0000
  O   O32       1.0  0.1387000000000001  0.9636599999999997  0.78396  1.0000
  O   O33       1.0  0.1569800000000001  0.9701599999999998  0.67609  1.0000
  O   O34       1.0  0.9593  0.64028  0.56828  1.0000
  O   O35       1.0  0.88436  0.53257  0.57484  1.0000
  O   O36       1.0  0.8934900000000001  0.5709899999999998  0.78124  1.0000
  O   O37       1.0  0.96299  0.12053999999999997  0.83158  1.0000
  O   O38       1.0  0.9826999999999999  0.13673000000000002  0.72399  1.0000
  O   O39       1.0  0.6459700000000002  0.9429299999999999  0.9331799999999999  1.0000
  O   O40       1.0  0.54086  0.8648899999999998  0.94269  1.0000
