data_image0
_chemical_formula_structural       Co8H112C148N36O44
_chemical_formula_sum              "Co8 H112 C148 N36 O44"
_cell_length_a       14.89767
_cell_length_b       19.22912
_cell_length_c       19.601079999999996
_cell_angle_alpha    89.98138000000002
_cell_angle_beta     89.95773
_cell_angle_gamma    99.78304000000001

_space_group_name_H-M_alt    "P 1"
_space_group_IT_number       1

loop_
  _space_group_symop_operation_xyz
  'x, y, z'

loop_
  _atom_site_type_symbol
  _atom_site_label
  _atom_site_symmetry_multiplicity
  _atom_site_fract_x
  _atom_site_fract_y
  _atom_site_fract_z
  _atom_site_occupancy
  Co  Co1       1.0  0.05898  0.61291  0.45334000000000013  1.0000
  Co  Co2       1.0  0.8360499999999997  0.65815  0.46697  1.0000
  Co  Co3       1.0  0.9411499999999998  0.88724  0.95363  1.0000
  Co  Co4       1.0  0.16416999999999995  0.84217  0.9666  1.0000
  Co  Co5       1.0  0.9410999999999999  0.38710999999999995  0.5466200000000001  1.0000
  Co  Co6       1.0  0.16443999999999995  0.34225  0.53339  1.0000
  Co  Co7       1.0  0.057899999999999986  0.11289999999999999  0.045250000000000005  1.0000
  Co  Co8       1.0  0.8363599999999998  0.15761  0.03357  1.0000
  H   H1        1.0  0.8654  0.74815  0.64994  1.0000
  H   H2        1.0  0.6171299999999997  0.5059  0.59  1.0000
  H   H3        1.0  0.63023  0.62725  0.82507  1.0000
  H   H4        1.0  0.8873899999999998  0.79602  0.76777  1.0000
  H   H5        1.0  0.40471  0.67721  0.7078000000000002  1.0000
  H   H6        1.0  0.8096299999999997  0.48776  0.58876  1.0000
  H   H7        1.0  0.65203  0.64932  0.60622  1.0000
  H   H8        1.0  0.05354999999999997  0.44766  0.66758  1.0000
  H   H9        1.0  0.22170999999999996  0.61989  0.5516700000000001  1.0000
  H   H10       1.0  0.2546699999999999  0.60562  0.04909000000000001  1.0000
  H   H11       1.0  0.17773  0.71217  0.05402  1.0000
  H   H12       1.0  0.3114599999999999  0.7960699999999999  0.8804300000000002  1.0000
  H   H13       1.0  0.3607999999999999  0.59368  0.95196  1.0000
  H   H14       1.0  0.19977999999999996  0.68339  0.35197  1.0000
  H   H15       1.0  0.4681  0.70684  0.44343000000000005  1.0000
  H   H16       1.0  0.3692399999999999  0.71925  0.34162  1.0000
  H   H17       1.0  0.9297  0.61394  0.75719  1.0000
  H   H18       1.0  0.05683999999999999  0.54308  0.7546100000000002  1.0000
  H   H19       1.0  0.80447  0.50284  0.47369  1.0000
  H   H20       1.0  0.7514899999999998  0.58825  0.6234500000000001  1.0000
  H   H21       1.0  0.36109999999999987  0.63073  0.6058500000000001  1.0000
  H   H22       1.0  0.3924299999999999  0.72867  0.81278  1.0000
  H   H23       1.0  0.50228  0.5461  0.3336  1.0000
  H   H24       1.0  0.61033  0.57872  0.36292  1.0000
  H   H25       1.0  0.14541999999999994  0.69105  0.5948500000000001  1.0000
  H   H26       1.0  0.2175999999999999  0.7293099999999999  0.6577900000000001  1.0000
  H   H27       1.0  0.17556  0.7513899999999999  0.8265  1.0000
  H   H28       1.0  0.19819  0.69411  0.76379  1.0000
  H   H29       1.0  0.13578999999999994  0.7525  0.15074  1.0000
  H   H30       1.0  0.3817599999999999  0.99403  0.08921  1.0000
  H   H31       1.0  0.36952  0.87172  0.3251800000000001  1.0000
  H   H32       1.0  0.1133  0.70397  0.26843  1.0000
  H   H33       1.0  0.5950599999999998  0.82261  0.20730000000000004  1.0000
  H   H34       1.0  0.19091999999999998  0.01188  0.08813000000000003  1.0000
  H   H35       1.0  0.34765999999999997  0.85097  0.10625  1.0000
  H   H36       1.0  0.9492299999999998  0.05471999999999999  0.16879  1.0000
  H   H37       1.0  0.7783099999999997  0.8794099999999999  0.05213000000000001  1.0000
  H   H38       1.0  0.7447799999999998  0.89468  0.54861  1.0000
  H   H39       1.0  0.82255  0.78859  0.55362  1.0000
  H   H40       1.0  0.6894099999999997  0.70414  0.38026  1.0000
  H   H41       1.0  0.6384699999999999  0.9061  0.4515400000000001  1.0000
  H   H42       1.0  0.80086  0.81709  0.8520800000000001  1.0000
  H   H43       1.0  0.5322699999999998  0.79339  0.9434400000000001  1.0000
  H   H44       1.0  0.63149  0.78093  0.84173  1.0000
  H   H45       1.0  0.07013999999999994  0.8863  0.25703000000000004  1.0000
  H   H46       1.0  0.94403  0.95829  0.25495000000000007  1.0000
  H   H47       1.0  0.19580000000000003  0.9986600000000001  0.96604  1.0000
  H   H48       1.0  0.24851999999999996  0.9111200000000002  0.12378  1.0000
  H   H49       1.0  0.63834  0.86969  0.10569000000000002  1.0000
  H   H50       1.0  0.6074  0.77066  0.3128000000000001  1.0000
  H   H51       1.0  0.4999099999999999  0.95481  0.83346  1.0000
  H   H52       1.0  0.39134999999999986  0.9222999999999999  0.86207  1.0000
  H   H53       1.0  0.8551899999999998  0.80913  0.09584000000000001  1.0000
  H   H54       1.0  0.7833899999999998  0.77045  0.15881000000000003  1.0000
  H   H55       1.0  0.8241199999999999  0.74662  0.32666  1.0000
  H   H56       1.0  0.8021999999999998  0.80506  0.26487  1.0000
  H   H57       1.0  0.13557999999999998  0.25235  0.35096000000000005  1.0000
  H   H58       1.0  0.38334  0.49421  0.41017000000000003  1.0000
  H   H59       1.0  0.36969999999999986  0.37271  0.17493  1.0000
  H   H60       1.0  0.11491000000000001  0.20542  0.23264  1.0000
  H   H61       1.0  0.59518  0.32277  0.29225  1.0000
  H   H62       1.0  0.19036999999999993  0.5122399999999999  0.4112700000000001  1.0000
  H   H63       1.0  0.34784  0.35073  0.39377  1.0000
  H   H64       1.0  0.9464399999999997  0.55237  0.33243  1.0000
  H   H65       1.0  0.7781799999999998  0.38005  0.44826  1.0000
  H   H66       1.0  0.74545  0.39406  0.95101  1.0000
  H   H67       1.0  0.8232899999999997  0.28798  0.94675  1.0000
  H   H68       1.0  0.6895299999999999  0.20432999999999998  0.12044000000000002  1.0000
  H   H69       1.0  0.6387599999999999  0.40592  0.04782  1.0000
  H   H70       1.0  0.8002099999999999  0.31667  0.64801  1.0000
  H   H71       1.0  0.53186  0.29311  0.55661  1.0000
  H   H72       1.0  0.63078  0.28072  0.65838  1.0000
  H   H73       1.0  0.07033999999999997  0.38613  0.24281  1.0000
  H   H74       1.0  0.9431499999999998  0.4569500000000001  0.24543000000000004  1.0000
  H   H75       1.0  0.19556999999999994  0.49735  0.52632  1.0000
  H   H76       1.0  0.24852999999999995  0.41179  0.37651  1.0000
  H   H77       1.0  0.63879  0.36924  0.39413000000000004  1.0000
  H   H78       1.0  0.6074  0.27129  0.18737  1.0000
  H   H79       1.0  0.4980499999999999  0.45404  0.6665700000000001  1.0000
  H   H80       1.0  0.39001999999999987  0.42151  0.63717  1.0000
  H   H81       1.0  0.8545699999999997  0.3086  0.40482  1.0000
  H   H82       1.0  0.7833199999999998  0.27018  0.34167  1.0000
  H   H83       1.0  0.8265599999999999  0.24817  0.17307000000000003  1.0000
  H   H84       1.0  0.8027499999999997  0.30533  0.23546000000000003  1.0000
  H   H85       1.0  0.8643699999999997  0.24761999999999998  0.8491800000000002  1.0000
  H   H86       1.0  0.6180199999999998  0.00603  0.91097  1.0000
  H   H87       1.0  0.63011  0.12808999999999998  0.6747800000000002  1.0000
  H   H88       1.0  0.8870099999999997  0.29608  0.73148  1.0000
  H   H89       1.0  0.4049699999999999  0.17751  0.79295  1.0000
  H   H90       1.0  0.8101599999999998  0.98928  0.91214  1.0000
  H   H91       1.0  0.65249  0.14893  0.8937000000000002  1.0000
  H   H92       1.0  0.052829999999999974  0.9477399999999999  0.83199  1.0000
  H   H93       1.0  0.22255999999999998  0.11836999999999999  0.9484500000000001  1.0000
  H   H94       1.0  0.25491999999999987  0.10563000000000002  0.45139000000000007  1.0000
  H   H95       1.0  0.17739  0.21187000000000003  0.44653000000000004  1.0000
  H   H96       1.0  0.3109499999999999  0.29604  0.61985  1.0000
  H   H97       1.0  0.3613099999999999  0.094  0.54836  1.0000
  H   H98       1.0  0.19907999999999995  0.17896  0.14879  1.0000
  H   H99       1.0  0.46750999999999987  0.20834  0.056350000000000004  1.0000
  H   H100      1.0  0.36819  0.21878999999999998  0.15849000000000002  1.0000
  H   H101      1.0  0.9291199999999997  0.1139  0.74213  1.0000
  H   H102      1.0  0.056149999999999985  0.04282999999999999  0.7446000000000002  1.0000
  H   H103      1.0  0.8025599999999998  0.00137  0.030200000000000008  1.0000
  H   H104      1.0  0.75142  0.08914  0.8760700000000001  1.0000
  H   H105      1.0  0.3621499999999999  0.12995  0.89452  1.0000
  H   H106      1.0  0.39256999999999986  0.22932999999999998  0.68727  1.0000
  H   H107      1.0  0.4999099999999999  0.04498  0.16674000000000003  1.0000
  H   H108      1.0  0.60845  0.07776  0.13824  1.0000
  H   H109      1.0  0.14504  0.19076  0.9042900000000001  1.0000
  H   H110      1.0  0.21677999999999994  0.22953999999999997  0.84137  1.0000
  H   H111      1.0  0.17613999999999994  0.25323  0.67352  1.0000
  H   H112      1.0  0.19788  0.19483  0.73535  1.0000
  C   C1        1.0  0.98553  0.69984  0.56946  1.0000
  C   C2        1.0  0.87909  0.5109799999999999  0.4682  1.0000
  C   C3        1.0  0.6825199999999998  0.5758999999999999  0.47987  1.0000
  C   C4        1.0  0.03164  0.80106  0.84899  1.0000
  C   C5        1.0  0.9297  0.7493999999999998  0.67628  1.0000
  C   C6        1.0  0.000679999999999996  0.72396  0.64148  1.0000
  C   C7        1.0  0.5889399999999998  0.53681  0.4883100000000001  1.0000
  C   C8        1.0  0.56493  0.50348  0.55092  1.0000
  C   C9        1.0  0.023299999999999987  0.7736099999999999  0.77788  1.0000
  C   C10       1.0  0.6009  0.63833  0.7762500000000001  1.0000
  C   C11       1.0  0.94137  0.77488  0.74199  1.0000
  C   C12       1.0  0.52301  0.5334  0.43525  1.0000
  C   C13       1.0  0.09396999999999997  0.74579  0.7450000000000002  1.0000
  C   C14       1.0  0.3524899999999999  0.66423  0.50643  1.0000
  C   C15       1.0  0.47397999999999985  0.66601  0.71038  1.0000
  C   C16       1.0  0.49197999999999986  0.67617  0.57957  1.0000
  C   C17       1.0  0.8639899999999998  0.50154  0.62581  1.0000
  C   C18       1.0  0.08351  0.72306  0.67584  1.0000
  C   C19       1.0  0.6144399999999998  0.64945  0.65392  1.0000
  C   C20       1.0  0.9997999999999999  0.47931  0.67032  1.0000
  C   C21       1.0  0.2574399999999999  0.6432599999999999  0.50649  1.0000
  C   C22       1.0  0.4648199999999999  0.65087  0.8416500000000001  1.0000
  C   C23       1.0  0.52487  0.6633799999999999  0.65029  1.0000
  C   C24       1.0  0.65216  0.6355  0.7168  1.0000
  C   C25       1.0  0.2685199999999999  0.64649  0.01026  1.0000
  C   C26       1.0  0.34214  0.69325  0.90733  1.0000
  C   C27       1.0  0.22605999999999998  0.7055  0.014020000000000001  1.0000
  C   C28       1.0  0.5126199999999997  0.6539  0.7739200000000002  1.0000
  C   C29       1.0  0.2992399999999999  0.7519499999999999  0.91594  1.0000
  C   C30       1.0  0.3271399999999999  0.63922  0.9563000000000003  1.0000
  C   C31       1.0  0.24524000000000004  0.67767  0.39417  1.0000
  C   C32       1.0  0.3946999999999999  0.69151  0.44563  1.0000
  C   C33       1.0  0.33929  0.69792  0.3894800000000001  1.0000
  C   C34       1.0  0.85946  0.5555199999999999  0.67306  1.0000
  C   C35       1.0  0.93041  0.57187  0.72046  1.0000
  C   C36       1.0  0.0006899999999999978  0.53236  0.71862  1.0000
  C   C37       1.0  0.74379  0.61387  0.7271900000000001  1.0000
  C   C38       1.0  0.015369999999999998  0.8015  0.07054  1.0000
  C   C39       1.0  0.12072999999999995  0.98978  0.9648900000000001  1.0000
  C   C40       1.0  0.31749999999999984  0.9247399999999999  0.97856  1.0000
  C   C41       1.0  0.96878  0.69858  0.34929  1.0000
  C   C42       1.0  0.07134999999999994  0.7510999999999999  0.17698  1.0000
  C   C43       1.0  0.00034000000000002783  0.77673  0.14239  1.0000
  C   C44       1.0  0.4111799999999999  0.96356  0.98764  1.0000
  C   C45       1.0  0.43453  0.99645  0.05051  1.0000
  C   C46       1.0  0.9773499999999998  0.7261  0.27833  1.0000
  C   C47       1.0  0.3987799999999999  0.86087  0.27624  1.0000
  C   C48       1.0  0.05949  0.72521  0.24256000000000003  1.0000
  C   C49       1.0  0.4779099999999999  0.96707  0.9350700000000001  1.0000
  C   C50       1.0  0.9065799999999998  0.75374  0.24559  1.0000
  C   C51       1.0  0.6476499999999997  0.8358299999999999  0.00648  1.0000
  C   C52       1.0  0.5256899999999999  0.8336  0.20992  1.0000
  C   C53       1.0  0.5077  0.82394  0.07912000000000002  1.0000
  C   C54       1.0  0.13700999999999994  0.99882  0.12575000000000003  1.0000
  C   C55       1.0  0.9173399999999998  0.77704  0.17667  1.0000
  C   C56       1.0  0.3852  0.8504699999999998  0.15389000000000003  1.0000
  C   C57       1.0  0.00227  0.02239  0.17107  1.0000
  C   C58       1.0  0.7427299999999998  0.8564699999999998  0.006770000000000001  1.0000
  C   C59       1.0  0.53519  0.84877  0.34109000000000006  1.0000
  C   C60       1.0  0.4746899999999999  0.83643  0.14994  1.0000
  C   C61       1.0  0.3475099999999999  0.86409  0.21694  1.0000
  C   C62       1.0  0.7311799999999998  0.8537799999999999  0.50984  1.0000
  C   C63       1.0  0.65784  0.80668  0.40705  1.0000
  C   C64       1.0  0.7740699999999998  0.7950099999999999  0.51371  1.0000
  C   C65       1.0  0.4870999999999999  0.8453900000000001  0.27356  1.0000
  C   C66       1.0  0.70122  0.74824  0.41574  1.0000
  C   C67       1.0  0.6724799999999999  0.8607499999999999  0.45592  1.0000
  C   C68       1.0  0.75532  0.82252  0.8943500000000002  1.0000
  C   C69       1.0  0.60567  0.80863  0.94565  1.0000
  C   C70       1.0  0.6613  0.80222  0.88959  1.0000
  C   C71       1.0  0.14103999999999994  0.94484  0.17314  1.0000
  C   C72       1.0  0.07002999999999998  0.92877  0.22062000000000004  1.0000
  C   C73       1.0  0.000409999999999995  0.9688899999999999  0.21908  1.0000
  C   C74       1.0  0.2560399999999999  0.88597  0.22765  1.0000
  C   C75       1.0  0.01503  0.30128  0.43056  1.0000
  C   C76       1.0  0.12095999999999996  0.48911999999999994  0.53185  1.0000
  C   C77       1.0  0.31793  0.42441  0.52024  1.0000
  C   C78       1.0  0.9718799999999997  0.20037  0.15066  1.0000
  C   C79       1.0  0.07163999999999997  0.2514  0.32419  1.0000
  C   C80       1.0  0.0003200000000000021  0.27677  0.35863  1.0000
  C   C81       1.0  0.41154999999999986  0.46341  0.51186  1.0000
  C   C82       1.0  0.43555999999999995  0.49669  0.44924  1.0000
  C   C83       1.0  0.9790199999999998  0.22744000000000003  0.22203  1.0000
  C   C84       1.0  0.39903  0.36164  0.22375000000000003  1.0000
  C   C85       1.0  0.06062999999999999  0.22622  0.25834  1.0000
  C   C86       1.0  0.47745999999999994  0.4667799999999999  0.56491  1.0000
  C   C87       1.0  0.9077599999999998  0.25462  0.25477  1.0000
  C   C88       1.0  0.64744  0.33576  0.49357000000000006  1.0000
  C   C89       1.0  0.5259299999999998  0.33397  0.28965  1.0000
  C   C90       1.0  0.50793  0.3238  0.42045000000000005  1.0000
  C   C91       1.0  0.13599999999999995  0.49848000000000003  0.37422  1.0000
  C   C92       1.0  0.9176299999999997  0.27727  0.32397  1.0000
  C   C93       1.0  0.3854599999999999  0.35054  0.34609000000000006  1.0000
  C   C94       1.0  0.00019000000000000242  0.52071  0.32971  1.0000
  C   C95       1.0  0.7425  0.35672  0.49348  1.0000
  C   C96       1.0  0.5351499999999999  0.34909  0.1584  1.0000
  C   C97       1.0  0.47501999999999994  0.33659  0.34974  1.0000
  C   C98       1.0  0.34777999999999987  0.36449  0.28320000000000006  1.0000
  C   C99       1.0  0.73179  0.35336  0.9900100000000001  1.0000
  C   C100      1.0  0.6581199999999998  0.30676  0.09296000000000001  1.0000
  C   C101      1.0  0.7748  0.29462  0.98664  1.0000
  C   C102      1.0  0.4872999999999999  0.34607  0.2261  1.0000
  C   C103      1.0  0.7016  0.2483  0.08475000000000002  1.0000
  C   C104      1.0  0.67288  0.36059  0.04379  1.0000
  C   C105      1.0  0.7547399999999999  0.32235  0.6058  1.0000
  C   C106      1.0  0.6052599999999998  0.30845  0.55438  1.0000
  C   C107      1.0  0.6607  0.30206  0.6105200000000001  1.0000
  C   C108      1.0  0.14056  0.44455000000000006  0.32693  1.0000
  C   C109      1.0  0.06961  0.42819  0.27954000000000007  1.0000
  C   C110      1.0  0.9993099999999998  0.46767  0.28140000000000004  1.0000
  C   C111      1.0  0.2561899999999999  0.38617  0.27279  1.0000
  C   C112      1.0  0.98442  0.19861  0.9294200000000001  1.0000
  C   C113      1.0  0.8774299999999998  0.01039  0.03406  1.0000
  C   C114      1.0  0.68222  0.07582  0.02137  1.0000
  C   C115      1.0  0.03153  0.30139  0.65074  1.0000
  C   C116      1.0  0.92886  0.24908000000000002  0.8230200000000001  1.0000
  C   C117      1.0  0.9997799999999999  0.2235  0.85772  1.0000
  C   C118      1.0  0.58864  0.03656  0.012560000000000002  1.0000
  C   C119      1.0  0.5653099999999998  0.003520000000000001  0.94973  1.0000
  C   C120      1.0  0.02295  0.27396  0.72175  1.0000
  C   C121      1.0  0.6009899999999999  0.13901  0.72376  1.0000
  C   C122      1.0  0.9407799999999997  0.27487  0.7574200000000002  1.0000
  C   C123      1.0  0.5219599999999998  0.03287  0.06516  1.0000
  C   C124      1.0  0.09365999999999997  0.24632  0.75459  1.0000
  C   C125      1.0  0.35265999999999986  0.16352  0.99383  1.0000
  C   C126      1.0  0.4742899999999999  0.16641  0.79023  1.0000
  C   C127      1.0  0.49252  0.17605  0.92106  1.0000
  C   C128      1.0  0.8641199999999998  0.0025  0.87459  1.0000
  C   C129      1.0  0.08281999999999998  0.22306999999999996  0.8235200000000001  1.0000
  C   C130      1.0  0.6148699999999998  0.14951  0.8461000000000001  1.0000
  C   C131      1.0  0.9993199999999999  0.9795999999999999  0.82945  1.0000
  C   C132      1.0  0.25785  0.14137  0.9938900000000003  1.0000
  C   C133      1.0  0.4646599999999999  0.15117  0.65898  1.0000
  C   C134      1.0  0.52543  0.16361  0.85017  1.0000
  C   C135      1.0  0.6523899999999998  0.13586  0.78299  1.0000
  C   C136      1.0  0.26861999999999997  0.14649  0.49019000000000007  1.0000
  C   C137      1.0  0.34215  0.19341999999999998  0.5929900000000001  1.0000
  C   C138      1.0  0.22587999999999994  0.20534  0.48642000000000013  1.0000
  C   C139      1.0  0.5127  0.15451  0.72654  1.0000
  C   C140      1.0  0.2989699999999999  0.25197  0.58435  1.0000
  C   C141      1.0  0.3273599999999998  0.13939  0.54406  1.0000
  C   C142      1.0  0.24486999999999995  0.17466  0.10641  1.0000
  C   C143      1.0  0.3943099999999999  0.19164  0.05446  1.0000
  C   C144      1.0  0.3386299999999999  0.19692  0.11075  1.0000
  C   C145      1.0  0.8593999999999998  0.05601999999999999  0.82683  1.0000
  C   C146      1.0  0.9300599999999998  0.07202  0.77907  1.0000
  C   C147      1.0  0.00019999999999999944  0.03242  0.7808600000000001  1.0000
  C   C148      1.0  0.7438699999999998  0.11412999999999998  0.77219  1.0000
  N   N1        1.0  0.9326599999999998  0.46456000000000003  0.62363  1.0000
  N   N2        1.0  0.7828799999999998  0.58925  0.67047  1.0000
  N   N3        1.0  0.20459  0.64994  0.45203  1.0000
  N   N4        1.0  0.3992699999999999  0.65682  0.5677900000000001  1.0000
  N   N5        1.0  0.24113999999999994  0.75777  0.9672800000000003  1.0000
  N   N6        1.0  0.39623999999999987  0.6909  0.8485  1.0000
  N   N7        1.0  0.54197  0.56758  0.37289  1.0000
  N   N8        1.0  0.15721999999999994  0.6979  0.6463000000000001  1.0000
  N   N9        1.0  0.17740999999999996  0.74056  0.7754000000000001  1.0000
  N   N10       1.0  0.06926999999999997  0.03672  0.12414000000000001  1.0000
  N   N11       1.0  0.21714999999999995  0.91053  0.17076000000000002  1.0000
  N   N12       1.0  0.7957899999999998  0.8500099999999999  0.95231  1.0000
  N   N13       1.0  0.60048  0.84343  0.06762  1.0000
  N   N14       1.0  0.7593299999999997  0.74268  0.46707  1.0000
  N   N15       1.0  0.6036199999999998  0.80866  0.34826  1.0000
  N   N16       1.0  0.4595799999999999  0.93332  0.8724700000000001  1.0000
  N   N17       1.0  0.8435699999999998  0.80209  0.14728  1.0000
  N   N18       1.0  0.8227599999999998  0.75835  0.27577  1.0000
  N   N19       1.0  0.06730999999999998  0.53544  0.3764100000000001  1.0000
  N   N20       1.0  0.21716  0.41086  0.32951  1.0000
  N   N21       1.0  0.7953699999999998  0.35006  0.54793  1.0000
  N   N22       1.0  0.6006299999999998  0.34318  0.43222000000000005  1.0000
  N   N23       1.0  0.7600199999999999  0.24256  0.03361  1.0000
  N   N24       1.0  0.6037299999999998  0.30906  0.15163  1.0000
  N   N25       1.0  0.4584099999999999  0.43256  0.62726  1.0000
  N   N26       1.0  0.84338  0.30191  0.35332  1.0000
  N   N27       1.0  0.8242499999999998  0.25908  0.22412000000000004  1.0000
  N   N28       1.0  0.9325899999999998  0.9653299999999999  0.87661  1.0000
  N   N29       1.0  0.7828999999999998  0.0898  0.82912  1.0000
  N   N30       1.0  0.20472999999999994  0.14666  0.04856  1.0000
  N   N31       1.0  0.3997799999999999  0.15651  0.93254  1.0000
  N   N32       1.0  0.24082999999999993  0.25765  0.53306  1.0000
  N   N33       1.0  0.3962899999999999  0.19132  0.6518000000000002  1.0000
  N   N34       1.0  0.5402699999999998  0.06651  0.12778  1.0000
  N   N35       1.0  0.15655999999999995  0.19792  0.8528700000000001  1.0000
  N   N36       1.0  0.17746999999999993  0.24159999999999998  0.72443  1.0000
  O   O1        1.0  0.48649999999999977  0.6141  0.88835  1.0000
  O   O2        1.0  0.77735  0.61495  0.78487  1.0000
  O   O3        1.0  0.54623  0.70178  0.5351500000000001  1.0000
  O   O4        1.0  0.9633999999999998  0.82227  0.8759200000000003  1.0000
  O   O5        1.0  0.10898999999999999  0.80204  0.8790500000000001  1.0000
  O   O6        1.0  0.05099999999999996  0.68097  0.53584  1.0000
  O   O7        1.0  0.90586  0.70094  0.54544  1.0000
  O   O8        1.0  0.73547  0.59031  0.5318  1.0000
  O   O9        1.0  0.7134799999999998  0.5966399999999998  0.4208100000000001  1.0000
  O   O10       1.0  0.9173399999999998  0.57589  0.46112  1.0000
  O   O11       1.0  0.91848  0.45838999999999996  0.46818  1.0000
  O   O12       1.0  0.51366  0.88608  0.38732  1.0000
  O   O13       1.0  0.22272999999999996  0.88512  0.28544  1.0000
  O   O14       1.0  0.45386  0.79846  0.03441  1.0000
  O   O15       1.0  0.037989999999999975  0.68022  0.37745  1.0000
  O   O16       1.0  0.8901300000000001  0.69477  0.37805000000000005  1.0000
  O   O17       1.0  0.9494499999999998  0.81948  0.03677  1.0000
  O   O18       1.0  0.09549999999999997  0.80188  0.04687  1.0000
  O   O19       1.0  0.26431999999999994  0.90995  0.030360000000000005  1.0000
  O   O20       1.0  0.28681  0.9045599999999999  0.9193  1.0000
  O   O21       1.0  0.08281000000000002  0.92457  0.9599  1.0000
  O   O22       1.0  0.07995999999999998  0.04161  0.9668800000000002  1.0000
  O   O23       1.0  0.5135199999999998  0.3858599999999999  0.11168000000000003  1.0000
  O   O24       1.0  0.22262999999999988  0.3851  0.21511000000000002  1.0000
  O   O25       1.0  0.4536999999999999  0.29818  0.46488  1.0000
  O   O26       1.0  0.04143  0.18032  0.12442000000000003  1.0000
  O   O27       1.0  0.89457  0.19828999999999997  0.12054000000000001  1.0000
  O   O28       1.0  0.9490099999999998  0.31917  0.46429  1.0000
  O   O29       1.0  0.09507999999999998  0.30161  0.45436000000000004  1.0000
  O   O30       1.0  0.26522  0.4098  0.46824000000000005  1.0000
  O   O31       1.0  0.28671  0.40396  0.5793200000000001  1.0000
  O   O32       1.0  0.08279  0.42424  0.53908  1.0000
  O   O33       1.0  0.08147999999999997  0.54167  0.53179  1.0000
  O   O34       1.0  0.4862499999999999  0.11391000000000001  0.6127200000000002  1.0000
  O   O35       1.0  0.77721  0.11493  0.71439  1.0000
  O   O36       1.0  0.5463499999999998  0.20151  0.96578  1.0000
  O   O37       1.0  0.9624099999999998  0.31982  0.62254  1.0000
  O   O38       1.0  0.11016  0.30507  0.6219800000000001  1.0000
  O   O39       1.0  0.05024999999999999  0.18047  0.9632300000000003  1.0000
  O   O40       1.0  0.9043399999999998  0.19813  0.9531  1.0000
  O   O41       1.0  0.73514  0.09023  0.9694300000000001  1.0000
  O   O42       1.0  0.7130599999999998  0.09664999999999999  0.08048  1.0000
  O   O43       1.0  0.9148099999999998  0.07567  0.04024  1.0000
  O   O44       1.0  0.9182299999999998  0.95857  0.03329  1.0000
