data_image0
_chemical_formula_structural       Gd8Ag8H64C144N32O64
_chemical_formula_sum              "Gd8 Ag8 H64 C144 N32 O64"
_cell_length_a       8.62561
_cell_length_b       17.67492
_cell_length_c       25.01803
_cell_angle_alpha    90.0
_cell_angle_beta     90.0
_cell_angle_gamma    90.00180999999999

_symmetry_space_group_name_H-M    'P 1'
_symmetry_Int_Tables_number       1

loop_
  _symmetry_equiv_pos_as_xyz
  'x,y,z'

loop_
  _atom_site_type_symbol
  _atom_site_label
  _atom_site_symmetry_multiplicity
  _atom_site_fract_x
  _atom_site_fract_y
  _atom_site_fract_z
  _atom_site_occupancy
  Gd  Gd1       1.0  0.83404  0.78373  0.024790000000000006  1.0000
  Gd  Gd2       1.0  0.33404  0.71627  0.9752100000000002  1.0000
  Gd  Gd3       1.0  0.33404  0.21627  0.52479  1.0000
  Gd  Gd4       1.0  0.83404  0.28373  0.47521  1.0000
  Gd  Gd5       1.0  0.66595  0.78373  0.47521  1.0000
  Gd  Gd6       1.0  0.16596  0.71628  0.52479  1.0000
  Gd  Gd7       1.0  0.16596  0.21628  0.9752100000000002  1.0000
  Gd  Gd8       1.0  0.66596  0.28373  0.024790000000000006  1.0000
  Ag  Ag1       1.0  0.53708  0.9527300000000001  0.72637  1.0000
  Ag  Ag2       1.0  0.03713  0.54727  0.27363  1.0000
  Ag  Ag3       1.0  0.03713  0.04727  0.22637  1.0000
  Ag  Ag4       1.0  0.53709  0.45273  0.7736400000000002  1.0000
  Ag  Ag5       1.0  0.96287  0.9527300000000001  0.77363  1.0000
  Ag  Ag6       1.0  0.46291  0.54727  0.22637  1.0000
  Ag  Ag7       1.0  0.46292000000000005  0.04727  0.27364  1.0000
  Ag  Ag8       1.0  0.96287  0.45273  0.72637  1.0000
  H   H1        1.0  0.58809  0.58355  0.85518  1.0000
  H   H2        1.0  0.33039  0.83535  0.79208  1.0000
  H   H3        1.0  0.9372599999999999  0.34501  0.91073  1.0000
  H   H4        1.0  0.74083  0.31126  0.8366700000000002  1.0000
  H   H5        1.0  0.10983  0.00172  0.93721  1.0000
  H   H6        1.0  0.04983  0.48668999999999996  0.9559800000000003  1.0000
  H   H7        1.0  0.45168  0.11336000000000002  0.7930600000000001  1.0000
  H   H8        1.0  0.27828  0.12146000000000001  0.8705400000000002  1.0000
  H   H9        1.0  0.08809  0.9164500000000001  0.14483  1.0000
  H   H10       1.0  0.83041  0.66465  0.20792  1.0000
  H   H11       1.0  0.43727  0.15499  0.08928  1.0000
  H   H12       1.0  0.24084  0.18874  0.16333000000000006  1.0000
  H   H13       1.0  0.60983  0.49827  0.06279000000000001  1.0000
  H   H14       1.0  0.54983  0.01332  0.044020000000000004  1.0000
  H   H15       1.0  0.9516899999999999  0.38664  0.20694  1.0000
  H   H16       1.0  0.77827  0.37853  0.12946  1.0000
  H   H17       1.0  0.08809  0.41645  0.35517000000000004  1.0000
  H   H18       1.0  0.83042  0.16465  0.29208  1.0000
  H   H19       1.0  0.43726  0.65499  0.4107300000000001  1.0000
  H   H20       1.0  0.24084  0.68874  0.33667000000000014  1.0000
  H   H21       1.0  0.60983  0.9982600000000001  0.43721  1.0000
  H   H22       1.0  0.54983  0.51332  0.45598000000000005  1.0000
  H   H23       1.0  0.9516899999999999  0.88664  0.29306000000000004  1.0000
  H   H24       1.0  0.77827  0.8785300000000003  0.3705400000000001  1.0000
  H   H25       1.0  0.58809  0.08355000000000001  0.6448300000000001  1.0000
  H   H26       1.0  0.3304  0.33535  0.7079300000000002  1.0000
  H   H27       1.0  0.9372599999999999  0.84502  0.58928  1.0000
  H   H28       1.0  0.74083  0.81126  0.6633300000000001  1.0000
  H   H29       1.0  0.10983  0.50172  0.5627900000000001  1.0000
  H   H30       1.0  0.04982  0.9866899999999998  0.54403  1.0000
  H   H31       1.0  0.45168  0.61336  0.70695  1.0000
  H   H32       1.0  0.27827  0.62147  0.62946  1.0000
  H   H33       1.0  0.9119100000000001  0.58355  0.6448300000000001  1.0000
  H   H34       1.0  0.16959  0.83535  0.70792  1.0000
  H   H35       1.0  0.56273  0.34501  0.58928  1.0000
  H   H36       1.0  0.75916  0.31126  0.6633300000000001  1.0000
  H   H37       1.0  0.39016  0.00174  0.5627900000000001  1.0000
  H   H38       1.0  0.45017  0.48668000000000006  0.54403  1.0000
  H   H39       1.0  0.04831  0.11336000000000002  0.70695  1.0000
  H   H40       1.0  0.22173  0.12147  0.62946  1.0000
  H   H41       1.0  0.41191  0.9164500000000001  0.35518000000000005  1.0000
  H   H42       1.0  0.66961  0.66465  0.29207000000000005  1.0000
  H   H43       1.0  0.06274  0.15499  0.4107200000000001  1.0000
  H   H44       1.0  0.25917  0.18874  0.33667000000000014  1.0000
  H   H45       1.0  0.89016  0.49828  0.43721  1.0000
  H   H46       1.0  0.9501799999999999  0.01331  0.45598000000000005  1.0000
  H   H47       1.0  0.54832  0.38664  0.29306000000000004  1.0000
  H   H48       1.0  0.72173  0.37854  0.3705400000000001  1.0000
  H   H49       1.0  0.41191  0.41645  0.14483  1.0000
  H   H50       1.0  0.66961  0.16465  0.20793  1.0000
  H   H51       1.0  0.06274  0.65499  0.08928  1.0000
  H   H52       1.0  0.25917  0.68874  0.16333000000000006  1.0000
  H   H53       1.0  0.89017  0.9982800000000001  0.06279000000000001  1.0000
  H   H54       1.0  0.95017  0.51331  0.04403  1.0000
  H   H55       1.0  0.54831  0.88664  0.20695000000000005  1.0000
  H   H56       1.0  0.72172  0.87854  0.12946  1.0000
  H   H57       1.0  0.9119100000000001  0.08355000000000001  0.85518  1.0000
  H   H58       1.0  0.16958  0.33535  0.79208  1.0000
  H   H59       1.0  0.56273  0.8450100000000001  0.91073  1.0000
  H   H60       1.0  0.75915  0.81126  0.8366700000000002  1.0000
  H   H61       1.0  0.39017  0.50174  0.93721  1.0000
  H   H62       1.0  0.45017  0.9866899999999998  0.9559800000000003  1.0000
  H   H63       1.0  0.0483  0.61337  0.7930600000000001  1.0000
  H   H64       1.0  0.22173  0.62147  0.8705400000000002  1.0000
  C   C1        1.0  0.04787  0.85457  0.95163  1.0000
  C   C2        1.0  0.13394  0.8883  0.90583  1.0000
  C   C3        1.0  0.89525  0.58071  0.94264  1.0000
  C   C4        1.0  0.98893  0.62632  0.9818700000000002  1.0000
  C   C5        1.0  0.69219  0.6840100000000001  0.9248600000000001  1.0000
  C   C6        1.0  0.76144  0.60759  0.9150100000000002  1.0000
  C   C7        1.0  0.68722  0.56171  0.8772100000000003  1.0000
  C   C8        1.0  0.28273  0.8712  0.82347  1.0000
  C   C9        1.0  0.3129  0.9488099999999999  0.8242300000000001  1.0000
  C   C10       1.0  0.65513  0.74285  0.13974000000000003  1.0000
  C   C11       1.0  0.76382  0.36756  0.8518500000000001  1.0000
  C   C12       1.0  0.15728  0.96682  0.9053000000000002  1.0000
  C   C13       1.0  0.94655  0.50633  0.9356000000000002  1.0000
  C   C14       1.0  0.19211  0.84086  0.86442  1.0000
  C   C15       1.0  0.73969  0.48785000000000006  0.8703000000000001  1.0000
  C   C16       1.0  0.86217  0.4594500000000001  0.9017600000000001  1.0000
  C   C17       1.0  0.24684000000000003  0.9965300000000001  0.86381  1.0000
  C   C18       1.0  0.39371  0.06372  0.80886  1.0000
  C   C19       1.0  0.54788  0.64543  0.04837  1.0000
  C   C20       1.0  0.6339700000000001  0.61169  0.09416000000000002  1.0000
  C   C21       1.0  0.39525  0.91929  0.057370000000000004  1.0000
  C   C22       1.0  0.48893000000000003  0.87368  0.01813  1.0000
  C   C23       1.0  0.19218  0.81599  0.07514000000000001  1.0000
  C   C24       1.0  0.26144  0.89241  0.08499  1.0000
  C   C25       1.0  0.18722  0.9382900000000001  0.12279000000000002  1.0000
  C   C26       1.0  0.78277  0.6287900000000001  0.17653  1.0000
  C   C27       1.0  0.81292  0.55118  0.17577000000000004  1.0000
  C   C28       1.0  0.15511  0.75711  0.86026  1.0000
  C   C29       1.0  0.26384  0.13244000000000003  0.14816  1.0000
  C   C30       1.0  0.65729  0.53317  0.0947  1.0000
  C   C31       1.0  0.44655  0.99367  0.06441  1.0000
  C   C32       1.0  0.69217  0.65912  0.13557  1.0000
  C   C33       1.0  0.2397  0.01215  0.12971  1.0000
  C   C34       1.0  0.36217  0.04055  0.09825000000000003  1.0000
  C   C35       1.0  0.74686  0.50347  0.13619  1.0000
  C   C36       1.0  0.89372  0.43628  0.19114000000000006  1.0000
  C   C37       1.0  0.54789  0.14542  0.4516400000000001  1.0000
  C   C38       1.0  0.63398  0.11169  0.40584  1.0000
  C   C39       1.0  0.39525  0.41929  0.4426400000000001  1.0000
  C   C40       1.0  0.48893000000000003  0.37368  0.48187  1.0000
  C   C41       1.0  0.19219  0.31599  0.42486  1.0000
  C   C42       1.0  0.26144  0.39241  0.4150100000000001  1.0000
  C   C43       1.0  0.18722  0.43829  0.37721  1.0000
  C   C44       1.0  0.78278  0.12879  0.32348  1.0000
  C   C45       1.0  0.81293  0.05118  0.32423  1.0000
  C   C46       1.0  0.15511  0.25712  0.63974  1.0000
  C   C47       1.0  0.26384  0.63244  0.35184  1.0000
  C   C48       1.0  0.65729  0.03317  0.4053  1.0000
  C   C49       1.0  0.44656  0.49367000000000005  0.43560000000000004  1.0000
  C   C50       1.0  0.69219  0.15912  0.36444000000000004  1.0000
  C   C51       1.0  0.2397  0.51215  0.37030000000000013  1.0000
  C   C52       1.0  0.36217  0.54055  0.40176  1.0000
  C   C53       1.0  0.74686  0.00346  0.3638100000000001  1.0000
  C   C54       1.0  0.89371  0.93627  0.30886  1.0000
  C   C55       1.0  0.04787  0.35457  0.54837  1.0000
  C   C56       1.0  0.13395  0.3883  0.59417  1.0000
  C   C57       1.0  0.89525  0.08071  0.55737  1.0000
  C   C58       1.0  0.98893  0.12632  0.5181300000000001  1.0000
  C   C59       1.0  0.69219  0.18401  0.5751500000000002  1.0000
  C   C60       1.0  0.76144  0.10759000000000003  0.58499  1.0000
  C   C61       1.0  0.68722  0.06171000000000001  0.62279  1.0000
  C   C62       1.0  0.28274  0.37121  0.67653  1.0000
  C   C63       1.0  0.31291  0.44881  0.6757700000000002  1.0000
  C   C64       1.0  0.65513  0.24284  0.36026  1.0000
  C   C65       1.0  0.76382  0.86756  0.6481600000000001  1.0000
  C   C66       1.0  0.15728  0.46682000000000007  0.5947  1.0000
  C   C67       1.0  0.94655  0.00633  0.5644100000000001  1.0000
  C   C68       1.0  0.19213  0.34086  0.6355800000000001  1.0000
  C   C69       1.0  0.73969  0.9878599999999998  0.62971  1.0000
  C   C70       1.0  0.86216  0.95945  0.59825  1.0000
  C   C71       1.0  0.24685  0.49653  0.63619  1.0000
  C   C72       1.0  0.39370000000000005  0.56373  0.69115  1.0000
  C   C73       1.0  0.45211  0.85458  0.54837  1.0000
  C   C74       1.0  0.36602  0.8883100000000002  0.59417  1.0000
  C   C75       1.0  0.6047500000000001  0.58071  0.55737  1.0000
  C   C76       1.0  0.51107  0.62632  0.5181300000000001  1.0000
  C   C77       1.0  0.80781  0.6840100000000001  0.5751500000000002  1.0000
  C   C78       1.0  0.73856  0.60759  0.58499  1.0000
  C   C79       1.0  0.81278  0.56171  0.62279  1.0000
  C   C80       1.0  0.21723  0.87121  0.67653  1.0000
  C   C81       1.0  0.18707  0.94882  0.6757700000000002  1.0000
  C   C82       1.0  0.84489  0.74289  0.36026  1.0000
  C   C83       1.0  0.73616  0.36756  0.6481600000000001  1.0000
  C   C84       1.0  0.34271  0.9668299999999999  0.5947  1.0000
  C   C85       1.0  0.55344  0.50633  0.5644100000000001  1.0000
  C   C86       1.0  0.30783  0.84088  0.6355700000000001  1.0000
  C   C87       1.0  0.7603000000000001  0.48785000000000006  0.62971  1.0000
  C   C88       1.0  0.63783  0.4594500000000001  0.59825  1.0000
  C   C89       1.0  0.25314  0.99654  0.63619  1.0000
  C   C90       1.0  0.10628  0.06373  0.69115  1.0000
  C   C91       1.0  0.9521300000000001  0.64543  0.4516300000000001  1.0000
  C   C92       1.0  0.86605  0.61171  0.40583000000000014  1.0000
  C   C93       1.0  0.10475  0.91929  0.4426400000000001  1.0000
  C   C94       1.0  0.01107  0.87368  0.48187  1.0000
  C   C95       1.0  0.30781  0.81599  0.42486  1.0000
  C   C96       1.0  0.23856000000000002  0.89241  0.4150100000000001  1.0000
  C   C97       1.0  0.31278  0.9382900000000001  0.37721  1.0000
  C   C98       1.0  0.71727  0.6288  0.3234700000000001  1.0000
  C   C99       1.0  0.6871  0.55119  0.32423  1.0000
  C   C100      1.0  0.34487000000000007  0.75715  0.63974  1.0000
  C   C101      1.0  0.23617999999999997  0.13244000000000003  0.35184  1.0000
  C   C102      1.0  0.84272  0.53318  0.4053  1.0000
  C   C103      1.0  0.05344  0.99367  0.43560000000000004  1.0000
  C   C104      1.0  0.80788  0.6591400000000001  0.36442  1.0000
  C   C105      1.0  0.26031  0.01215  0.37030000000000013  1.0000
  C   C106      1.0  0.13783  0.04055  0.40176  1.0000
  C   C107      1.0  0.75315  0.50348  0.3638100000000001  1.0000
  C   C108      1.0  0.60629  0.43628  0.30886  1.0000
  C   C109      1.0  0.9521300000000001  0.14543  0.04837  1.0000
  C   C110      1.0  0.86605  0.1117  0.09417  1.0000
  C   C111      1.0  0.10475  0.41929  0.05736000000000001  1.0000
  C   C112      1.0  0.01107  0.37368  0.01813  1.0000
  C   C113      1.0  0.30781  0.31599  0.07514000000000001  1.0000
  C   C114      1.0  0.23856000000000002  0.39241  0.08499  1.0000
  C   C115      1.0  0.31278  0.43829  0.12279000000000002  1.0000
  C   C116      1.0  0.71726  0.1288  0.17653  1.0000
  C   C117      1.0  0.68709  0.05119  0.17577000000000004  1.0000
  C   C118      1.0  0.34488  0.25716  0.86026  1.0000
  C   C119      1.0  0.23617  0.63244  0.14816  1.0000
  C   C120      1.0  0.84272  0.03318  0.0947  1.0000
  C   C121      1.0  0.05345  0.49367000000000005  0.06441  1.0000
  C   C122      1.0  0.80787  0.15914  0.13558000000000003  1.0000
  C   C123      1.0  0.26031  0.51215  0.12970000000000004  1.0000
  C   C124      1.0  0.13783  0.54055  0.09825000000000003  1.0000
  C   C125      1.0  0.75315  0.00347  0.13619  1.0000
  C   C126      1.0  0.60629  0.9362799999999999  0.19115  1.0000
  C   C127      1.0  0.45211  0.35458  0.9516400000000003  1.0000
  C   C128      1.0  0.36602  0.38831  0.9058400000000002  1.0000
  C   C129      1.0  0.6047500000000001  0.08071  0.94264  1.0000
  C   C130      1.0  0.51107  0.12632  0.9818700000000002  1.0000
  C   C131      1.0  0.80781  0.18401  0.9248600000000001  1.0000
  C   C132      1.0  0.73856  0.10759000000000003  0.9150100000000002  1.0000
  C   C133      1.0  0.81278  0.06171000000000001  0.8772100000000003  1.0000
  C   C134      1.0  0.21722  0.37121  0.8234800000000002  1.0000
  C   C135      1.0  0.18707  0.44882  0.82424  1.0000
  C   C136      1.0  0.84489  0.24288  0.13974000000000003  1.0000
  C   C137      1.0  0.73616  0.86756  0.8518500000000001  1.0000
  C   C138      1.0  0.34271  0.46684000000000003  0.9053100000000001  1.0000
  C   C139      1.0  0.55345  0.00633  0.9356000000000002  1.0000
  C   C140      1.0  0.30781  0.34088  0.86444  1.0000
  C   C141      1.0  0.7603000000000001  0.9878599999999998  0.8703000000000001  1.0000
  C   C142      1.0  0.63783  0.95945  0.9017600000000001  1.0000
  C   C143      1.0  0.25314  0.4965399999999999  0.86381  1.0000
  C   C144      1.0  0.10628  0.56373  0.80886  1.0000
  N   N1        1.0  0.87321  0.38337  0.88925  1.0000
  N   N2        1.0  0.68412  0.42947  0.83817  1.0000
  N   N3        1.0  0.40528  0.99249  0.7907800000000003  1.0000
  N   N4        1.0  0.29960000000000003  0.06882  0.8518500000000001  1.0000
  N   N5        1.0  0.37322  0.11663  0.11075000000000003  1.0000
  N   N6        1.0  0.18413  0.07053  0.16183000000000006  1.0000
  N   N7        1.0  0.9053  0.50751  0.20922000000000004  1.0000
  N   N8        1.0  0.7996  0.43118000000000006  0.14815000000000003  1.0000
  N   N9        1.0  0.37322  0.61663  0.38925000000000004  1.0000
  N   N10       1.0  0.18413  0.57053  0.33817  1.0000
  N   N11       1.0  0.9053  0.00751  0.29078  1.0000
  N   N12       1.0  0.7996  0.93118  0.35185  1.0000
  N   N13       1.0  0.87321  0.88337  0.6107600000000001  1.0000
  N   N14       1.0  0.68412  0.92947  0.66183  1.0000
  N   N15       1.0  0.40528  0.49249  0.7092300000000002  1.0000
  N   N16       1.0  0.29960000000000003  0.56882  0.6481600000000001  1.0000
  N   N17       1.0  0.62678  0.38337  0.6107600000000001  1.0000
  N   N18       1.0  0.81587  0.42947  0.66183  1.0000
  N   N19       1.0  0.0947  0.99249  0.70922  1.0000
  N   N20       1.0  0.2004  0.06883000000000002  0.6481600000000001  1.0000
  N   N21       1.0  0.12679  0.11663  0.38925000000000004  1.0000
  N   N22       1.0  0.31588  0.07053  0.33817  1.0000
  N   N23       1.0  0.59472  0.50751  0.29078  1.0000
  N   N24       1.0  0.70041  0.43118000000000006  0.35185  1.0000
  N   N25       1.0  0.12679  0.61663  0.11076  1.0000
  N   N26       1.0  0.31588  0.57053  0.16183000000000006  1.0000
  N   N27       1.0  0.59472  0.00751  0.20922000000000004  1.0000
  N   N28       1.0  0.7004  0.93118  0.14816  1.0000
  N   N29       1.0  0.62678  0.88337  0.88925  1.0000
  N   N30       1.0  0.81587  0.92947  0.83817  1.0000
  N   N31       1.0  0.0947  0.4925  0.7907800000000003  1.0000
  N   N32       1.0  0.2004  0.56883  0.8518500000000001  1.0000
  O   O1        1.0  0.9215500000000001  0.65874  0.0214  1.0000
  O   O2        1.0  0.08612  0.78802  0.9683000000000002  1.0000
  O   O3        1.0  0.9371599999999999  0.89038  0.9736200000000003  1.0000
  O   O4        1.0  0.13467  0.62469  0.97597  1.0000
  O   O5        1.0  0.77909  0.73876  0.9387500000000001  1.0000
  O   O6        1.0  0.74946  0.78774  0.11414000000000003  1.0000
  O   O7        1.0  0.54765  0.76374  0.16941000000000003  1.0000
  O   O8        1.0  0.54602  0.68972  0.9180000000000003  1.0000
  O   O9        1.0  0.42154  0.84127  0.9786  1.0000
  O   O10       1.0  0.58613  0.71198  0.03171  1.0000
  O   O11       1.0  0.43716  0.60962  0.02639  1.0000
  O   O12       1.0  0.63467  0.8753100000000001  0.02403  1.0000
  O   O13       1.0  0.27908  0.76124  0.06125000000000001  1.0000
  O   O14       1.0  0.24949000000000002  0.71227  0.8858700000000002  1.0000
  O   O15       1.0  0.047670000000000004  0.73615  0.8306  1.0000
  O   O16       1.0  0.04601  0.81028  0.08200000000000002  1.0000
  O   O17       1.0  0.42154  0.34127  0.5214000000000001  1.0000
  O   O18       1.0  0.58613  0.21198  0.4683  1.0000
  O   O19       1.0  0.43716  0.10962  0.4736100000000001  1.0000
  O   O20       1.0  0.63467  0.37531  0.47597000000000006  1.0000
  O   O21       1.0  0.27908  0.26124  0.43875  1.0000
  O   O22       1.0  0.24948  0.21227  0.6141400000000001  1.0000
  O   O23       1.0  0.04768  0.23618  0.66941  1.0000
  O   O24       1.0  0.04601  0.31028  0.4180000000000001  1.0000
  O   O25       1.0  0.9215500000000001  0.15873  0.4786  1.0000
  O   O26       1.0  0.08613  0.28802  0.53171  1.0000
  O   O27       1.0  0.9371599999999999  0.39038  0.52639  1.0000
  O   O28       1.0  0.13467  0.12469000000000001  0.52403  1.0000
  O   O29       1.0  0.77909  0.23876  0.56126  1.0000
  O   O30       1.0  0.7494500000000001  0.28774  0.38586  1.0000
  O   O31       1.0  0.54766  0.2637  0.33059  1.0000
  O   O32       1.0  0.54602  0.18972000000000003  0.582  1.0000
  O   O33       1.0  0.57845  0.65873  0.4786  1.0000
  O   O34       1.0  0.41387  0.78802  0.53171  1.0000
  O   O35       1.0  0.56284  0.89038  0.52639  1.0000
  O   O36       1.0  0.36533  0.62469  0.52403  1.0000
  O   O37       1.0  0.72092  0.73876  0.56126  1.0000
  O   O38       1.0  0.75051  0.78773  0.38587  1.0000
  O   O39       1.0  0.9523200000000002  0.76385  0.3306  1.0000
  O   O40       1.0  0.95399  0.68973  0.582  1.0000
  O   O41       1.0  0.07845  0.84127  0.5214000000000001  1.0000
  O   O42       1.0  0.91387  0.71198  0.4683  1.0000
  O   O43       1.0  0.06284  0.60963  0.4736100000000001  1.0000
  O   O44       1.0  0.86533  0.8753100000000001  0.47597000000000006  1.0000
  O   O45       1.0  0.22091  0.76124  0.43875  1.0000
  O   O46       1.0  0.25054  0.71227  0.61415  1.0000
  O   O47       1.0  0.45234  0.73627  0.66941  1.0000
  O   O48       1.0  0.45398  0.81028  0.4180000000000001  1.0000
  O   O49       1.0  0.07845  0.34127  0.9786  1.0000
  O   O50       1.0  0.91387  0.21198  0.0317  1.0000
  O   O51       1.0  0.06284  0.10962  0.02639  1.0000
  O   O52       1.0  0.86533  0.37531  0.02403  1.0000
  O   O53       1.0  0.22091  0.26124  0.06125000000000001  1.0000
  O   O54       1.0  0.25055  0.21226  0.88586  1.0000
  O   O55       1.0  0.45234  0.23630000000000004  0.83059  1.0000
  O   O56       1.0  0.45398  0.31028  0.08200000000000002  1.0000
  O   O57       1.0  0.57846  0.15873  0.0214  1.0000
  O   O58       1.0  0.41387  0.28802  0.9683000000000002  1.0000
  O   O59       1.0  0.56284  0.39038  0.9736200000000003  1.0000
  O   O60       1.0  0.36533  0.12469000000000001  0.97597  1.0000
  O   O61       1.0  0.72092  0.23876  0.9387500000000001  1.0000
  O   O62       1.0  0.75052  0.28773  0.11414000000000003  1.0000
  O   O63       1.0  0.9523200000000002  0.26382  0.16941000000000003  1.0000
  O   O64       1.0  0.95399  0.18972000000000003  0.9180000000000003  1.0000
