data_image0
_chemical_formula_structural       Cd6H98C132N14O38
_chemical_formula_sum              "Cd6 H98 C132 N14 O38"
_cell_length_a       17.23726
_cell_length_b       24.07893
_cell_length_c       24.07925
_cell_angle_alpha    111.76086999999998
_cell_angle_beta     96.57772999999999
_cell_angle_gamma    96.57782

_symmetry_space_group_name_H-M    'P 1'
_symmetry_Int_Tables_number       1

loop_
  _symmetry_equiv_pos_as_xyz
  'x,y,z'

loop_
  _atom_site_type_symbol
  _atom_site_label
  _atom_site_symmetry_multiplicity
  _atom_site_fract_x
  _atom_site_fract_y
  _atom_site_fract_z
  _atom_site_occupancy
  Cd  Cd1       1.0  0.50087  0.63233  0.96944  1.0000
  Cd  Cd2       1.0  0.4991399999999999  0.030559999999999993  0.36767  1.0000
  Cd  Cd3       1.0  0.4991399999999999  0.36767  0.03056  1.0000
  Cd  Cd4       1.0  0.50087  0.96944  0.63233  1.0000
  Cd  Cd5       1.0  0.5  0.5  0.0  1.0000
  Cd  Cd6       1.0  0.5  0.0  0.5  1.0000
  H   H1        1.0  0.9068899999999998  0.3537199999999999  0.65365  1.0000
  H   H2        1.0  0.9931299999999998  0.40786  0.6988  1.0000
  H   H3        1.0  0.91475  0.27751  0.73676  1.0000
  H   H4        1.0  0.84843  0.31592000000000003  0.7842200000000001  1.0000
  H   H5        1.0  0.8987199999999999  0.46465  0.77126  1.0000
  H   H6        1.0  0.8174200000000003  0.4064900000000001  0.7233800000000001  1.0000
  H   H7        1.0  0.967  0.3962200000000001  0.8465300000000001  1.0000
  H   H8        1.0  0.02923999999999996  0.35817  0.7947  1.0000
  H   H9        1.0  0.82247  0.21169000000000002  0.7475400000000001  1.0000
  H   H10       1.0  0.72193  0.11982000000000002  0.72257  1.0000
  H   H11       1.0  0.59068  0.15858  0.58291  1.0000
  H   H12       1.0  0.69157  0.25146  0.60702  1.0000
  H   H13       1.0  0.7530599999999998  0.4100700000000001  0.8935700000000002  1.0000
  H   H14       1.0  0.64582  0.4678200000000002  0.9320600000000002  1.0000
  H   H15       1.0  0.6803299999999998  0.56563  0.81706  1.0000
  H   H16       1.0  0.78482  0.50633  0.77628  1.0000
  H   H17       1.0  0.11121  0.40020000000000006  0.88167  1.0000
  H   H18       1.0  0.24819000000000005  0.44334000000000007  0.9380300000000001  1.0000
  H   H19       1.0  0.2560699999999999  0.58749  0.87394  1.0000
  H   H20       1.0  0.11880000000000004  0.5434100000000001  0.8145200000000001  1.0000
  H   H21       1.0  0.58652  0.7053000000000001  0.8935800000000003  1.0000
  H   H22       1.0  0.39477  0.7560500000000001  0.9838100000000001  1.0000
  H   H23       1.0  0.43779  0.83977  0.9341000000000003  1.0000
  H   H24       1.0  0.6816599999999999  0.7902  0.89775  1.0000
  H   H25       1.0  0.09312000000000001  0.34635000000000005  0.64628  1.0000
  H   H26       1.0  0.0068799999999999955  0.3012  0.59215  1.0000
  H   H27       1.0  0.08526000000000003  0.26324000000000003  0.7224900000000001  1.0000
  H   H28       1.0  0.15158  0.21578  0.68408  1.0000
  H   H29       1.0  0.10129  0.22874000000000003  0.53536  1.0000
  H   H30       1.0  0.18258999999999997  0.27661999999999987  0.59351  1.0000
  H   H31       1.0  0.03301000000000002  0.15347000000000005  0.60378  1.0000
  H   H32       1.0  0.9707699999999999  0.2053  0.64183  1.0000
  H   H33       1.0  0.17754  0.25246  0.78831  1.0000
  H   H34       1.0  0.27808000000000005  0.27743  0.8801800000000001  1.0000
  H   H35       1.0  0.40933  0.41709  0.84142  1.0000
  H   H36       1.0  0.30844  0.39298  0.74855  1.0000
  H   H37       1.0  0.24695  0.10643  0.58993  1.0000
  H   H38       1.0  0.3541899999999999  0.06794  0.53219  1.0000
  H   H39       1.0  0.3196799999999999  0.18294  0.43437  1.0000
  H   H40       1.0  0.21519  0.22372000000000003  0.49368000000000006  1.0000
  H   H41       1.0  0.8888  0.11833000000000002  0.5998  1.0000
  H   H42       1.0  0.75182  0.06196999999999997  0.55667  1.0000
  H   H43       1.0  0.74394  0.12606  0.41251  1.0000
  H   H44       1.0  0.88122  0.18548  0.45659000000000005  1.0000
  H   H45       1.0  0.41349  0.10642000000000001  0.2947  1.0000
  H   H46       1.0  0.60524  0.016190000000000024  0.24395000000000003  1.0000
  H   H47       1.0  0.56222  0.06590000000000001  0.16023000000000004  1.0000
  H   H48       1.0  0.3183599999999999  0.10225000000000001  0.20981  1.0000
  H   H49       1.0  0.09312000000000001  0.64628  0.34635  1.0000
  H   H50       1.0  0.006880000000000015  0.59215  0.3012  1.0000
  H   H51       1.0  0.08526000000000002  0.7224900000000001  0.26324  1.0000
  H   H52       1.0  0.15158  0.68408  0.21578  1.0000
  H   H53       1.0  0.10129000000000003  0.5353600000000001  0.22874000000000003  1.0000
  H   H54       1.0  0.18259  0.59351  0.27662000000000003  1.0000
  H   H55       1.0  0.03300999999999999  0.60378  0.15347  1.0000
  H   H56       1.0  0.9707699999999999  0.64184  0.20530000000000004  1.0000
  H   H57       1.0  0.17754  0.78832  0.25246  1.0000
  H   H58       1.0  0.27808  0.8801900000000001  0.27743  1.0000
  H   H59       1.0  0.40933  0.8414199999999998  0.41708  1.0000
  H   H60       1.0  0.30843999999999994  0.7485499999999999  0.39298  1.0000
  H   H61       1.0  0.24695  0.58993  0.10643000000000001  1.0000
  H   H62       1.0  0.3541899999999999  0.53219  0.06794  1.0000
  H   H63       1.0  0.3196799999999999  0.43437  0.18294  1.0000
  H   H64       1.0  0.21519  0.49368  0.22372  1.0000
  H   H65       1.0  0.88881  0.59981  0.11832  1.0000
  H   H66       1.0  0.75182  0.55667  0.061970000000000004  1.0000
  H   H67       1.0  0.74394  0.41250999999999993  0.12606  1.0000
  H   H68       1.0  0.88121  0.45659  0.18548  1.0000
  H   H69       1.0  0.41349  0.2947  0.10641000000000002  1.0000
  H   H70       1.0  0.60524  0.24395  0.016190000000000003  1.0000
  H   H71       1.0  0.56222  0.16023  0.0659  1.0000
  H   H72       1.0  0.31835999999999987  0.20981  0.10225000000000001  1.0000
  H   H73       1.0  0.9068899999999998  0.65365  0.35372  1.0000
  H   H74       1.0  0.9931299999999998  0.6988000000000001  0.40785000000000005  1.0000
  H   H75       1.0  0.91475  0.73676  0.27751  1.0000
  H   H76       1.0  0.84843  0.7842199999999999  0.31592  1.0000
  H   H77       1.0  0.8987199999999999  0.7712599999999998  0.46464  1.0000
  H   H78       1.0  0.81742  0.72338  0.40649  1.0000
  H   H79       1.0  0.967  0.84653  0.39622  1.0000
  H   H80       1.0  0.02924999999999997  0.79471  0.35817  1.0000
  H   H81       1.0  0.82247  0.74755  0.21169000000000004  1.0000
  H   H82       1.0  0.72193  0.72257  0.11981  1.0000
  H   H83       1.0  0.59068  0.58292  0.15858  1.0000
  H   H84       1.0  0.69157  0.60702  0.25145  1.0000
  H   H85       1.0  0.7530599999999998  0.8935700000000001  0.4100700000000001  1.0000
  H   H86       1.0  0.64582  0.9320600000000002  0.46781  1.0000
  H   H87       1.0  0.6803299999999998  0.8170599999999999  0.56562  1.0000
  H   H88       1.0  0.78482  0.77628  0.50632  1.0000
  H   H89       1.0  0.11121000000000004  0.88168  0.40019000000000005  1.0000
  H   H90       1.0  0.24819  0.93803  0.44333000000000006  1.0000
  H   H91       1.0  0.2560699999999999  0.87394  0.58749  1.0000
  H   H92       1.0  0.11880000000000004  0.8145200000000001  0.5434100000000001  1.0000
  H   H93       1.0  0.58652  0.8935900000000001  0.7053  1.0000
  H   H94       1.0  0.3947700000000001  0.98381  0.7560500000000001  1.0000
  H   H95       1.0  0.43779  0.9341000000000002  0.8397700000000002  1.0000
  H   H96       1.0  0.68166  0.89775  0.7901900000000001  1.0000
  H   H97       1.0  0.46168  0.83861  0.8386100000000002  1.0000
  H   H98       1.0  0.53833  0.16139  0.16139  1.0000
  C   C1        1.0  0.9207399999999999  0.37235  0.75049  1.0000
  C   C2        1.0  0.9549999999999998  0.3653  0.69241  1.0000
  C   C3        1.0  0.87473  0.31095  0.74357  1.0000
  C   C4        1.0  0.8653999999999998  0.41961  0.76237  1.0000
  C   C5        1.0  0.98941  0.39181  0.8044  1.0000
  C   C6        1.0  0.7622799999999998  0.23819000000000004  0.67943  1.0000
  C   C7        1.0  0.77215  0.20066  0.7116000000000001  1.0000
  C   C8        1.0  0.71575  0.14905  0.69769  1.0000
  C   C9        1.0  0.64939  0.13408000000000006  0.6521800000000001  1.0000
  C   C10       1.0  0.6416299999999998  0.17092  0.61886  1.0000
  C   C11       1.0  0.6974900000000002  0.22243  0.63214  1.0000
  C   C12       1.0  0.58768  0.08085  0.6408  1.0000
  C   C13       1.0  0.7748400000000002  0.4543200000000001  0.8326300000000002  1.0000
  C   C14       1.0  0.73579  0.44379  0.87682  1.0000
  C   C15       1.0  0.6762  0.47601000000000004  0.89796  1.0000
  C   C16       1.0  0.65597  0.5203799999999997  0.87657  1.0000
  C   C17       1.0  0.696  0.5309400000000001  0.8329400000000001  1.0000
  C   C18       1.0  0.7546299999999999  0.49778000000000006  0.8102100000000001  1.0000
  C   C19       1.0  0.59516  0.5572500000000001  0.9013500000000001  1.0000
  C   C20       1.0  0.10637000000000002  0.46950000000000003  0.8444500000000001  1.0000
  C   C21       1.0  0.1422  0.44092000000000003  0.87934  1.0000
  C   C22       1.0  0.21901  0.4653500000000001  0.9114700000000002  1.0000
  C   C23       1.0  0.26032  0.51829  0.91003  1.0000
  C   C24       1.0  0.2235  0.54664  0.8751500000000002  1.0000
  C   C25       1.0  0.14748000000000003  0.52246  0.8423700000000002  1.0000
  C   C26       1.0  0.3433  0.5429799999999999  0.94333  1.0000
  C   C27       1.0  0.54142  0.7309500000000001  0.91245  1.0000
  C   C28       1.0  0.44120999999999994  0.75818  0.9576200000000002  1.0000
  C   C29       1.0  0.46119999999999994  0.7996699999999999  0.93296  1.0000
  C   C30       1.0  0.5668699999999999  0.81224  0.8727500000000001  1.0000
  C   C31       1.0  0.64789  0.8118700000000001  0.8731000000000001  1.0000
  C   C32       1.0  0.81848  0.8149399999999999  0.86852  1.0000
  C   C33       1.0  0.07926999999999998  0.24951000000000004  0.62765  1.0000
  C   C34       1.0  0.04501  0.3076  0.6347  1.0000
  C   C35       1.0  0.12527999999999995  0.25643  0.68906  1.0000
  C   C36       1.0  0.13461000000000004  0.23763000000000004  0.5803900000000001  1.0000
  C   C37       1.0  0.0106  0.1956  0.60819  1.0000
  C   C38       1.0  0.23773  0.3205700000000001  0.7618100000000001  1.0000
  C   C39       1.0  0.22786  0.2884  0.79934  1.0000
  C   C40       1.0  0.28426  0.30231  0.85095  1.0000
  C   C41       1.0  0.35062  0.34782  0.86592  1.0000
  C   C42       1.0  0.35837999999999987  0.38114000000000003  0.8290800000000002  1.0000
  C   C43       1.0  0.30252  0.36786000000000013  0.7775700000000001  1.0000
  C   C44       1.0  0.41233  0.3592  0.91915  1.0000
  C   C45       1.0  0.22517000000000004  0.16737000000000005  0.5456800000000002  1.0000
  C   C46       1.0  0.26422  0.12318000000000004  0.5562100000000001  1.0000
  C   C47       1.0  0.32381  0.10204000000000003  0.5239900000000001  1.0000
  C   C48       1.0  0.34403999999999996  0.12343000000000003  0.47962000000000005  1.0000
  C   C49       1.0  0.3040100000000001  0.16706000000000001  0.4690600000000001  1.0000
  C   C50       1.0  0.24538  0.18979  0.50222  1.0000
  C   C51       1.0  0.40485  0.09865  0.44276  1.0000
  C   C52       1.0  0.8936399999999999  0.15555000000000002  0.5305000000000001  1.0000
  C   C53       1.0  0.8578099999999999  0.12066  0.55908  1.0000
  C   C54       1.0  0.781  0.08853  0.53465  1.0000
  C   C55       1.0  0.73969  0.08997000000000001  0.48171000000000014  1.0000
  C   C56       1.0  0.77651  0.12486000000000003  0.4533600000000001  1.0000
  C   C57       1.0  0.85253  0.15763000000000005  0.4775400000000001  1.0000
  C   C58       1.0  0.65671  0.056670000000000005  0.45702  1.0000
  C   C59       1.0  0.4586  0.08755  0.26905  1.0000
  C   C60       1.0  0.5588  0.04238  0.24182  1.0000
  C   C61       1.0  0.5388199999999999  0.06704  0.20033000000000004  1.0000
  C   C62       1.0  0.43314  0.12725  0.18776  1.0000
  C   C63       1.0  0.3521199999999999  0.12689  0.18813  1.0000
  C   C64       1.0  0.18153  0.13148  0.18507  1.0000
  C   C65       1.0  0.07927000000000001  0.62765  0.24951000000000004  1.0000
  C   C66       1.0  0.045009999999999994  0.6347  0.30759  1.0000
  C   C67       1.0  0.12527999999999995  0.68906  0.25643  1.0000
  C   C68       1.0  0.13461  0.58039  0.23763000000000004  1.0000
  C   C69       1.0  0.010599999999999993  0.6082  0.19560000000000002  1.0000
  C   C70       1.0  0.23773  0.76181  0.3205700000000001  1.0000
  C   C71       1.0  0.22786  0.79934  0.2884  1.0000
  C   C72       1.0  0.28426  0.85096  0.30231  1.0000
  C   C73       1.0  0.35062  0.8659200000000001  0.34782  1.0000
  C   C74       1.0  0.35837999999999987  0.8290899999999999  0.38114  1.0000
  C   C75       1.0  0.30252  0.77757  0.36786  1.0000
  C   C76       1.0  0.4123299999999999  0.9191499999999999  0.3592000000000001  1.0000
  C   C77       1.0  0.22517999999999996  0.54568  0.16737  1.0000
  C   C78       1.0  0.26422  0.55621  0.12318  1.0000
  C   C79       1.0  0.32381  0.524  0.10203000000000001  1.0000
  C   C80       1.0  0.34405  0.47962  0.12343  1.0000
  C   C81       1.0  0.3040199999999999  0.4690599999999999  0.16705  1.0000
  C   C82       1.0  0.24538  0.50222  0.18979  1.0000
  C   C83       1.0  0.40485  0.44276  0.09865  1.0000
  C   C84       1.0  0.8936399999999999  0.5305  0.15555000000000002  1.0000
  C   C85       1.0  0.8578099999999999  0.5590900000000001  0.12066000000000003  1.0000
  C   C86       1.0  0.781  0.53465  0.08853  1.0000
  C   C87       1.0  0.73969  0.48171  0.08997000000000001  1.0000
  C   C88       1.0  0.77651  0.45336000000000004  0.12485000000000003  1.0000
  C   C89       1.0  0.8525299999999998  0.4775400000000001  0.15763  1.0000
  C   C90       1.0  0.65671  0.45702  0.05667000000000001  1.0000
  C   C91       1.0  0.4586  0.26905  0.08755  1.0000
  C   C92       1.0  0.5588  0.24182000000000003  0.04238  1.0000
  C   C93       1.0  0.5388199999999999  0.20033  0.06704  1.0000
  C   C94       1.0  0.43314  0.18776  0.12725  1.0000
  C   C95       1.0  0.3521199999999999  0.18813000000000002  0.12689  1.0000
  C   C96       1.0  0.18153  0.18507  0.13148  1.0000
  C   C97       1.0  0.92074  0.75049  0.37235  1.0000
  C   C98       1.0  0.9549999999999998  0.6924099999999999  0.3653000000000001  1.0000
  C   C99       1.0  0.87473  0.7435699999999998  0.31094  1.0000
  C   C100      1.0  0.8654  0.7623699999999999  0.41961000000000004  1.0000
  C   C101      1.0  0.98941  0.8044000000000001  0.39180000000000004  1.0000
  C   C102      1.0  0.76228  0.67943  0.23819  1.0000
  C   C103      1.0  0.7721500000000001  0.7116  0.20066000000000003  1.0000
  C   C104      1.0  0.71575  0.69769  0.14904  1.0000
  C   C105      1.0  0.64939  0.65218  0.13408  1.0000
  C   C106      1.0  0.6416299999999998  0.61886  0.17092  1.0000
  C   C107      1.0  0.69749  0.63214  0.22243  1.0000
  C   C108      1.0  0.58768  0.6408  0.08085  1.0000
  C   C109      1.0  0.7748400000000001  0.83263  0.45432  1.0000
  C   C110      1.0  0.73579  0.87682  0.44379  1.0000
  C   C111      1.0  0.6762  0.89797  0.476  1.0000
  C   C112      1.0  0.65597  0.87657  0.5203800000000001  1.0000
  C   C113      1.0  0.696  0.83295  0.53094  1.0000
  C   C114      1.0  0.7546299999999999  0.81021  0.49778000000000006  1.0000
  C   C115      1.0  0.59516  0.9013499999999999  0.55724  1.0000
  C   C116      1.0  0.10637  0.84446  0.46950000000000003  1.0000
  C   C117      1.0  0.1422  0.87934  0.44091  1.0000
  C   C118      1.0  0.21902  0.91147  0.46535  1.0000
  C   C119      1.0  0.26032  0.9100300000000001  0.51828  1.0000
  C   C120      1.0  0.2235  0.87515  0.54664  1.0000
  C   C121      1.0  0.14747999999999997  0.8423699999999998  0.52246  1.0000
  C   C122      1.0  0.34330000000000005  0.9433300000000001  0.54298  1.0000
  C   C123      1.0  0.5414200000000001  0.9124500000000001  0.7309500000000002  1.0000
  C   C124      1.0  0.44120999999999994  0.95762  0.7581800000000001  1.0000
  C   C125      1.0  0.4612  0.9329600000000001  0.7996700000000001  1.0000
  C   C126      1.0  0.5668699999999999  0.87275  0.81224  1.0000
  C   C127      1.0  0.64789  0.87311  0.81187  1.0000
  C   C128      1.0  0.81848  0.86852  0.81493  1.0000
  C   C129      1.0  0.687  0.84158  0.8415800000000002  1.0000
  C   C130      1.0  0.52547  0.84165  0.84165  1.0000
  C   C131      1.0  0.31301000000000007  0.15842  0.15842  1.0000
  C   C132      1.0  0.47454  0.15835  0.15835000000000002  1.0000
  N   N1        1.0  0.49130999999999997  0.7157700000000002  0.9444000000000001  1.0000
  N   N2        1.0  0.52547  0.7822500000000001  0.9043300000000002  1.0000
  N   N3        1.0  0.8951699999999999  0.82485  0.8590700000000001  1.0000
  N   N4        1.0  0.50871  0.05560000000000002  0.28423  1.0000
  N   N5        1.0  0.47454  0.09567  0.21775  1.0000
  N   N6        1.0  0.10484  0.14093  0.17515  1.0000
  N   N7        1.0  0.50871  0.28423  0.05559000000000001  1.0000
  N   N8        1.0  0.47454  0.21775  0.09567000000000002  1.0000
  N   N9        1.0  0.10484  0.17515  0.14093000000000003  1.0000
  N   N10       1.0  0.49130999999999997  0.94441  0.71577  1.0000
  N   N11       1.0  0.52547  0.9043299999999999  0.78225  1.0000
  N   N12       1.0  0.8951699999999998  0.8590699999999999  0.82485  1.0000
  N   N13       1.0  0.76846  0.84158  0.8415800000000002  1.0000
  N   N14       1.0  0.23155  0.15842  0.15842  1.0000
  O   O1        1.0  0.8127299999999998  0.29128  0.69148  1.0000
  O   O2        1.0  0.83238  0.41991999999999996  0.81475  1.0000
  O   O3        1.0  0.031480000000000036  0.44965  0.8107100000000002  1.0000
  O   O4        1.0  0.5976  0.05045000000000007  0.6742800000000001  1.0000
  O   O5        1.0  0.5265  0.06791000000000001  0.59988  1.0000
  O   O6        1.0  0.5475299999999999  0.5387399999999999  0.9312100000000001  1.0000
  O   O7        1.0  0.59064  0.60644  0.8940500000000001  1.0000
  O   O8        1.0  0.37573  0.5113700000000001  0.9683700000000002  1.0000
  O   O9        1.0  0.37428  0.59421  0.94344  1.0000
  O   O10       1.0  0.18728  0.30852000000000007  0.7087200000000001  1.0000
  O   O11       1.0  0.16763  0.18524999999999997  0.58008  1.0000
  O   O12       1.0  0.96853  0.18929999999999997  0.55035  1.0000
  O   O13       1.0  0.40241000000000005  0.3257200000000001  0.9495500000000002  1.0000
  O   O14       1.0  0.47350999999999993  0.40012000000000003  0.9320900000000001  1.0000
  O   O15       1.0  0.45248  0.06879000000000005  0.46126  1.0000
  O   O16       1.0  0.40937  0.10594999999999999  0.39356  1.0000
  O   O17       1.0  0.62428  0.03163000000000002  0.48864000000000013  1.0000
  O   O18       1.0  0.62573  0.05656  0.4058  1.0000
  O   O19       1.0  0.18727999999999997  0.70873  0.30852  1.0000
  O   O20       1.0  0.16764  0.58008  0.18525000000000003  1.0000
  O   O21       1.0  0.96853  0.55035  0.18929000000000004  1.0000
  O   O22       1.0  0.40241  0.94955  0.32572  1.0000
  O   O23       1.0  0.47350999999999993  0.93209  0.40012000000000003  1.0000
  O   O24       1.0  0.45248  0.46126  0.06879  1.0000
  O   O25       1.0  0.40936999999999996  0.39356  0.10595000000000002  1.0000
  O   O26       1.0  0.62428  0.48864  0.03163  1.0000
  O   O27       1.0  0.62573  0.4058  0.05656  1.0000
  O   O28       1.0  0.8127299999999998  0.69149  0.29127  1.0000
  O   O29       1.0  0.83238  0.81475  0.41992000000000007  1.0000
  O   O30       1.0  0.031479999999999994  0.81071  0.44965  1.0000
  O   O31       1.0  0.59761  0.67428  0.05045  1.0000
  O   O32       1.0  0.5265  0.59988  0.06791000000000001  1.0000
  O   O33       1.0  0.54753  0.93121  0.5387400000000001  1.0000
  O   O34       1.0  0.59064  0.8940500000000001  0.60644  1.0000
  O   O35       1.0  0.37572999999999995  0.9683699999999997  0.51136  1.0000
  O   O36       1.0  0.37428  0.94344  0.5942  1.0000
  O   O37       1.0  6.4408323864996906e-18  0.31728  0.68273  1.0000
  O   O38       1.0  1.2881664772999381e-17  0.68273  0.31727  1.0000
