data_image0
_chemical_formula_structural       Cd10H72C108N36Cl8O24
_chemical_formula_sum              "Cd10 H72 C108 N36 Cl8 O24"
_cell_length_a       13.04768
_cell_length_b       17.33045
_cell_length_c       22.28753
_cell_angle_alpha    70.96878
_cell_angle_beta     76.55735
_cell_angle_gamma    73.15533

_space_group_name_H-M_alt    "P 1"
_space_group_IT_number       1

loop_
  _space_group_symop_operation_xyz
  'x, y, z'

loop_
  _atom_site_type_symbol
  _atom_site_label
  _atom_site_symmetry_multiplicity
  _atom_site_fract_x
  _atom_site_fract_y
  _atom_site_fract_z
  _atom_site_occupancy
  Cd  Cd1       1.0  0.17476  0.54674  0.01459  1.0000
  Cd  Cd2       1.0  0.17923999999999993  0.7341900000000002  0.08937  1.0000
  Cd  Cd3       1.0  0.1752599999999999  0.7753300000000002  0.24897  1.0000
  Cd  Cd4       1.0  0.18013000000000007  0.8046199999999999  0.41075  1.0000
  Cd  Cd5       1.0  0.16755999999999993  0.0018599999999999975  0.48461  1.0000
  Cd  Cd6       1.0  0.8252299999999996  0.4532599999999999  0.9854100000000001  1.0000
  Cd  Cd7       1.0  0.82076  0.26581  0.9106299999999999  1.0000
  Cd  Cd8       1.0  0.8247299999999999  0.22467000000000004  0.75103  1.0000
  Cd  Cd9       1.0  0.8198599999999998  0.19538000000000003  0.58925  1.0000
  Cd  Cd10      1.0  0.8324299999999997  0.9981400000000001  0.51539  1.0000
  H   H1        1.0  0.11110999999999994  0.54111  0.61876  1.0000
  H   H2        1.0  0.19927000000000009  0.77342  0.57051  1.0000
  H   H3        1.0  0.08765999999999981  0.7682900000000004  0.68018  1.0000
  H   H4        1.0  0.09212999999999992  0.74345  0.79668  1.0000
  H   H5        1.0  0.24843999999999997  0.48485000000000006  0.81362  1.0000
  H   H6        1.0  0.24511000000000002  0.50852  0.69694  1.0000
  H   H7        1.0  0.8906699999999997  0.5693  0.06  1.0000
  H   H8        1.0  0.88704  0.77498  0.12506  1.0000
  H   H9        1.0  0.7178  0.70225  0.20389999999999997  1.0000
  H   H10       1.0  0.5138900000000001  0.74083  0.21778999999999998  1.0000
  H   H11       1.0  0.5247999999999996  0.7291  0.02725  1.0000
  H   H12       1.0  0.7287499999999998  0.69456  0.01109  1.0000
  H   H13       1.0  0.20092000000000002  0.50427  0.16932  1.0000
  H   H14       1.0  0.15300999999999998  0.5688  0.34419  1.0000
  H   H15       1.0  0.23958999999999994  0.4237699999999999  0.38251  1.0000
  H   H16       1.0  0.23147000000000006  0.27514  0.44250999999999996  1.0000
  H   H17       1.0  0.09262999999999998  0.2578000000000001  0.29276  1.0000
  H   H18       1.0  0.09559000000000001  0.40700000000000003  0.23265999999999998  1.0000
  H   H19       1.0  0.16849  0.04139000000000002  0.32883  1.0000
  H   H20       1.0  0.1833199999999999  0.98689  0.15394  1.0000
  H   H21       1.0  0.05356999999999997  0.13630000000000006  0.13998  1.0000
  H   H22       1.0  0.046219999999999956  0.2874200000000001  0.08091  1.0000
  H   H23       1.0  0.28454999999999997  0.28922  0.18404  1.0000
  H   H24       1.0  0.29337999999999986  0.13715  0.24417  1.0000
  H   H25       1.0  0.8807  0.80168  0.27696  1.0000
  H   H26       1.0  0.8828599999999999  0.8274199999999999  0.45986  1.0000
  H   H27       1.0  0.7124499999999999  0.9296  0.43172  1.0000
  H   H28       1.0  0.5090799999999999  0.9586299999999999  0.45274  1.0000
  H   H29       1.0  0.51705  0.77057  0.36441  1.0000
  H   H30       1.0  0.7206699999999999  0.7407900000000001  0.34251  1.0000
  H   H31       1.0  0.11055000000000002  0.019239999999999986  0.89508  1.0000
  H   H32       1.0  0.18585000000000007  0.75474  0.92955  1.0000
  H   H33       1.0  0.04619999999999997  0.016010000000000017  0.80351  1.0000
  H   H34       1.0  0.06796  0.028240000000000008  0.68626  1.0000
  H   H35       1.0  0.30822999999999984  0.7967200000000003  0.71012  1.0000
  H   H36       1.0  0.29213999999999996  0.7844699999999999  0.8270900000000001  1.0000
  H   H37       1.0  0.8888899999999997  0.45889  0.38123  1.0000
  H   H38       1.0  0.8007199999999999  0.2265700000000001  0.42948  1.0000
  H   H39       1.0  0.9123299999999998  0.23171  0.31982  1.0000
  H   H40       1.0  0.9078699999999998  0.25655  0.20332  1.0000
  H   H41       1.0  0.7515499999999999  0.51515  0.18638  1.0000
  H   H42       1.0  0.7548799999999998  0.49148000000000003  0.30306  1.0000
  H   H43       1.0  0.10932000000000001  0.4307  0.94  1.0000
  H   H44       1.0  0.11294999999999993  0.22502000000000005  0.87494  1.0000
  H   H45       1.0  0.28219999999999995  0.29775  0.7961  1.0000
  H   H46       1.0  0.4860999999999997  0.25917  0.78221  1.0000
  H   H47       1.0  0.4751900000000001  0.2709000000000001  0.9727499999999999  1.0000
  H   H48       1.0  0.2712399999999999  0.30544  0.9889100000000001  1.0000
  H   H49       1.0  0.79908  0.49573000000000006  0.83067  1.0000
  H   H50       1.0  0.8469899999999998  0.43119999999999997  0.65581  1.0000
  H   H51       1.0  0.7604000000000001  0.57623  0.61749  1.0000
  H   H52       1.0  0.76852  0.72486  0.55749  1.0000
  H   H53       1.0  0.90736  0.7422000000000003  0.70724  1.0000
  H   H54       1.0  0.9044  0.593  0.76734  1.0000
  H   H55       1.0  0.8314999999999998  0.9586100000000001  0.67117  1.0000
  H   H56       1.0  0.81667  0.013109999999999983  0.84606  1.0000
  H   H57       1.0  0.9464299999999997  0.8637000000000002  0.8600199999999999  1.0000
  H   H58       1.0  0.9537699999999999  0.7125800000000003  0.91909  1.0000
  H   H59       1.0  0.7154399999999997  0.7107800000000003  0.81596  1.0000
  H   H60       1.0  0.7066200000000004  0.8628499999999999  0.75582  1.0000
  H   H61       1.0  0.11929000000000003  0.19832  0.72304  1.0000
  H   H62       1.0  0.11712999999999994  0.1725800000000001  0.54014  1.0000
  H   H63       1.0  0.28754  0.07039999999999998  0.56828  1.0000
  H   H64       1.0  0.49092  0.041370000000000004  0.54726  1.0000
  H   H65       1.0  0.48294000000000004  0.22943  0.63559  1.0000
  H   H66       1.0  0.27933  0.25921  0.65749  1.0000
  H   H67       1.0  0.8894399999999999  0.98076  0.10491999999999999  1.0000
  H   H68       1.0  0.8141399999999999  0.24525999999999998  0.07045  1.0000
  H   H69       1.0  0.9537899999999999  0.98399  0.19649  1.0000
  H   H70       1.0  0.9320299999999999  0.97176  0.31374  1.0000
  H   H71       1.0  0.6917599999999998  0.20328  0.28987  1.0000
  H   H72       1.0  0.70785  0.2155300000000001  0.17291  1.0000
  C   C1        1.0  0.13285999999999998  0.59952  0.59037  1.0000
  C   C2        1.0  0.17696999999999982  0.7197100000000002  0.56612  1.0000
  C   C3        1.0  0.16333999999999987  0.6391400000000002  0.68271  1.0000
  C   C4        1.0  0.12158999999999973  0.7063300000000005  0.70975  1.0000
  C   C5        1.0  0.12462000000000008  0.69238  0.77457  1.0000
  C   C6        1.0  0.16883  0.61254  0.81256  1.0000
  C   C7        1.0  0.21154  0.5460900000000002  0.78437  1.0000
  C   C8        1.0  0.20915  0.5591000000000003  0.71954  1.0000
  C   C9        1.0  0.17085999999999998  0.59878  0.8823800000000002  1.0000
  C   C10       1.0  0.9175899999999998  0.61581  0.07159  1.0000
  C   C11       1.0  0.91487  0.7211900000000002  0.10600999999999998  1.0000
  C   C12       1.0  0.73326  0.6974900000000003  0.10646  1.0000
  C   C13       1.0  0.6751599999999998  0.71001  0.16501  1.0000
  C   C14       1.0  0.5622299999999999  0.7309400000000003  0.17291  1.0000
  C   C15       1.0  0.50835  0.73822  0.123  1.0000
  C   C16       1.0  0.56822  0.72407  0.06505  1.0000
  C   C17       1.0  0.6810999999999998  0.7042400000000002  0.05621000000000001  1.0000
  C   C18       1.0  0.38592999999999983  0.75854  0.13295  1.0000
  C   C19       1.0  0.18733999999999992  0.54083  0.20324000000000003  1.0000
  C   C20       1.0  0.16332  0.5731  0.29361  1.0000
  C   C21       1.0  0.16790999999999995  0.4235100000000002  0.30431  1.0000
  C   C22       1.0  0.20545999999999992  0.3878600000000001  0.36358  1.0000
  C   C23       1.0  0.20132  0.30506999999999995  0.39686  1.0000
  C   C24       1.0  0.16102  0.25800999999999996  0.37102  1.0000
  C   C25       1.0  0.12324999999999994  0.29531  0.31197  1.0000
  C   C26       1.0  0.12525999999999998  0.37827  0.2785  1.0000
  C   C27       1.0  0.1602699999999999  0.16765  0.40532  1.0000
  C   C28       1.0  0.1740699999999999  0.006490000000000006  0.29491  1.0000
  C   C29       1.0  0.17933  0.97972  0.20451999999999998  1.0000
  C   C30       1.0  0.17428999999999997  0.12871  0.19501  1.0000
  C   C31       1.0  0.10577999999999997  0.16934000000000002  0.14848  1.0000
  C   C32       1.0  0.10205000000000002  0.25339  0.11536  1.0000
  C   C33       1.0  0.16570999999999989  0.29662  0.1289  1.0000
  C   C34       1.0  0.23526  0.25447  0.17488  1.0000
  C   C35       1.0  0.24012  0.17028  0.20817  1.0000
  C   C36       1.0  0.15987999999999997  0.38763  0.09397  1.0000
  C   C37       1.0  0.9085700000000001  0.80151  0.31912  1.0000
  C   C38       1.0  0.9106799999999996  0.8160500000000002  0.41271  1.0000
  C   C39       1.0  0.7266399999999997  0.8338300000000001  0.38606000000000007  1.0000
  C   C40       1.0  0.66916  0.89467  0.41773  1.0000
  C   C41       1.0  0.55636  0.9109500000000001  0.42888999999999994  1.0000
  C   C42       1.0  0.5016899999999996  0.8665300000000001  0.40953  1.0000
  C   C43       1.0  0.5609599999999999  0.8053200000000003  0.37816  1.0000
  C   C44       1.0  0.6737899999999998  0.78894  0.36601  1.0000
  C   C45       1.0  0.3795899999999999  0.8842899999999999  0.4225900000000001  1.0000
  C   C46       1.0  0.12854999999999986  0.9527800000000004  0.9197999999999998  1.0000
  C   C47       1.0  0.16849  0.8165500000000001  0.9368899999999999  1.0000
  C   C48       1.0  0.16775999999999994  0.8991500000000003  0.8218899999999999  1.0000
  C   C49       1.0  0.10425000000000004  0.96845  0.783  1.0000
  C   C50       1.0  0.11655999999999996  0.97553  0.7177  1.0000
  C   C51       1.0  0.18998  0.91355  0.69145  1.0000
  C   C52       1.0  0.2524399999999998  0.8445500000000001  0.73122  1.0000
  C   C53       1.0  0.24278999999999992  0.83745  0.7962799999999999  1.0000
  C   C54       1.0  0.20118000000000003  0.92022  0.62126  1.0000
  C   C55       1.0  0.86714  0.40047  0.40963  1.0000
  C   C56       1.0  0.8230199999999998  0.28029000000000015  0.43388000000000004  1.0000
  C   C57       1.0  0.8366499999999999  0.36086000000000007  0.31728  1.0000
  C   C58       1.0  0.8784  0.29367000000000004  0.29025  1.0000
  C   C59       1.0  0.87537  0.30762000000000006  0.22542999999999996  1.0000
  C   C60       1.0  0.8311599999999998  0.38746  0.18744  1.0000
  C   C61       1.0  0.7884599999999997  0.45391000000000015  0.21563  1.0000
  C   C62       1.0  0.79085  0.44089  0.28046  1.0000
  C   C63       1.0  0.8291299999999999  0.40122  0.11762  1.0000
  C   C64       1.0  0.0824  0.38419  0.92841  1.0000
  C   C65       1.0  0.08512999999999993  0.27881000000000006  0.89399  1.0000
  C   C66       1.0  0.26672999999999997  0.30251000000000006  0.8935399999999999  1.0000
  C   C67       1.0  0.32484  0.2899900000000001  0.8349899999999999  1.0000
  C   C68       1.0  0.43775999999999976  0.26906  0.8270900000000001  1.0000
  C   C69       1.0  0.49164999999999975  0.2617800000000002  0.87699  1.0000
  C   C70       1.0  0.43176999999999993  0.27593  0.93495  1.0000
  C   C71       1.0  0.3188899999999999  0.29576  0.94379  1.0000
  C   C72       1.0  0.61406  0.24146  0.86705  1.0000
  C   C73       1.0  0.81265  0.4591700000000001  0.7967599999999999  1.0000
  C   C74       1.0  0.83668  0.42689999999999995  0.70639  1.0000
  C   C75       1.0  0.8320800000000002  0.57649  0.69569  1.0000
  C   C76       1.0  0.79453  0.6121400000000001  0.63642  1.0000
  C   C77       1.0  0.7986699999999999  0.69493  0.60314  1.0000
  C   C78       1.0  0.8389699999999994  0.7419900000000001  0.62898  1.0000
  C   C79       1.0  0.8767399999999999  0.70469  0.68803  1.0000
  C   C80       1.0  0.8747299999999996  0.6217299999999999  0.7215  1.0000
  C   C81       1.0  0.8397199999999996  0.83235  0.59468  1.0000
  C   C82       1.0  0.8259299999999998  0.99351  0.70509  1.0000
  C   C83       1.0  0.82066  0.020280000000000024  0.79547  1.0000
  C   C84       1.0  0.8257000000000001  0.8712899999999999  0.8049799999999999  1.0000
  C   C85       1.0  0.8942100000000001  0.83066  0.85152  1.0000
  C   C86       1.0  0.8979399999999998  0.7466100000000002  0.8846400000000001  1.0000
  C   C87       1.0  0.83428  0.70338  0.8711  1.0000
  C   C88       1.0  0.76473  0.74553  0.82511  1.0000
  C   C89       1.0  0.7598700000000002  0.8297199999999999  0.79183  1.0000
  C   C90       1.0  0.8401199999999998  0.6123700000000001  0.90603  1.0000
  C   C91       1.0  0.09142999999999997  0.19849  0.68088  1.0000
  C   C92       1.0  0.08930999999999999  0.18395  0.58729  1.0000
  C   C93       1.0  0.27335  0.16617  0.61394  1.0000
  C   C94       1.0  0.33082999999999985  0.10532000000000002  0.58227  1.0000
  C   C95       1.0  0.44363  0.08905  0.57111  1.0000
  C   C96       1.0  0.49830999999999975  0.13346999999999998  0.59047  1.0000
  C   C97       1.0  0.43904  0.19468000000000002  0.62184  1.0000
  C   C98       1.0  0.3262000000000002  0.21106  0.63399  1.0000
  C   C99       1.0  0.6203999999999997  0.11571000000000002  0.57741  1.0000
  C   C100      1.0  0.8714399999999998  0.04722  0.0802  1.0000
  C   C101      1.0  0.8314999999999998  0.18345  0.06311  1.0000
  C   C102      1.0  0.8322399999999999  0.10085  0.17811  1.0000
  C   C103      1.0  0.8957499999999998  0.031549999999999995  0.21700000000000003  1.0000
  C   C104      1.0  0.8834299999999999  0.024469999999999995  0.28229  1.0000
  C   C105      1.0  0.81001  0.08645  0.30854  1.0000
  C   C106      1.0  0.74755  0.15544999999999998  0.26878  1.0000
  C   C107      1.0  0.7571999999999999  0.16254  0.20372  1.0000
  C   C108      1.0  0.7988099999999998  0.07978000000000002  0.37874  1.0000
  N   N1        1.0  0.1354699999999999  0.6317100000000002  0.52792  1.0000
  N   N2        1.0  0.16390000000000002  0.7075700000000001  0.51304  1.0000
  N   N3        1.0  0.15855  0.6520900000000001  0.61678  1.0000
  N   N4        1.0  0.018489999999999986  0.62125  0.06585  1.0000
  N   N5        1.0  0.017059999999999863  0.6877000000000002  0.08739  1.0000
  N   N6        1.0  0.84931  0.6778900000000002  0.09694000000000001  1.0000
  N   N7        1.0  0.18450999999999992  0.62158  0.18922  1.0000
  N   N8        1.0  0.16928999999999994  0.6415700000000001  0.24592999999999998  1.0000
  N   N9        1.0  0.17337999999999992  0.5078700000000003  0.26899  1.0000
  N   N10       1.0  0.17825999999999986  0.9097000000000001  0.25128  1.0000
  N   N11       1.0  0.17491999999999974  0.9261900000000003  0.30825  1.0000
  N   N12       1.0  0.17685999999999993  0.042700000000000016  0.22970999999999997  1.0000
  N   N13       1.0  0.011960000000000004  0.79928  0.38395  1.0000
  N   N14       1.0  0.010629999999999933  0.7902100000000002  0.32497  1.0000
  N   N15       1.0  0.84263  0.8173200000000002  0.37351  1.0000
  N   N16       1.0  0.12685000000000007  0.91982  0.9821699999999999  1.0000
  N   N17       1.0  0.1519999999999998  0.8337500000000001  0.99242  1.0000
  N   N18       1.0  0.1549499999999999  0.8904000000000001  0.8889999999999999  1.0000
  N   N19       1.0  0.86452  0.36829  0.47208  1.0000
  N   N20       1.0  0.8360999999999995  0.29243000000000013  0.48695999999999995  1.0000
  N   N21       1.0  0.8414399999999997  0.34790999999999994  0.38322  1.0000
  N   N22       1.0  0.9814999999999999  0.3787499999999999  0.9341500000000001  1.0000
  N   N23       1.0  0.98294  0.3123000000000002  0.91261  1.0000
  N   N24       1.0  0.15067999999999995  0.32211000000000006  0.9030599999999999  1.0000
  N   N25       1.0  0.81549  0.37842000000000003  0.8107799999999998  1.0000
  N   N26       1.0  0.8307000000000001  0.3584300000000001  0.75407  1.0000
  N   N27       1.0  0.8266099999999995  0.4921300000000001  0.73101  1.0000
  N   N28       1.0  0.8217400000000001  0.0903  0.74871  1.0000
  N   N29       1.0  0.82507  0.07380999999999997  0.69174  1.0000
  N   N30       1.0  0.8231299999999996  0.9573000000000002  0.7702899999999999  1.0000
  N   N31       1.0  0.98803  0.20072  0.61605  1.0000
  N   N32       1.0  0.9893599999999999  0.20979  0.67503  1.0000
  N   N33       1.0  0.15735999999999997  0.18267999999999998  0.62649  1.0000
  N   N34       1.0  0.8731499999999998  0.08018000000000003  0.01783  1.0000
  N   N35       1.0  0.84799  0.16625  0.007579999999999999  1.0000
  N   N36       1.0  0.84504  0.1096  0.111  1.0000
  Cl  Cl1       1.0  0.3035599999999999  0.61941  0.03014  1.0000
  Cl  Cl2       1.0  0.042380000000000057  0.83535  0.15871  1.0000
  Cl  Cl3       1.0  0.2784699999999999  0.6960000000000002  0.34786  1.0000
  Cl  Cl4       1.0  0.05408999999999972  0.9152000000000005  0.47024  1.0000
  Cl  Cl5       1.0  0.6964399999999997  0.38059  0.96986  1.0000
  Cl  Cl6       1.0  0.9576099999999999  0.16465  0.84129  1.0000
  Cl  Cl7       1.0  0.7215199999999998  0.30400000000000016  0.65213  1.0000
  Cl  Cl8       1.0  0.9458999999999997  0.08480000000000001  0.52976  1.0000
  O   O1        1.0  0.20241000000000006  0.52258  0.9160899999999998  1.0000
  O   O2        1.0  0.14134999999999986  0.6607000000000003  0.90577  1.0000
  O   O3        1.0  0.3425299999999999  0.7578800000000002  0.08775  1.0000
  O   O4        1.0  0.33881999999999995  0.7738700000000002  0.18588  1.0000
  O   O5        1.0  0.19160999999999997  0.13790999999999998  0.4605  1.0000
  O   O6        1.0  0.13020999999999996  0.12529  0.37869  1.0000
  O   O7        1.0  0.21437999999999996  0.42641  0.10987999999999999  1.0000
  O   O8        1.0  0.1026  0.42199  0.048760000000000005  1.0000
  O   O9        1.0  0.3378599999999999  0.8272500000000003  0.42149999999999993  1.0000
  O   O10       1.0  0.3318899999999999  0.9552300000000002  0.43282  1.0000
  O   O11       1.0  0.23671999999999993  0.8550500000000001  0.60279  1.0000
  O   O12       1.0  0.17181999999999992  0.9956500000000001  0.58526  1.0000
  O   O13       1.0  0.7975799999999996  0.47742000000000023  0.08391  1.0000
  O   O14       1.0  0.85864  0.3393  0.09423  1.0000
  O   O15       1.0  0.6574699999999997  0.24211999999999997  0.9122500000000001  1.0000
  O   O16       1.0  0.6611699999999995  0.22613000000000008  0.8141199999999998  1.0000
  O   O17       1.0  0.80838  0.86209  0.5395  1.0000
  O   O18       1.0  0.8697899999999996  0.8747100000000001  0.62131  1.0000
  O   O19       1.0  0.7856099999999996  0.57359  0.89012  1.0000
  O   O20       1.0  0.8973899999999997  0.5780100000000001  0.95124  1.0000
  O   O21       1.0  0.6621299999999998  0.17275  0.5785  1.0000
  O   O22       1.0  0.6681  0.04477000000000002  0.56718  1.0000
  O   O23       1.0  0.76327  0.14495  0.39721  1.0000
  O   O24       1.0  0.82818  0.00435  0.41474  1.0000
