data_image0
_chemical_formula_structural       Co8H64C136O32F48
_chemical_formula_sum              "Co8 H64 C136 O32 F48"
_cell_length_a       10.62816
_cell_length_b       20.72043
_cell_length_c       20.75933
_cell_angle_alpha    86.22593
_cell_angle_beta     75.22545
_cell_angle_gamma    75.36157

_symmetry_space_group_name_H-M    'P 1'
_symmetry_Int_Tables_number       1

loop_
  _symmetry_equiv_pos_as_xyz
  'x,y,z'

loop_
  _atom_site_type_symbol
  _atom_site_label
  _atom_site_symmetry_multiplicity
  _atom_site_fract_x
  _atom_site_fract_y
  _atom_site_fract_z
  _atom_site_occupancy
  Co  Co1       1.0  0.7394800000000002  0.30841  0.22679  1.0000
  Co  Co2       1.0  0.45355999999999996  0.77241  0.8080800000000001  1.0000
  Co  Co3       1.0  0.03394999999999986  0.7273800000000002  0.69193  1.0000
  Co  Co4       1.0  0.27328000000000013  0.19135  0.2725  1.0000
  Co  Co5       1.0  0.54645  0.22759000000000001  0.19192  1.0000
  Co  Co6       1.0  0.7267300000000002  0.80866  0.7275  1.0000
  Co  Co7       1.0  0.26053  0.69159  0.77321  1.0000
  Co  Co8       1.0  0.96606  0.27262  0.30806  1.0000
  H   H1        1.0  0.7875800000000001  0.08432  0.19776  1.0000
  H   H2        1.0  0.7388300000000001  0.87164  0.8649400000000002  1.0000
  H   H3        1.0  0.35778  0.0011300000000000001  0.20874000000000004  1.0000
  H   H4        1.0  0.88899  0.13591  0.372  1.0000
  H   H5        1.0  0.21242999999999992  0.9156800000000003  0.8022400000000001  1.0000
  H   H6        1.0  0.9858600000000001  0.30264  0.08392  1.0000
  H   H7        1.0  0.18600999999999995  0.82923  0.38613  1.0000
  H   H8        1.0  0.11101000000000001  0.86409  0.628  1.0000
  H   H9        1.0  0.3851200000000001  0.48605  0.10701  1.0000
  H   H10       1.0  0.814  0.17077000000000003  0.61387  1.0000
  H   H11       1.0  0.12691  0.03474  0.78095  1.0000
  H   H12       1.0  0.66385  0.7813600000000003  0.46486  1.0000
  H   H13       1.0  0.5995500000000001  0.32859000000000005  0.88538  1.0000
  H   H14       1.0  0.60419  0.63442  0.87157  1.0000
  H   H15       1.0  0.014150000000000017  0.69736  0.9160799999999999  1.0000
  H   H16       1.0  0.51228  0.3859600000000001  0.67152  1.0000
  H   H17       1.0  0.40046000000000004  0.6714100000000001  0.11462  1.0000
  H   H18       1.0  0.85965  0.20890000000000006  0.49803  1.0000
  H   H19       1.0  0.7364499999999999  0.03461  0.09834  1.0000
  H   H20       1.0  0.56969  0.49797000000000013  0.29102  1.0000
  H   H21       1.0  0.42785000000000006  0.8852  0.17103  1.0000
  H   H22       1.0  0.7291999999999998  0.9017700000000001  0.53468  1.0000
  H   H23       1.0  0.26118  0.12836  0.13505  1.0000
  H   H24       1.0  0.12891  0.5598  0.0835  1.0000
  H   H25       1.0  0.52438  0.3719100000000001  0.36512  1.0000
  H   H26       1.0  0.9780899999999999  0.01577  0.39383  1.0000
  H   H27       1.0  0.9437899999999999  0.46515  0.71805  1.0000
  H   H28       1.0  0.4340399999999999  0.7087900000000001  0.9985600000000001  1.0000
  H   H29       1.0  0.1294699999999998  0.5349700000000001  0.598  1.0000
  H   H30       1.0  0.64222  0.99887  0.79126  1.0000
  H   H31       1.0  0.4756300000000001  0.62809  0.63488  1.0000
  H   H32       1.0  0.62864  0.89317  0.9849799999999999  1.0000
  H   H33       1.0  0.3716899999999999  0.19712  0.41590000000000005  1.0000
  H   H34       1.0  0.8730899999999998  0.9652600000000001  0.21904999999999997  1.0000
  H   H35       1.0  0.021920000000000054  0.98423  0.60617  1.0000
  H   H36       1.0  0.7733699999999998  0.9407000000000002  0.41719  1.0000
  H   H37       1.0  0.33616  0.21864  0.53514  1.0000
  H   H38       1.0  0.06990999999999997  0.41526  0.30284  1.0000
  H   H39       1.0  0.21122999999999997  0.4172700000000001  0.55949  1.0000
  H   H40       1.0  0.14036000000000007  0.7911  0.50196  1.0000
  H   H41       1.0  0.16487  0.59798  0.96582  1.0000
  H   H42       1.0  0.57216  0.11480000000000001  0.8289700000000001  1.0000
  H   H43       1.0  0.5089600000000001  0.60594  0.51474  1.0000
  H   H44       1.0  0.93009  0.5847400000000001  0.69716  1.0000
  H   H45       1.0  0.19025999999999998  0.08297000000000002  0.94018  1.0000
  H   H46       1.0  0.7887800000000001  0.58273  0.44051  1.0000
  H   H47       1.0  0.8705400000000001  0.46503000000000005  0.402  1.0000
  H   H48       1.0  0.22663000000000003  0.0593  0.5828  1.0000
  H   H49       1.0  0.8097500000000001  0.9170300000000001  0.059820000000000005  1.0000
  H   H50       1.0  0.27081000000000005  0.09823  0.46531999999999996  1.0000
  H   H51       1.0  0.26354999999999995  0.96539  0.90165  1.0000
  H   H52       1.0  0.83514  0.40202  0.03417  1.0000
  H   H53       1.0  0.49104999999999993  0.39407  0.48525999999999997  1.0000
  H   H54       1.0  0.6148899999999999  0.51396  0.8929900000000001  1.0000
  H   H55       1.0  0.37137  0.10683  0.015020000000000002  1.0000
  H   H56       1.0  0.09235999999999994  0.28169  0.96477  1.0000
  H   H57       1.0  0.48773000000000005  0.61404  0.32848  1.0000
  H   H58       1.0  0.8711  0.44020000000000004  0.9164899999999999  1.0000
  H   H59       1.0  0.62832  0.8028800000000001  0.5841  1.0000
  H   H60       1.0  0.05620999999999997  0.53485  0.28195  1.0000
  H   H61       1.0  0.39582  0.36558  0.12843  1.0000
  H   H62       1.0  0.56597  0.29121  0.00143  1.0000
  H   H63       1.0  0.9076399999999999  0.7183100000000001  0.03522  1.0000
  H   H64       1.0  0.43031999999999965  0.50203  0.70898  1.0000
  C   C1        1.0  0.7387099999999999  0.38729  0.8916  1.0000
  C   C2        1.0  0.22262  0.5956  0.68298  1.0000
  C   C3        1.0  0.6032799999999999  0.7597100000000001  0.56829  1.0000
  C   C4        1.0  0.6173500000000001  0.5166  0.32388  1.0000
  C   C5        1.0  0.06995999999999998  0.25979  0.06823  1.0000
  C   C6        1.0  0.8542299999999998  0.9080700000000002  0.4355800000000001  1.0000
  C   C7        1.0  0.6803599999999999  0.31720000000000004  0.0951  1.0000
  C   C8        1.0  0.06711000000000002  0.0184  0.69192  1.0000
  C   C9        1.0  0.7677499999999999  0.7850900000000001  0.1414  1.0000
  C   C10       1.0  0.50283  0.08331000000000001  0.84589  1.0000
  C   C11       1.0  0.09329999999999998  0.18291000000000002  0.40444  1.0000
  C   C12       1.0  0.51709  0.66107  0.59711  1.0000
  C   C13       1.0  0.7532  0.68767  0.765  1.0000
  C   C14       1.0  0.24679999999999994  0.31233  0.235  1.0000
  C   C15       1.0  0.25974  0.43564  0.59214  1.0000
  C   C16       1.0  0.53608  0.64887  0.52964  1.0000
  C   C17       1.0  0.87723  0.0015400000000000004  0.25325  1.0000
  C   C18       1.0  0.6324699999999999  0.32402  0.9827400000000001  1.0000
  C   C19       1.0  0.31529  0.4708300000000001  0.1497  1.0000
  C   C20       1.0  0.8465700000000002  0.10033  0.71831  1.0000
  C   C21       1.0  0.13790999999999987  0.4314000000000001  0.25996  1.0000
  C   C22       1.0  0.51845  0.73494  0.68752  1.0000
  C   C23       1.0  0.93574  0.030510000000000002  0.35108  1.0000
  C   C24       1.0  0.71043  0.9352700000000002  0.09232  1.0000
  C   C25       1.0  0.63194  0.60747  0.38762  1.0000
  C   C26       1.0  0.08551999999999992  0.84609  0.4175  1.0000
  C   C27       1.0  0.50269  0.90467  0.8170900000000001  1.0000
  C   C28       1.0  0.571  0.58252  0.34554  1.0000
  C   C29       1.0  0.13056999999999996  0.24744000000000005  0.00104  1.0000
  C   C30       1.0  0.23447999999999997  0.38317  0.21751000000000004  1.0000
  C   C31       1.0  0.9405800000000001  0.7651  0.81257  1.0000
  C   C32       1.0  0.9067100000000002  0.81709  0.59555  1.0000
  C   C33       1.0  0.45754999999999985  0.9743800000000001  0.8433100000000001  1.0000
  C   C34       1.0  0.22624999999999992  0.5928000000000001  0.18261  1.0000
  C   C35       1.0  0.79348  0.18802  0.26523  1.0000
  C   C36       1.0  0.1959699999999999  0.5924300000000001  0.06516  1.0000
  C   C37       1.0  0.5915699999999999  0.68157  0.40763  1.0000
  C   C38       1.0  0.6520500000000002  0.34553  0.91674  1.0000
  C   C39       1.0  0.3302599999999998  0.9986200000000001  0.8859500000000001  1.0000
  C   C40       1.0  0.7773799999999997  0.4044000000000001  0.31701  1.0000
  C   C41       1.0  0.36807  0.39253000000000005  0.61238  1.0000
  C   C42       1.0  0.7747800000000006  0.8385700000000001  0.90276  1.0000
  C   C43       1.0  0.08932000000000001  0.64152  0.21498000000000003  1.0000
  C   C44       1.0  0.20652999999999994  0.81198  0.73477  1.0000
  C   C45       1.0  0.3967199999999999  0.24029000000000003  0.43171000000000004  1.0000
  C   C46       1.0  0.6993  0.34339  0.02546  1.0000
  C   C47       1.0  0.91069  0.35848  0.78502  1.0000
  C   C48       1.0  0.32023  0.18236000000000002  0.90776  1.0000
  C   C49       1.0  0.28650000000000003  0.14953  0.02982  1.0000
  C   C50       1.0  0.7135099999999999  0.8504700000000001  0.9701800000000002  1.0000
  C   C51       1.0  0.21557000000000007  0.61391  0.999  1.0000
  C   C52       1.0  0.9328999999999998  0.9816000000000001  0.30808  1.0000
  C   C53       1.0  0.6691199999999994  0.3977100000000001  0.78038  1.0000
  C   C54       1.0  0.17119000000000004  0.11384  0.49842  1.0000
  C   C55       1.0  0.34796  0.65447  0.08326  1.0000
  C   C56       1.0  0.45653999999999995  0.98264  0.17586  1.0000
  C   C57       1.0  0.6249800000000002  0.89184  0.11226  1.0000
  C   C58       1.0  0.22053  0.51933  0.19288  1.0000
  C   C59       1.0  0.69552  0.71484  0.35857  1.0000
  C   C60       1.0  0.22523  0.16143000000000002  0.09724  1.0000
  C   C61       1.0  0.7402700000000001  0.56435  0.40785999999999994  1.0000
  C   C62       1.0  0.54245  0.025620000000000004  0.15668  1.0000
  C   C63       1.0  0.4514  0.28267  0.38319  1.0000
  C   C64       1.0  0.75932  0.80736  0.019  1.0000
  C   C65       1.0  0.4829199999999997  0.33893  0.40289  1.0000
  C   C66       1.0  0.49732  0.09533000000000001  0.18291  1.0000
  C   C67       1.0  0.13076  0.49881  0.24767  1.0000
  C   C68       1.0  0.91449  0.15391  0.5825  1.0000
  C   C69       1.0  0.5486099999999998  0.71733  0.6168  1.0000
  C   C70       1.0  0.05942000000000001  0.2349  0.18742  1.0000
  C   C71       1.0  0.30448000000000014  0.2851600000000001  0.64142  1.0000
  C   C72       1.0  0.17105999999999996  0.9312700000000002  0.75931  1.0000
  C   C73       1.0  0.82895  0.06873  0.24069  1.0000
  C   C74       1.0  0.7869100000000001  0.49828  0.38615  1.0000
  C   C75       1.0  0.9473700000000003  0.85939  0.28534  1.0000
  C   C76       1.0  0.68471  0.52918  0.8503  1.0000
  C   C77       1.0  0.33089  0.6022900000000001  0.21961  1.0000
  C   C78       1.0  0.28956999999999994  0.06473  0.90768  1.0000
  C   C79       1.0  0.77947  0.48067000000000004  0.8071200000000001  1.0000
  C   C80       1.0  0.72655  0.47394000000000003  0.34332  1.0000
  C   C81       1.0  0.0025499999999999434  0.9084100000000002  0.31852  1.0000
  C   C82       1.0  0.66975  0.00138  0.11405  1.0000
  C   C83       1.0  0.06025999999999997  0.82413  0.48334  1.0000
  C   C84       1.0  0.32192000000000004  0.40319000000000005  0.1615  1.0000
  C   C85       1.0  0.06426000000000005  0.96949  0.64891  1.0000
  C   C86       1.0  0.6797799999999999  0.8176400000000001  0.09224  1.0000
  C   C87       1.0  0.83468  0.11739  0.28295  1.0000
  C   C88       1.0  0.9316200000000001  0.8433700000000001  0.52596  1.0000
  C   C89       1.0  0.99745  0.09159  0.68148  1.0000
  C   C90       1.0  0.40844000000000014  0.31843  0.59236  1.0000
  C   C91       1.0  0.2613  0.61272  0.1084  1.0000
  C   C92       1.0  0.4290099999999999  0.41748  0.65446  1.0000
  C   C93       1.0  0.38266  0.4834  0.67612  1.0000
  C   C94       1.0  0.88619  0.09796  0.33901  1.0000
  C   C95       1.0  0.78444  0.38609  0.001  1.0000
  C   C96       1.0  0.54347  0.01736  0.8241399999999999  1.0000
  C   C97       1.0  0.3675399999999998  0.6759800000000001  0.01726  1.0000
  C   C98       1.0  0.98284  0.8881300000000001  0.39251  1.0000
  C   C99       1.0  0.67808  0.5968100000000001  0.83849  1.0000
  C   C100      1.0  0.8821000000000002  0.78257  0.88322  1.0000
  C   C101      1.0  0.3007099999999999  0.6566100000000001  0.97454  1.0000
  C   C102      1.0  0.27346  0.52606  0.65668  1.0000
  C   C103      1.0  0.15344000000000005  0.89967  0.28169  1.0000
  C   C104      1.0  0.55144  0.28239  0.60066  1.0000
  C   C105      1.0  0.7655200000000003  0.6168400000000002  0.78248  1.0000
  C   C106      1.0  0.44856  0.71761  0.39934  1.0000
  C   C107      1.0  0.8621000000000001  0.5686  0.74004  1.0000
  C   C108      1.0  0.5657600000000002  0.78054  0.10131  1.0000
  C   C109      1.0  0.14578000000000005  0.09193000000000001  0.56441  1.0000
  C   C110      1.0  0.80404  0.40757  0.9348400000000001  1.0000
  C   C111      1.0  0.23226000000000002  0.21491  0.8586  1.0000
  C   C112      1.0  0.8694399999999997  0.7525600000000002  0.99896  1.0000
  C   C113      1.0  0.11380999999999995  0.9020500000000001  0.66099  1.0000
  C   C114      1.0  0.4342499999999999  0.21946  0.8986800000000001  1.0000
  C   C115      1.0  0.9300499999999999  0.74022  0.93177  1.0000
  C   C116      1.0  0.24068999999999988  0.19264  0.981  1.0000
  C   C117      1.0  0.37502999999999986  0.10816000000000002  0.8877400000000001  1.0000
  C   C118      1.0  0.37682000000000004  0.25294  0.49895  1.0000
  C   C119      1.0  0.2131  0.5017200000000002  0.61385  1.0000
  C   C120      1.0  0.8692399999999998  0.5011900000000001  0.75233  1.0000
  C   C121      1.0  0.49717  0.9166900000000001  0.15411  1.0000
  C   C122      1.0  0.7737599999999998  0.4072  0.81739  1.0000
  C   C123      1.0  0.41195000000000004  0.30801  0.51912  1.0000
  C   C124      1.0  0.46392  0.35113000000000005  0.47036  1.0000
  C   C125      1.0  0.06838999999999999  0.15663000000000002  0.47403000000000006  1.0000
  C   C126      1.0  0.48156000000000004  0.26506  0.31248  1.0000
  C   C127      1.0  0.82881  0.88616  0.50158  1.0000
  C   C128      1.0  0.052639999999999985  0.14061  0.71466  1.0000
  C   C129      1.0  0.6231799999999998  0.74706  0.50104  1.0000
  C   C130      1.0  0.93974  0.17587  0.51665  1.0000
  C   C131      1.0  0.1227800000000001  0.99846  0.74675  1.0000
  C   C132      1.0  0.11790999999999999  0.21743  0.11678  1.0000
  C   C133      1.0  0.31964000000000004  0.6828  0.9049000000000001  1.0000
  C   C134      1.0  0.16532000000000013  0.8826100000000001  0.71705  1.0000
  C   C135      1.0  0.5880599999999999  0.69199  0.48088  1.0000
  C   C136      1.0  0.01717  0.11187  0.60749  1.0000
  O   O1        1.0  0.4621700000000001  0.21046  0.29531  1.0000
  O   O2        1.0  0.79676  0.23528000000000002  0.30198  1.0000
  O   O3        1.0  0.4683699999999999  0.69776  0.73443  1.0000
  O   O4        1.0  0.7899200000000001  0.83746  0.63457  1.0000
  O   O5        1.0  0.60607  0.27587000000000006  0.11077  1.0000
  O   O6        1.0  0.28114  0.61104  0.72435  1.0000
  O   O7        1.0  0.7565900000000001  0.20484  0.21078  1.0000
  O   O8        1.0  0.20325  0.76472  0.69802  1.0000
  O   O9        1.0  0.57517  0.13462  0.16269  1.0000
  O   O10       1.0  0.33296000000000003  0.26542  0.19778  1.0000
  O   O11       1.0  0.73843  0.33748  0.13406  1.0000
  O   O12       1.0  0.53784  0.78954  0.70468  1.0000
  O   O13       1.0  0.39393999999999973  0.7241400000000001  0.8892300000000001  1.0000
  O   O14       1.0  0.6670500000000001  0.73458  0.80222  1.0000
  O   O15       1.0  0.7188699999999999  0.38896  0.27565  1.0000
  O   O16       1.0  0.26158  0.66252  0.86594  1.0000
  O   O17       1.0  0.8264499999999996  0.70487  0.71034  1.0000
  O   O18       1.0  0.38197999999999993  0.11069000000000001  0.22408  1.0000
  O   O19       1.0  0.21009000000000017  0.16254  0.36543  1.0000
  O   O20       1.0  0.87418  0.36538  0.33725  1.0000
  O   O21       1.0  0.09943000000000002  0.19781000000000004  0.23440000000000003  1.0000
  O   O22       1.0  0.17355999999999994  0.29513  0.28966  1.0000
  O   O23       1.0  0.24342000000000005  0.79516  0.78922  1.0000
  O   O24       1.0  0.12581999999999993  0.63462  0.66275  1.0000
  O   O25       1.0  0.006249999999999988  0.7757  0.61107  1.0000
  O   O26       1.0  0.53164  0.30224  0.26556  1.0000
  O   O27       1.0  0.96854  0.28932  0.20455000000000004  1.0000
  O   O28       1.0  0.9005800000000003  0.8021900000000001  0.7656  1.0000
  O   O29       1.0  0.99376  0.2243  0.38893  1.0000
  O   O30       1.0  0.61803  0.8893100000000002  0.77592  1.0000
  O   O31       1.0  0.03146  0.71068  0.79545  1.0000
  O   O32       1.0  0.4248400000000001  0.86538  0.8373  1.0000
  F   F1        1.0  0.9876700000000005  0.8602  0.21741999999999997  1.0000
  F   F2        1.0  0.3126  0.57482  0.28198  1.0000
  F   F3        1.0  0.50531  0.77262  0.16638  1.0000
  F   F4        1.0  0.44363000000000014  0.72731  0.33435  1.0000
  F   F5        1.0  0.8139799999999999  0.69799  0.37656  1.0000
  F   F6        1.0  0.46875999999999995  0.8147900000000001  0.0712  1.0000
  F   F7        1.0  0.79404  0.7172200000000001  0.14272  1.0000
  F   F8        1.0  0.11233999999999997  0.19796000000000002  0.87644  1.0000
  F   F9        1.0  0.21964999999999996  0.8341900000000001  0.27262  1.0000
  F   F10       1.0  0.18884999999999996  0.1234  0.69785  1.0000
  F   F11       1.0  0.9128399999999999  0.29503  0.8056  1.0000
  F   F12       1.0  0.35647999999999996  0.6821600000000001  0.42869000000000007  1.0000
  F   F13       1.0  0.64353  0.31784  0.57131  1.0000
  F   F14       1.0  0.34403  0.21726  0.64264  1.0000
  F   F15       1.0  0.9872899999999999  0.62351  0.19807  1.0000
  F   F16       1.0  0.88767  0.8020400000000001  0.12356  1.0000
  F   F17       1.0  0.4058500000000001  0.7790600000000001  0.4285  1.0000
  F   F18       1.0  0.4946999999999999  0.22738  0.83361  1.0000
  F   F19       1.0  0.59416  0.22094000000000005  0.57149  1.0000
  F   F20       1.0  0.7803600000000002  0.16581  0.72738  1.0000
  F   F21       1.0  0.6741699999999998  0.332  0.77271  1.0000
  F   F22       1.0  0.7191  0.69444  0.29512  1.0000
  F   F23       1.0  0.6874099999999999  0.42519  0.71802  1.0000
  F   F24       1.0  0.012339999999999945  0.13980000000000004  0.78258  1.0000
  F   F25       1.0  0.012719999999999905  0.37649000000000005  0.8019300000000001  1.0000
  F   F26       1.0  0.2809  0.30556  0.70487  1.0000
  F   F27       1.0  0.012600000000000031  0.20449  0.69477  1.0000
  F   F28       1.0  0.29353  0.19442  0.79523  1.0000
  F   F29       1.0  0.81115  0.8766000000000002  0.30214  1.0000
  F   F30       1.0  0.4570699999999999  0.57153  0.18517  1.0000
  F   F31       1.0  0.32584000000000013  0.668  0.22728  1.0000
  F   F32       1.0  0.8313199999999998  0.07141  0.77968  1.0000
  F   F33       1.0  0.55638  0.27269  0.66565  1.0000
  F   F34       1.0  0.9874099999999999  0.79551  0.30523  1.0000
  F   F35       1.0  0.38775999999999994  0.28204  0.9254900000000001  1.0000
  F   F36       1.0  0.54294  0.42847000000000013  0.81483  1.0000
  F   F37       1.0  0.70648  0.80558  0.20477  1.0000
  F   F38       1.0  0.1686799999999999  0.92859  0.22032  1.0000
  F   F39       1.0  0.65598  0.78274  0.35736  1.0000
  F   F40       1.0  0.7811900000000002  0.07129000000000002  0.68459  1.0000
  F   F41       1.0  0.5312500000000001  0.18521  0.92879  1.0000
  F   F42       1.0  0.93781  0.3573  0.71722  1.0000
  F   F43       1.0  0.06218999999999998  0.6427  0.28277  1.0000
  F   F44       1.0  0.61225  0.71796  0.07451  1.0000
  F   F45       1.0  0.21880999999999998  0.92871  0.31541  1.0000
  F   F46       1.0  0.08716999999999991  0.7049700000000001  0.19439  1.0000
  F   F47       1.0  0.18602999999999997  0.30201  0.62344  1.0000
  F   F48       1.0  0.20597  0.28278  0.85728  1.0000
