data_image0
_chemical_formula_structural       Co8H112C144N16O32
_chemical_formula_sum              "Co8 H112 C144 N16 O32"
_cell_length_a       13.65187
_cell_length_b       14.09315
_cell_length_c       21.27661
_cell_angle_alpha    90.18093
_cell_angle_beta     89.83930000000001
_cell_angle_gamma    90.01039

_symmetry_space_group_name_H-M    'P 1'
_symmetry_Int_Tables_number       1

loop_
  _symmetry_equiv_pos_as_xyz
  'x,y,z'

loop_
  _atom_site_type_symbol
  _atom_site_label
  _atom_site_symmetry_multiplicity
  _atom_site_fract_x
  _atom_site_fract_y
  _atom_site_fract_z
  _atom_site_occupancy
  Co  Co1       1.0  0.53133  0.89677  0.56011  1.0000
  Co  Co2       1.0  0.46790000000000004  0.39701  0.9400099999999999  1.0000
  Co  Co3       1.0  0.4687200000000001  0.10342  0.43956999999999996  1.0000
  Co  Co4       1.0  0.5328  0.6028  0.05974  1.0000
  Co  Co5       1.0  0.96624  0.10284000000000001  0.05959  1.0000
  Co  Co6       1.0  0.03446  0.60309  0.43950999999999996  1.0000
  Co  Co7       1.0  0.03364  0.89706  0.94008  1.0000
  Co  Co8       1.0  0.96863  0.39658  0.56031  1.0000
  H   H1        1.0  0.36468  0.9666200000000003  0.6403299999999998  1.0000
  H   H2        1.0  0.18326  0.9726700000000003  0.64016  1.0000
  H   H3        1.0  0.19081  0.82563  0.46154  1.0000
  H   H4        1.0  0.37259  0.8247900000000002  0.46984  1.0000
  H   H5        1.0  0.67636  0.9652800000000002  0.6552  1.0000
  H   H6        1.0  0.85698  0.9854500000000003  0.66836  1.0000
  H   H7        1.0  0.8921600000000002  0.8585000000000003  0.48399999999999993  1.0000
  H   H8        1.0  0.71142  0.8470100000000003  0.47887  1.0000
  H   H9        1.0  0.039009999999999996  0.86103  0.50119  1.0000
  H   H10       1.0  0.02179  0.9656000000000002  0.62848  1.0000
  H   H11       1.0  0.4927  0.61998  0.67326  1.0000
  H   H12       1.0  0.54595  0.7855100000000003  0.76166  1.0000
  H   H13       1.0  0.55965  0.74177  0.8747699999999998  1.0000
  H   H14       1.0  0.48929  0.5753400000000002  0.7918  1.0000
  H   H15       1.0  0.63481  0.4650000000000001  0.85925  1.0000
  H   H16       1.0  0.81621  0.4713000000000001  0.85979  1.0000
  H   H17       1.0  0.80787  0.32539  0.03822  1.0000
  H   H18       1.0  0.62629  0.3240900000000001  0.029429999999999998  1.0000
  H   H19       1.0  0.32267  0.46601  0.84513  1.0000
  H   H20       1.0  0.14198  0.4851700000000001  0.8320799999999999  1.0000
  H   H21       1.0  0.10742  0.35751000000000005  0.01575  1.0000
  H   H22       1.0  0.28825  0.34721000000000013  0.02091  1.0000
  H   H23       1.0  0.9600600000000002  0.36145  0.9991  1.0000
  H   H24       1.0  0.97742  0.46461000000000013  0.87176  1.0000
  H   H25       1.0  0.5051  0.11943  0.8265199999999999  1.0000
  H   H26       1.0  0.45463  0.28457  0.73784  1.0000
  H   H27       1.0  0.44089  0.24184000000000005  0.6258399999999998  1.0000
  H   H28       1.0  0.51093  0.07415  0.70723  1.0000
  H   H29       1.0  0.6355100000000001  0.03484  0.35905  1.0000
  H   H30       1.0  0.8169700000000002  0.028870000000000007  0.35935  1.0000
  H   H31       1.0  0.8089200000000001  0.17408000000000007  0.53861  1.0000
  H   H32       1.0  0.62724  0.1752  0.53004  1.0000
  H   H33       1.0  0.32351  0.03463  0.3447  1.0000
  H   H34       1.0  0.14285  0.01458  0.33172  1.0000
  H   H35       1.0  0.10811  0.14231  0.5159  1.0000
  H   H36       1.0  0.28888  0.15341000000000002  0.52091  1.0000
  H   H37       1.0  0.96097  0.13891000000000003  0.49898999999999993  1.0000
  H   H38       1.0  0.9782400000000001  0.034570000000000004  0.37165  1.0000
  H   H39       1.0  0.5076  0.38007  0.32649  1.0000
  H   H40       1.0  0.45429  0.21545  0.23735  1.0000
  H   H41       1.0  0.44139000000000006  0.25855  0.12564  1.0000
  H   H42       1.0  0.5123  0.42557  0.20787  1.0000
  H   H43       1.0  0.36606  0.53363  0.14026  1.0000
  H   H44       1.0  0.18461000000000002  0.52842  0.14017  1.0000
  H   H45       1.0  0.19285000000000002  0.6736400000000002  0.9614999999999999  1.0000
  H   H46       1.0  0.37451  0.67387  0.9697899999999999  1.0000
  H   H47       1.0  0.6777  0.5360200000000002  0.15471  1.0000
  H   H48       1.0  0.85822  0.51536  0.16766  1.0000
  H   H49       1.0  0.8936000000000001  0.64258  0.98389  1.0000
  H   H50       1.0  0.71284  0.65402  0.9787799999999999  1.0000
  H   H51       1.0  0.04079  0.63908  0.00105  1.0000
  H   H52       1.0  0.02288  0.53461  0.12788  1.0000
  H   H53       1.0  0.4929600000000001  0.8801100000000002  0.17355  1.0000
  H   H54       1.0  0.54574  0.71524  0.26196  1.0000
  H   H55       1.0  0.55905  0.75802  0.3743  1.0000
  H   H56       1.0  0.48952  0.92556  0.29267  1.0000
  H   H57       1.0  0.1327  0.03331  0.1404  1.0000
  H   H58       1.0  0.3141  0.028020000000000007  0.14028  1.0000
  H   H59       1.0  0.30756  0.17397  0.9618799999999998  1.0000
  H   H60       1.0  0.12587  0.17462000000000005  0.9703  1.0000
  H   H61       1.0  0.82108  0.034890000000000004  0.15421  1.0000
  H   H62       1.0  0.64041  0.01491  0.16755  1.0000
  H   H63       1.0  0.60622  0.14198000000000005  0.98378  1.0000
  H   H64       1.0  0.78709  0.15293000000000007  0.97832  1.0000
  H   H65       1.0  0.45907  0.13868  0.00111  1.0000
  H   H66       1.0  0.47604000000000013  0.03497  0.12821  1.0000
  H   H67       1.0  0.007170000000000002  0.37958  0.17351  1.0000
  H   H68       1.0  0.95269  0.21534000000000006  0.2621899999999999  1.0000
  H   H69       1.0  0.94103  0.25857  0.37472  1.0000
  H   H70       1.0  0.01234  0.4249900000000001  0.29252  1.0000
  H   H71       1.0  0.86749  0.53394  0.35888999999999993  1.0000
  H   H72       1.0  0.68608  0.52795  0.35942  1.0000
  H   H73       1.0  0.69307  0.67491  0.53804  1.0000
  H   H74       1.0  0.8747  0.67607  0.5292499999999999  1.0000
  H   H75       1.0  0.1796  0.53328  0.34519  1.0000
  H   H76       1.0  0.36034  0.51357  0.332  1.0000
  H   H77       1.0  0.39383  0.6421000000000002  0.51596  1.0000
  H   H78       1.0  0.21294  0.6529100000000002  0.5211299999999999  1.0000
  H   H79       1.0  0.54111  0.63865  0.49892  1.0000
  H   H80       1.0  0.52458  0.53451  0.37150999999999995  1.0000
  H   H81       1.0  0.9951900000000002  0.87967  0.32693  1.0000
  H   H82       1.0  0.04897  0.7158  0.23715  1.0000
  H   H83       1.0  0.06065000000000001  0.75933  0.1254  1.0000
  H   H84       1.0  0.9882  0.9253700000000002  0.20826999999999996  1.0000
  H   H85       1.0  0.86706  0.96668  0.85912  1.0000
  H   H86       1.0  0.68562  0.97205  0.85956  1.0000
  H   H87       1.0  0.69288  0.82615  0.03797  1.0000
  H   H88       1.0  0.87451  0.8252600000000002  0.029119999999999997  1.0000
  H   H89       1.0  0.17919  0.9643400000000001  0.84523  1.0000
  H   H90       1.0  0.35986  0.98455  0.8321399999999999  1.0000
  H   H91       1.0  0.39362  0.8574700000000002  0.01596  1.0000
  H   H92       1.0  0.21273000000000006  0.8464  0.02119  1.0000
  H   H93       1.0  0.54104  0.86123  0.9988199999999999  1.0000
  H   H94       1.0  0.52406  0.9653200000000002  0.8718699999999999  1.0000
  H   H95       1.0  0.99268  0.62018  0.82661  1.0000
  H   H96       1.0  0.0469  0.7844  0.73781  1.0000
  H   H97       1.0  0.05935  0.74163  0.6255999999999999  1.0000
  H   H98       1.0  0.98853  0.57441  0.7073399999999999  1.0000
  H   H99       1.0  0.13435  0.4660900000000001  0.64046  1.0000
  H   H100      1.0  0.31581  0.47227000000000013  0.64041  1.0000
  H   H101      1.0  0.31002  0.32588  0.46153  1.0000
  H   H102      1.0  0.12824  0.32463  0.46984  1.0000
  H   H103      1.0  0.82285  0.46508  0.65536  1.0000
  H   H104      1.0  0.64218  0.4854000000000001  0.66857  1.0000
  H   H105      1.0  0.60827  0.3586000000000001  0.48418  1.0000
  H   H106      1.0  0.78901  0.34704  0.47896999999999995  1.0000
  H   H107      1.0  0.46145  0.36161  0.50121  1.0000
  H   H108      1.0  0.4775300000000001  0.4653700000000001  0.62879  1.0000
  H   H109      1.0  0.007829999999999997  0.11997  0.6729  1.0000
  H   H110      1.0  0.9541100000000001  0.2841900000000001  0.7624599999999998  1.0000
  H   H111      1.0  0.9409000000000002  0.24086000000000005  0.87439  1.0000
  H   H112      1.0  0.012870000000000001  0.07433  0.79175  1.0000
  C   C1        1.0  0.3230700000000001  0.93694  0.60144  1.0000
  C   C2        1.0  0.22159  0.93958  0.6009  1.0000
  C   C3        1.0  0.16998  0.8997  0.54986  1.0000
  C   C4        1.0  0.22691  0.85834  0.50173  1.0000
  C   C5        1.0  0.32818  0.85816  0.50605  1.0000
  C   C6        1.0  0.7274400000000001  0.94304  0.61876  1.0000
  C   C7        1.0  0.82799  0.9537400000000001  0.62553  1.0000
  C   C8        1.0  0.89211  0.9229000000000002  0.57755  1.0000
  C   C9        1.0  0.8481700000000001  0.8837200000000002  0.52344  1.0000
  C   C10       1.0  0.74716  0.8764700000000002  0.5201  1.0000
  C   C11       1.0  0.06431  0.89681  0.5437  1.0000
  C   C12       1.0  0.99746  0.9310100000000002  0.58531  1.0000
  C   C13       1.0  0.52034  0.76508  0.64029  1.0000
  C   C14       1.0  0.51144  0.6913400000000002  0.68892  1.0000
  C   C15       1.0  0.52589  0.7125000000000002  0.75041  1.0000
  C   C16       1.0  0.517  0.60481  0.9145399999999999  1.0000
  C   C17       1.0  0.53294  0.6714200000000002  0.8622499999999998  1.0000
  C   C18       1.0  0.51484  0.6472200000000002  0.80159  1.0000
  C   C19       1.0  0.6762700000000001  0.43572  0.89821  1.0000
  C   C20       1.0  0.77774  0.43848  0.8989499999999999  1.0000
  C   C21       1.0  0.82919  0.39917000000000014  0.9500999999999998  1.0000
  C   C22       1.0  0.77207  0.3579  0.9979799999999999  1.0000
  C   C23       1.0  0.67083  0.35751000000000005  0.9934599999999999  1.0000
  C   C24       1.0  0.27177  0.44348  0.88151  1.0000
  C   C25       1.0  0.17115  0.45362000000000013  0.8747899999999998  1.0000
  C   C26       1.0  0.10715  0.4225000000000001  0.9226399999999999  1.0000
  C   C27       1.0  0.15128  0.38324000000000014  0.9765  1.0000
  C   C28       1.0  0.25235  0.37663000000000013  0.9798499999999999  1.0000
  C   C29       1.0  0.93484  0.3966300000000001  0.9565  1.0000
  C   C30       1.0  0.00177  0.43044  0.91492  1.0000
  C   C31       1.0  0.47793  0.26458  0.85964  1.0000
  C   C32       1.0  0.48717000000000005  0.19077  0.81073  1.0000
  C   C33       1.0  0.47403  0.21151  0.74916  1.0000
  C   C34       1.0  0.48355  0.10639000000000003  0.58382  1.0000
  C   C35       1.0  0.46754  0.17117  0.63733  1.0000
  C   C36       1.0  0.48547  0.1461  0.6977499999999999  1.0000
  C   C37       1.0  0.67706  0.06409  0.39811  1.0000
  C   C38       1.0  0.77854  0.06143000000000001  0.39876  1.0000
  C   C39       1.0  0.8300300000000002  0.10067  0.45007  1.0000
  C   C40       1.0  0.7729800000000001  0.14171000000000003  0.49824  1.0000
  C   C41       1.0  0.67172  0.14204  0.49379  1.0000
  C   C42       1.0  0.27251  0.05699000000000001  0.38115999999999994  1.0000
  C   C43       1.0  0.17194  0.04635  0.3745  1.0000
  C   C44       1.0  0.10794  0.07735  0.42249999999999993  1.0000
  C   C45       1.0  0.15200000000000002  0.11676  0.4765  1.0000
  C   C46       1.0  0.25303  0.12387000000000002  0.47975  1.0000
  C   C47       1.0  0.93569  0.10334  0.4563999999999999  1.0000
  C   C48       1.0  0.00258  0.06918  0.4148  1.0000
  C   C49       1.0  0.47962  0.2349900000000001  0.35924  1.0000
  C   C50       1.0  0.48877000000000004  0.3088100000000001  0.3106499999999999  1.0000
  C   C51       1.0  0.4745700000000001  0.28826  0.24907  1.0000
  C   C52       1.0  0.4850900000000001  0.39383  0.08444999999999998  1.0000
  C   C53       1.0  0.46857  0.32897  0.13752  1.0000
  C   C54       1.0  0.48639  0.35379  0.19806999999999997  1.0000
  C   C55       1.0  0.32457  0.56295  0.10130999999999998  1.0000
  C   C56       1.0  0.22306  0.56084  0.10083999999999999  1.0000
  C   C57       1.0  0.17157  0.6003200000000001  0.04977  1.0000
  C   C58       1.0  0.2287  0.6411200000000001  0.0016999999999999997  1.0000
  C   C59       1.0  0.32997000000000004  0.6408700000000002  0.00595  1.0000
  C   C60       1.0  0.72877  0.55805  0.11829999999999997  1.0000
  C   C61       1.0  0.8293  0.54716  0.12496999999999998  1.0000
  C   C62       1.0  0.89347  0.5778500000000002  0.0771  1.0000
  C   C63       1.0  0.84958  0.61726  0.0232  1.0000
  C   C64       1.0  0.7485500000000002  0.62453  0.019889999999999998  1.0000
  C   C65       1.0  0.06591  0.6033800000000002  0.04349  1.0000
  C   C66       1.0  0.9988000000000001  0.5693700000000003  0.08487  1.0000
  C   C67       1.0  0.52051  0.73498  0.14027  1.0000
  C   C68       1.0  0.51153  0.80882  0.18919999999999998  1.0000
  C   C69       1.0  0.52583  0.78816  0.25068  1.0000
  C   C70       1.0  0.51671  0.8937600000000001  0.41598999999999997  1.0000
  C   C71       1.0  0.53261  0.8286900000000001  0.36258  1.0000
  C   C72       1.0  0.51478  0.8535600000000001  0.30211  1.0000
  C   C73       1.0  0.17448  0.06297  0.10155  1.0000
  C   C74       1.0  0.27601  0.0607  0.10105  1.0000
  C   C75       1.0  0.32795  0.10032  0.05002999999999999  1.0000
  C   C76       1.0  0.2713  0.1414  0.00205  1.0000
  C   C77       1.0  0.17001  0.14138  0.006379999999999999  1.0000
  C   C78       1.0  0.77021  0.05711  0.11792  1.0000
  C   C79       1.0  0.66964  0.04656000000000001  0.1248  1.0000
  C   C80       1.0  0.6057900000000002  0.07746  0.07704  1.0000
  C   C81       1.0  0.6500100000000001  0.11662000000000003  0.023009999999999996  1.0000
  C   C82       1.0  0.75107  0.12360000000000003  0.0195  1.0000
  C   C83       1.0  0.43365000000000004  0.10323  0.04365  1.0000
  C   C84       1.0  0.50042  0.06933  0.08504  1.0000
  C   C85       1.0  0.9775000000000001  0.23500000000000001  0.1403  1.0000
  C   C86       1.0  0.98756  0.30858000000000013  0.18923999999999996  1.0000
  C   C87       1.0  0.97356  0.28803  0.25082  1.0000
  C   C88       1.0  0.98524  0.39362000000000014  0.41616999999999993  1.0000
  C   C89       1.0  0.9684900000000002  0.3288  0.36278  1.0000
  C   C90       1.0  0.9861500000000001  0.35332000000000013  0.30215  1.0000
  C   C91       1.0  0.82579  0.56363  0.39788999999999997  1.0000
  C   C92       1.0  0.72428  0.56093  0.39864  1.0000
  C   C93       1.0  0.6724100000000001  0.60061  0.44983  1.0000
  C   C94       1.0  0.7292  0.6421400000000002  0.49775  1.0000
  C   C95       1.0  0.8305  0.6424900000000002  0.49319  1.0000
  C   C96       1.0  0.23038  0.55593  0.38151999999999997  1.0000
  C   C97       1.0  0.33098000000000005  0.5454700000000001  0.37477  1.0000
  C   C98       1.0  0.39463  0.57684  0.42264  1.0000
  C   C99       1.0  0.35022000000000003  0.61633  0.47664999999999996  1.0000
  C   C100      1.0  0.24916  0.62329  0.4799999999999999  1.0000
  C   C101      1.0  0.56669  0.6031700000000002  0.45627999999999996  1.0000
  C   C102      1.0  0.50004  0.5689500000000002  0.41476  1.0000
  C   C103      1.0  0.024590000000000004  0.7348600000000002  0.3593  1.0000
  C   C104      1.0  0.01449  0.8086600000000002  0.31084  1.0000
  C   C105      1.0  0.02809  0.7883800000000002  0.24912  1.0000
  C   C106      1.0  0.0152  0.8940000000000002  0.08453  1.0000
  C   C107      1.0  0.03265  0.8294  0.13758  1.0000
  C   C108      1.0  0.01499  0.8539100000000002  0.19826999999999997  1.0000
  C   C109      1.0  0.82539  0.9370900000000002  0.89805  1.0000
  C   C110      1.0  0.7238700000000002  0.9394000000000001  0.89874  1.0000
  C   C111      1.0  0.67211  0.8998300000000002  0.9498499999999999  1.0000
  C   C112      1.0  0.72893  0.85873  0.9977199999999999  1.0000
  C   C113      1.0  0.83019  0.8586400000000002  0.9932  1.0000
  C   C114      1.0  0.22994  0.9422600000000001  0.88162  1.0000
  C   C115      1.0  0.33053  0.9529200000000002  0.8748799999999998  1.0000
  C   C116      1.0  0.3942500000000001  0.92221  0.9227499999999998  1.0000
  C   C117      1.0  0.34993  0.88286  0.97669  1.0000
  C   C118      1.0  0.24886  0.8758000000000002  0.98007  1.0000
  C   C119      1.0  0.56643  0.89681  0.9563099999999999  1.0000
  C   C120      1.0  0.49962000000000006  0.93068  0.91493  1.0000
  C   C121      1.0  0.02233  0.7648500000000003  0.85964  1.0000
  C   C122      1.0  0.01219  0.6911700000000002  0.81076  1.0000
  C   C123      1.0  0.02626  0.71163  0.74919  1.0000
  C   C124      1.0  0.016550000000000002  0.60626  0.58385  1.0000
  C   C125      1.0  0.03238  0.67113  0.63731  1.0000
  C   C126      1.0  0.01433  0.64626  0.6978299999999998  1.0000
  C   C127      1.0  0.1764  0.43658000000000013  0.6015699999999999  1.0000
  C   C128      1.0  0.27788  0.43930000000000013  0.60108  1.0000
  C   C129      1.0  0.33001  0.3997000000000001  0.5499799999999999  1.0000
  C   C130      1.0  0.27356  0.3583900000000001  0.50179  1.0000
  C   C131      1.0  0.17226  0.35803  0.50609  1.0000
  C   C132      1.0  0.77204  0.4429400000000001  0.61891  1.0000
  C   C133      1.0  0.67144  0.4537100000000001  0.6257  1.0000
  C   C134      1.0  0.60766  0.4229600000000001  0.57774  1.0000
  C   C135      1.0  0.65199  0.3837900000000001  0.5236  1.0000
  C   C136      1.0  0.75302  0.3764900000000001  0.52023  1.0000
  C   C137      1.0  0.43574  0.39706  0.54383  1.0000
  C   C138      1.0  0.50223  0.43106  0.58552  1.0000
  C   C139      1.0  0.97957  0.26502  0.64052  1.0000
  C   C140      1.0  0.9888700000000001  0.19108000000000006  0.68894  1.0000
  C   C141      1.0  0.97465  0.21149000000000007  0.7505999999999999  1.0000
  C   C142      1.0  0.9848  0.10588  0.91531  1.0000
  C   C143      1.0  0.96841  0.17062000000000005  0.86219  1.0000
  C   C144      1.0  0.9866  0.14600000000000002  0.8015799999999998  1.0000
  N   N1        1.0  0.37731  0.8973200000000002  0.55469  1.0000
  N   N2        1.0  0.68607  0.90451  0.5669  1.0000
  N   N3        1.0  0.62184  0.39651  0.9449  1.0000
  N   N4        1.0  0.31335  0.40529  0.93328  1.0000
  N   N5        1.0  0.6227  0.10326  0.44498  1.0000
  N   N6        1.0  0.314  0.09557  0.43296  1.0000
  N   N7        1.0  0.37899  0.6017  0.05446  1.0000
  N   N8        1.0  0.68742  0.59644  0.06655  1.0000
  N   N9        1.0  0.12050000000000002  0.10205000000000002  0.05482  1.0000
  N   N10       1.0  0.8118600000000001  0.09542  0.06608  1.0000
  N   N11       1.0  0.87993  0.60326  0.44451999999999997  1.0000
  N   N12       1.0  0.18859000000000006  0.59474  0.43328999999999995  1.0000
  N   N13       1.0  0.8795  0.8979500000000002  0.9446999999999998  1.0000
  N   N14       1.0  0.18817  0.9040600000000002  0.93346  1.0000
  N   N15       1.0  0.12264  0.39706  0.55474  1.0000
  N   N16       1.0  0.81379  0.40441  0.56703  1.0000
  O   O1        1.0  0.52899  0.85227  0.65674  1.0000
  O   O2        1.0  0.51863  0.7425700000000002  0.5817699999999999  1.0000
  O   O3        1.0  0.54959  0.62975  0.9684  1.0000
  O   O4        1.0  0.4705400000000001  0.52816  0.9028699999999998  1.0000
  O   O5        1.0  0.47038  0.35197  0.8439799999999998  1.0000
  O   O6        1.0  0.47864  0.24194000000000004  0.9179999999999999  1.0000
  O   O7        1.0  0.45181  0.13398  0.53041  1.0000
  O   O8        1.0  0.52978  0.02914  0.59375  1.0000
  O   O9        1.0  0.47097  0.14771000000000006  0.343  1.0000
  O   O10       1.0  0.48129  0.25762  0.41772  1.0000
  O   O11       1.0  0.45201  0.36653000000000013  0.03118  1.0000
  O   O12       1.0  0.53266  0.47041  0.09479  1.0000
  O   O13       1.0  0.52935  0.64764  0.1559  1.0000
  O   O14       1.0  0.51874  0.7577200000000002  0.08195  1.0000
  O   O15       1.0  0.54828  0.86611  0.46941999999999995  1.0000
  O   O16       1.0  0.47059  0.97106  0.4061099999999999  1.0000
  O   O17       1.0  0.96641  0.14784  0.15587  1.0000
  O   O18       1.0  0.98111  0.25777  0.08203  1.0000
  O   O19       1.0  0.9522300000000001  0.36641000000000007  0.46947999999999995  1.0000
  O   O20       1.0  0.03306  0.47014000000000006  0.40636  1.0000
  O   O21       1.0  0.03361  0.6476800000000003  0.34294  1.0000
  O   O22       1.0  0.02304  0.7574300000000003  0.41780999999999996  1.0000
  O   O23       1.0  0.048040000000000006  0.86647  0.03114  1.0000
  O   O24       1.0  0.96725  0.9704000000000003  0.0948  1.0000
  O   O25       1.0  0.03355  0.85198  0.8440199999999999  1.0000
  O   O26       1.0  0.01883  0.7422200000000001  0.9179499999999999  1.0000
  O   O27       1.0  0.04896  0.63385  0.53047  1.0000
  O   O28       1.0  0.96997  0.52917  0.59375  1.0000
  O   O29       1.0  0.97075  0.35216  0.65699  1.0000
  O   O30       1.0  0.9813700000000001  0.24260000000000007  0.58196  1.0000
  O   O31       1.0  0.95144  0.13346  0.96858  1.0000
  O   O32       1.0  0.03273  0.02943  0.90528  1.0000
