data_image0
_chemical_formula_structural       Ag16H96C96N48
_chemical_formula_sum              "Ag16 H96 C96 N48"
_cell_length_a       11.01696
_cell_length_b       16.46094
_cell_length_c       20.45932
_cell_angle_alpha    74.30432
_cell_angle_beta     105.52947
_cell_angle_gamma    91.03514

_space_group_name_H-M_alt    "P 1"
_space_group_IT_number       1

loop_
  _space_group_symop_operation_xyz
  'x, y, z'

loop_
  _atom_site_type_symbol
  _atom_site_label
  _atom_site_symmetry_multiplicity
  _atom_site_fract_x
  _atom_site_fract_y
  _atom_site_fract_z
  _atom_site_occupancy
  Ag  Ag1       1.0  0.029320000000000006  0.38585  0.36372  1.0000
  Ag  Ag2       1.0  0.62451  0.18414  0.13351  1.0000
  Ag  Ag3       1.0  0.4698599999999999  0.47339  0.6505  1.0000
  Ag  Ag4       1.0  0.88708  0.6053  0.91447  1.0000
  Ag  Ag5       1.0  0.18154  0.9738400000000001  0.65028  1.0000
  Ag  Ag6       1.0  0.02147000000000003  0.10761000000000001  0.90939  1.0000
  Ag  Ag7       1.0  0.33215  0.8839100000000001  0.36454  1.0000
  Ag  Ag8       1.0  0.51542  0.6805  0.14102  1.0000
  Ag  Ag9       1.0  0.8185199999999998  0.02613  0.34967  1.0000
  Ag  Ag10      1.0  0.9784599999999999  0.89239  0.09064999999999997  1.0000
  Ag  Ag11      1.0  0.6678399999999999  0.11608000000000006  0.6354599999999999  1.0000
  Ag  Ag12      1.0  0.48452  0.31956  0.85905  1.0000
  Ag  Ag13      1.0  0.9706599999999999  0.6141299999999998  0.63626  1.0000
  Ag  Ag14      1.0  0.3752699999999998  0.8157999999999996  0.8664299999999999  1.0000
  Ag  Ag15      1.0  0.5303499999999999  0.52667  0.34961999999999993  1.0000
  Ag  Ag16      1.0  0.11277999999999998  0.3947  0.08549  1.0000
  H   H1        1.0  0.0476  0.24400999999999998  0.29898  1.0000
  H   H2        1.0  0.7460499999999998  0.41624  0.26512  1.0000
  H   H3        1.0  0.3405999999999999  0.23816000000000004  0.098  1.0000
  H   H4        1.0  0.6043  0.33611  0.19388  1.0000
  H   H5        1.0  0.13484  0.19088  0.04179  1.0000
  H   H6        1.0  0.31675  0.0005499999999999638  0.99738  1.0000
  H   H7        1.0  0.9065499999999999  0.16591  0.2241  1.0000
  H   H8        1.0  0.52522  0.04633000000000001  0.055549999999999995  1.0000
  H   H9        1.0  0.9345999999999999  0.20854999999999999  0.41478  1.0000
  H   H10       1.0  0.9530699999999999  0.15208000000000002  0.54359  1.0000
  H   H11       1.0  0.32563  0.21241000000000002  0.45903  1.0000
  H   H12       1.0  0.3444999999999999  0.15169999999999997  0.58763  1.0000
  H   H13       1.0  0.21903999999999993  0.5323100000000001  0.3907899999999999  1.0000
  H   H14       1.0  0.72409  0.5472099999999998  0.67832  1.0000
  H   H15       1.0  0.85052  0.62445  0.75761  1.0000
  H   H16       1.0  0.39863  0.5408000000000001  0.48885999999999996  1.0000
  H   H17       1.0  0.45919999999999994  0.5065  0.79604  1.0000
  H   H18       1.0  0.10806000000000007  0.31762  0.52222  1.0000
  H   H19       1.0  0.3682699999999999  0.6779199999999999  0.9751499999999999  1.0000
  H   H20       1.0  0.15935999999999995  0.66603  0.89533  1.0000
  H   H21       1.0  0.023299999999999994  0.55968  0.06993  1.0000
  H   H22       1.0  0.28617  0.3276899999999999  0.62132  1.0000
  H   H23       1.0  0.58683  0.5842  0.87568  1.0000
  H   H24       1.0  0.23269999999999996  0.57281  0.14991  1.0000
  H   H25       1.0  0.17421  0.029479999999999985  0.39013  1.0000
  H   H26       1.0  0.96247  0.05456000000000002  0.67166  1.0000
  H   H27       1.0  0.9139899999999997  0.13108999999999998  0.75023  1.0000
  H   H28       1.0  0.09654999999999998  0.04137000000000001  0.48878  1.0000
  H   H29       1.0  0.33477  0.0034000000000000263  0.79897  1.0000
  H   H30       1.0  0.40714999999999996  0.81711  0.52342  1.0000
  H   H31       1.0  0.6002999999999998  0.17935  0.96579  1.0000
  H   H32       1.0  0.73271  0.16649000000000003  0.8879  1.0000
  H   H33       1.0  0.0361  0.06740000000000002  0.06485  1.0000
  H   H34       1.0  0.33182  0.83054  0.62278  1.0000
  H   H35       1.0  0.28623999999999983  0.08125000000000007  0.8774699999999999  1.0000
  H   H36       1.0  0.90347  0.08141  0.14289  1.0000
  H   H37       1.0  0.49069999999999997  0.71107  0.42559  1.0000
  H   H38       1.0  0.58543  0.64984  0.55524  1.0000
  H   H39       1.0  0.13302999999999998  0.7075199999999998  0.45770999999999995  1.0000
  H   H40       1.0  0.22716999999999984  0.64385  0.58695  1.0000
  H   H41       1.0  0.25121999999999994  0.7394499999999999  0.30216999999999994  1.0000
  H   H42       1.0  0.50919  0.9233599999999998  0.25909  1.0000
  H   H43       1.0  0.77015  0.72855  0.10952  1.0000
  H   H44       1.0  0.58372  0.84274  0.19055999999999998  1.0000
  H   H45       1.0  0.91371  0.68251  0.05072999999999999  1.0000
  H   H46       1.0  0.6685599999999999  0.49889999999999995  9e-05  1.0000
  H   H47       1.0  0.31969  0.66137  0.22901  1.0000
  H   H48       1.0  0.52389  0.54353  0.060849999999999994  1.0000
  H   H49       1.0  0.8258099999999999  0.9704600000000001  0.6099  1.0000
  H   H50       1.0  0.03753000000000001  0.9454299999999999  0.32832  1.0000
  H   H51       1.0  0.08589999999999996  0.8689099999999997  0.24973999999999996  1.0000
  H   H52       1.0  0.9034399999999999  0.95861  0.51122  1.0000
  H   H53       1.0  0.66527  0.99664  0.20105  1.0000
  H   H54       1.0  0.5928  0.1829  0.47657  1.0000
  H   H55       1.0  0.3998  0.82065  0.03429  1.0000
  H   H56       1.0  0.26731  0.83354  0.11215  1.0000
  H   H57       1.0  0.9639599999999998  0.93261  0.93514  1.0000
  H   H58       1.0  0.6681999999999999  0.16945  0.37721999999999994  1.0000
  H   H59       1.0  0.7137499999999999  0.91881  0.12255  1.0000
  H   H60       1.0  0.09661999999999994  0.9185700000000001  0.85713  1.0000
  H   H61       1.0  0.50925  0.28893  0.57438  1.0000
  H   H62       1.0  0.41454999999999986  0.35013000000000005  0.44472999999999996  1.0000
  H   H63       1.0  0.8669799999999998  0.29253000000000007  0.54229  1.0000
  H   H64       1.0  0.77286  0.35617  0.4130499999999999  1.0000
  H   H65       1.0  0.7487699999999999  0.26061  0.69777  1.0000
  H   H66       1.0  0.49080999999999997  0.07656  0.74094  1.0000
  H   H67       1.0  0.22993  0.27141  0.89053  1.0000
  H   H68       1.0  0.4163099999999999  0.15723000000000004  0.8094799999999999  1.0000
  H   H69       1.0  0.08638999999999995  0.31749999999999995  0.9493  1.0000
  H   H70       1.0  0.33141  0.5010899999999999  0.99987  1.0000
  H   H71       1.0  0.68027  0.33866999999999997  0.77095  1.0000
  H   H72       1.0  0.47612  0.4564599999999998  0.93915  1.0000
  H   H73       1.0  0.9524799999999999  0.7559199999999999  0.70105  1.0000
  H   H74       1.0  0.2539  0.5838600000000002  0.73483  1.0000
  H   H75       1.0  0.6594199999999998  0.76187  0.9019899999999998  1.0000
  H   H76       1.0  0.3956799999999999  0.6639400000000001  0.80607  1.0000
  H   H77       1.0  0.8652499999999997  0.8090900000000001  0.9581999999999998  1.0000
  H   H78       1.0  0.6833099999999999  0.9994999999999999  0.00265  1.0000
  H   H79       1.0  0.09342  0.83405  0.77591  1.0000
  H   H80       1.0  0.4748299999999998  0.9536999999999997  0.94446  1.0000
  H   H81       1.0  0.06537999999999997  0.79142  0.58525  1.0000
  H   H82       1.0  0.04695999999999999  0.8479200000000001  0.45644  1.0000
  H   H83       1.0  0.6743699999999999  0.78753  0.5409499999999999  1.0000
  H   H84       1.0  0.65553  0.8483  0.41235  1.0000
  H   H85       1.0  0.78097  0.46778000000000003  0.60913  1.0000
  H   H86       1.0  0.27592  0.4527999999999998  0.3217  1.0000
  H   H87       1.0  0.14933  0.37552  0.24244  1.0000
  H   H88       1.0  0.6013599999999999  0.4592000000000001  0.5111399999999999  1.0000
  H   H89       1.0  0.5408399999999999  0.4934299999999999  0.20393  1.0000
  H   H90       1.0  0.8918  0.6823299999999999  0.47778  1.0000
  H   H91       1.0  0.63174  0.32209  0.024789999999999996  1.0000
  H   H92       1.0  0.84059  0.33396000000000003  0.10462999999999999  1.0000
  H   H93       1.0  0.9767199999999999  0.44033000000000005  0.93008  1.0000
  H   H94       1.0  0.7137299999999999  0.67232  0.37869  1.0000
  H   H95       1.0  0.41317999999999994  0.41568  0.12426  1.0000
  H   H96       1.0  0.76734  0.4272000000000001  0.8500899999999999  1.0000
  C   C1        1.0  0.9497299999999997  0.26631000000000005  0.27282999999999996  1.0000
  C   C2        1.0  0.7827299999999998  0.36096  0.25542  1.0000
  C   C3        1.0  0.33639  0.18499  0.07543  1.0000
  C   C4        1.0  0.70383  0.3164399999999999  0.21550999999999998  1.0000
  C   C5        1.0  0.22171  0.15868  0.04355  1.0000
  C   C6        1.0  0.32187999999999994  0.05413  0.01942  1.0000
  C   C7        1.0  0.8707699999999998  0.22228  0.23252  1.0000
  C   C8        1.0  0.43735  0.07895  0.05159  1.0000
  C   C9        1.0  0.02683999999999999  0.19733  0.45338999999999996  1.0000
  C   C10       1.0  0.03737999999999999  0.16547999999999996  0.52512  1.0000
  C   C11       1.0  0.24142999999999995  0.1985  0.47744  1.0000
  C   C12       1.0  0.2518199999999999  0.16561  0.5493499999999999  1.0000
  C   C13       1.0  0.23381  0.48568999999999984  0.44172  1.0000
  C   C14       1.0  0.6942999999999999  0.55339  0.72329  1.0000
  C   C15       1.0  0.76439  0.5972099999999999  0.76714  1.0000
  C   C16       1.0  0.3337  0.49110999999999994  0.4969799999999999  1.0000
  C   C17       1.0  0.54788  0.53134  0.78808  1.0000
  C   C18       1.0  0.17273999999999995  0.36765  0.51457  1.0000
  C   C19       1.0  0.2913199999999999  0.65147  0.997  1.0000
  C   C20       1.0  0.1748699999999999  0.64541  0.9522099999999999  1.0000
  C   C21       1.0  0.10101  0.5859  0.04908  1.0000
  C   C22       1.0  0.27196999999999993  0.3735200000000001  0.5700299999999999  1.0000
  C   C23       1.0  0.61819  0.57524  0.83193  1.0000
  C   C24       1.0  0.21747999999999998  0.59417  0.093  1.0000
  C   C25       1.0  0.20920999999999998  0.9842499999999996  0.44162  1.0000
  C   C26       1.0  0.034119999999999914  0.057990000000000055  0.7188199999999999  1.0000
  C   C27       1.0  0.007409999999999988  0.10122  0.76228  1.0000
  C   C28       1.0  0.16688  0.99164  0.49706  1.0000
  C   C29       1.0  0.24009999999999992  0.030350000000000033  0.7887299999999999  1.0000
  C   C30       1.0  0.33786  0.8674199999999999  0.51541  1.0000
  C   C31       1.0  0.6980799999999999  0.15439000000000008  0.9886099999999998  1.0000
  C   C32       1.0  0.77166  0.14769000000000004  0.9448399999999999  1.0000
  C   C33       1.0  0.93872  0.0926  0.04303  1.0000
  C   C34       1.0  0.29629000000000005  0.87513  0.57101  1.0000
  C   C35       1.0  0.21322999999999995  0.07414000000000001  0.8321199999999999  1.0000
  C   C36       1.0  0.8644399999999999  0.10111  0.08585  1.0000
  C   C37       1.0  0.43109  0.69725  0.46159999999999995  1.0000
  C   C38       1.0  0.48381999999999986  0.6632  0.53381  1.0000
  C   C39       1.0  0.23470999999999995  0.6944300000000001  0.47898  1.0000
  C   C40       1.0  0.28761999999999993  0.6597999999999999  0.5513399999999999  1.0000
  C   C41       1.0  0.32231999999999994  0.7637099999999998  0.27514  1.0000
  C   C42       1.0  0.4667999999999999  0.86475  0.25279  1.0000
  C   C43       1.0  0.7461299999999998  0.67732  0.08496  1.0000
  C   C44       1.0  0.50781  0.8200399999999998  0.21422  1.0000
  C   C45       1.0  0.82569  0.65163  0.05155  1.0000
  C   C46       1.0  0.69089  0.55085  0.02398  1.0000
  C   C47       1.0  0.36248  0.71959  0.23594  1.0000
  C   C48       1.0  0.61068  0.57496  0.05765  1.0000
  C   C49       1.0  0.7907999999999998  0.01569999999999999  0.55841  1.0000
  C   C50       1.0  0.96587  0.9419999999999998  0.28117  1.0000
  C   C51       1.0  0.9925  0.8987799999999999  0.23769  1.0000
  C   C52       1.0  0.83314  0.008349999999999998  0.50294  1.0000
  C   C53       1.0  0.75992  0.9696699999999997  0.21127  1.0000
  C   C54       1.0  0.6621199999999999  0.13258000000000003  0.48458999999999997  1.0000
  C   C55       1.0  0.30198  0.8456  0.01144  1.0000
  C   C56       1.0  0.22838999999999998  0.8523199999999999  0.05519999999999999  1.0000
  C   C57       1.0  0.06131999999999996  0.9073999999999999  0.9569899999999999  1.0000
  C   C58       1.0  0.70373  0.12487000000000004  0.42899999999999994  1.0000
  C   C59       1.0  0.7867699999999999  0.92589  0.16789999999999997  1.0000
  C   C60       1.0  0.13562999999999997  0.8988700000000001  0.9141599999999999  1.0000
  C   C61       1.0  0.56886  0.30275  0.53838  1.0000
  C   C62       1.0  0.51616  0.33679000000000003  0.46616  1.0000
  C   C63       1.0  0.76528  0.30559000000000003  0.52101  1.0000
  C   C64       1.0  0.7124  0.34020999999999985  0.44865  1.0000
  C   C65       1.0  0.6776899999999999  0.23630999999999996  0.72483  1.0000
  C   C66       1.0  0.53319  0.13519000000000003  0.74723  1.0000
  C   C67       1.0  0.2539399999999999  0.32268  0.91508  1.0000
  C   C68       1.0  0.49219999999999986  0.17993000000000003  0.7858199999999999  1.0000
  C   C69       1.0  0.17443999999999985  0.34837000000000007  0.9484699999999999  1.0000
  C   C70       1.0  0.30911999999999984  0.44911000000000006  0.9759999999999999  1.0000
  C   C71       1.0  0.6375  0.28042999999999996  0.76405  1.0000
  C   C72       1.0  0.38931  0.42502999999999996  0.94236  1.0000
  C   C73       1.0  0.05034  0.73366  0.72718  1.0000
  C   C74       1.0  0.21722  0.63912  0.74454  1.0000
  C   C75       1.0  0.6636299999999998  0.8149999999999998  0.9245599999999999  1.0000
  C   C76       1.0  0.29613  0.6836099999999999  0.78445  1.0000
  C   C77       1.0  0.7784099999999998  0.8413100000000001  0.9564499999999999  1.0000
  C   C78       1.0  0.6781899999999998  0.94592  0.9805999999999999  1.0000
  C   C79       1.0  0.1292499999999999  0.7777000000000001  0.7674699999999998  1.0000
  C   C80       1.0  0.5626599999999999  0.9210799999999999  0.9484199999999999  1.0000
  C   C81       1.0  0.97313  0.80265  0.54663  1.0000
  C   C82       1.0  0.96263  0.8345099999999999  0.4749  1.0000
  C   C83       1.0  0.75857  0.8014800000000001  0.52255  1.0000
  C   C84       1.0  0.74822  0.8343899999999999  0.45065  1.0000
  C   C85       1.0  0.76616  0.51437  0.55821  1.0000
  C   C86       1.0  0.3057099999999999  0.44661999999999985  0.27672  1.0000
  C   C87       1.0  0.23550999999999997  0.40276  0.23289  1.0000
  C   C88       1.0  0.66636  0.5089099999999998  0.50303  1.0000
  C   C89       1.0  0.45214999999999994  0.46861  0.2119  1.0000
  C   C90       1.0  0.8271399999999998  0.63231  0.48542  1.0000
  C   C91       1.0  0.7086599999999998  0.34853  0.00297  1.0000
  C   C92       1.0  0.82511  0.3545999999999999  0.04776  1.0000
  C   C93       1.0  0.89898  0.41411  0.95092  1.0000
  C   C94       1.0  0.7279899999999999  0.62646  0.43  1.0000
  C   C95       1.0  0.38182  0.42468  0.16804  1.0000
  C   C96       1.0  0.78255  0.40584  0.907  1.0000
  N   N1        1.0  0.9092499999999999  0.33784  0.28586  1.0000
  N   N2        1.0  0.74433  0.24544999999999995  0.20168  1.0000
  N   N3        1.0  0.4482099999999999  0.14584  0.08048  1.0000
  N   N4        1.0  0.20965  0.09246  0.014619999999999998  1.0000
  N   N5        1.0  0.12918999999999997  0.21522999999999998  0.42806  1.0000
  N   N6        1.0  0.15029  0.14815  0.57472  1.0000
  N   N7        1.0  0.35667  0.43628000000000006  0.56397  1.0000
  N   N8        1.0  0.5854399999999998  0.5157  0.73347  1.0000
  N   N9        1.0  0.7320199999999996  0.6073800000000001  0.8252899999999999  1.0000
  N   N10       1.0  0.14863999999999997  0.4233399999999999  0.44789999999999996  1.0000
  N   N11       1.0  0.07546999999999991  0.61405  0.9769899999999999  1.0000
  N   N12       1.0  0.3162  0.62691  0.06894  1.0000
  N   N13       1.0  0.20946  0.93836  0.5645  1.0000
  N   N14       1.0  0.1499899999999999  0.017310000000000013  0.73191  1.0000
  N   N15       1.0  0.09449999999999995  0.10820000000000003  0.82283  1.0000
  N   N16       1.0  0.29689  0.92153  0.44821  1.0000
  N   N17       1.0  0.89459  0.11767999999999999  0.97079  1.0000
  N   N18       1.0  0.7423499999999998  0.13185  0.06057  1.0000
  N   N19       1.0  0.30500999999999995  0.71456  0.4326499999999999  1.0000
  N   N20       1.0  0.4129599999999998  0.6434  0.5804399999999998  1.0000
  N   N21       1.0  0.3733599999999998  0.83796  0.28572  1.0000
  N   N22       1.0  0.45784999999999987  0.74528  0.20429  1.0000
  N   N23       1.0  0.6357  0.63963  0.08904  1.0000
  N   N24       1.0  0.80176  0.58778  0.01999  1.0000
  N   N25       1.0  0.7905699999999999  0.06164000000000002  0.43548999999999993  1.0000
  N   N26       1.0  0.8500199999999999  0.9826799999999999  0.2681  1.0000
  N   N27       1.0  0.9054499999999999  0.8918099999999999  0.17715  1.0000
  N   N28       1.0  0.70312  0.07845000000000003  0.55178  1.0000
  N   N29       1.0  0.10544  0.88233  0.02923  1.0000
  N   N30       1.0  0.25773  0.86813  0.93948  1.0000
  N   N31       1.0  0.6949499999999998  0.28547  0.56732  1.0000
  N   N32       1.0  0.58705  0.35657  0.41957  1.0000
  N   N33       1.0  0.6266199999999997  0.16204000000000005  0.7142899999999999  1.0000
  N   N34       1.0  0.54215  0.25471999999999995  0.79572  1.0000
  N   N35       1.0  0.36435999999999985  0.36035  0.9109799999999999  1.0000
  N   N36       1.0  0.19821999999999998  0.41222999999999993  0.98003  1.0000
  N   N37       1.0  0.09069999999999992  0.66215  0.7141  1.0000
  N   N38       1.0  0.25566  0.7545699999999999  0.79831  1.0000
  N   N39       1.0  0.55183  0.8541900000000001  0.91952  1.0000
  N   N40       1.0  0.79037  0.9075400000000001  0.9853699999999999  1.0000
  N   N41       1.0  0.8707999999999999  0.78472  0.57198  1.0000
  N   N42       1.0  0.8497299999999999  0.85187  0.42525999999999997  1.0000
  N   N43       1.0  0.64332  0.5636999999999998  0.43604  1.0000
  N   N44       1.0  0.41458  0.48431  0.26650999999999997  1.0000
  N   N45       1.0  0.26796  0.39257  0.17474  1.0000
  N   N46       1.0  0.8513899999999998  0.5766899999999999  0.5520999999999999  1.0000
  N   N47       1.0  0.9244999999999999  0.3859499999999999  0.02299  1.0000
  N   N48       1.0  0.6838  0.37310000000000004  0.93102  1.0000
