data_image0
_chemical_formula_structural       Zn16H64C208N16O96
_chemical_formula_sum              "Zn16 H64 C208 N16 O96"
_cell_length_a       18.69296
_cell_length_b       20.225189999999998
_cell_length_c       38.37591
_cell_angle_alpha    105.22813
_cell_angle_beta     104.01847
_cell_angle_gamma    89.7477

_symmetry_space_group_name_H-M    'P 1'
_symmetry_Int_Tables_number       1

loop_
  _symmetry_equiv_pos_as_xyz
  'x,y,z'

loop_
  _atom_site_type_symbol
  _atom_site_label
  _atom_site_symmetry_multiplicity
  _atom_site_fract_x
  _atom_site_fract_y
  _atom_site_fract_z
  _atom_site_occupancy
  Zn  Zn1       1.0  0.07416999999999997  0.34212  0.22669999999999998  1.0000
  Zn  Zn2       1.0  0.11807  0.28278  0.28842  1.0000
  Zn  Zn3       1.0  0.6527  0.88477  0.22706000000000004  1.0000
  Zn  Zn4       1.0  0.6707800000000002  0.005290000000000017  0.28861  1.0000
  Zn  Zn5       1.0  0.8453400000000001  0.15826000000000004  0.77347  1.0000
  Zn  Zn6       1.0  0.8302200000000001  0.21718000000000004  0.71195  1.0000
  Zn  Zn7       1.0  0.42727  0.6154  0.77344  1.0000
  Zn  Zn8       1.0  0.3828  0.4970800000000001  0.71185  1.0000
  Zn  Zn9       1.0  0.9258300000000002  0.65788  0.7733  1.0000
  Zn  Zn10      1.0  0.8819300000000001  0.71722  0.71158  1.0000
  Zn  Zn11      1.0  0.3473  0.11523000000000004  0.77294  1.0000
  Zn  Zn12      1.0  0.32922  0.99472  0.71139  1.0000
  Zn  Zn13      1.0  0.15466  0.8417500000000001  0.22653  1.0000
  Zn  Zn14      1.0  0.16978  0.78283  0.28805  1.0000
  Zn  Zn15      1.0  0.5727300000000001  0.38460000000000005  0.22656000000000004  1.0000
  Zn  Zn16      1.0  0.6172  0.50292  0.28815  1.0000
  H   H1        1.0  0.10627999999999997  0.07199000000000001  0.24091999999999997  1.0000
  H   H2        1.0  0.04812  0.15240000000000004  0.1449  1.0000
  H   H3        1.0  0.07598999999999999  0.93522  0.13121  1.0000
  H   H4        1.0  0.08914  0.09940000000000002  0.00652  1.0000
  H   H5        1.0  0.34731  0.36129999999999995  0.25798  1.0000
  H   H6        1.0  0.30554  0.3854  0.36616  1.0000
  H   H7        1.0  0.51966  0.44632  0.3579  1.0000
  H   H8        1.0  0.39053  0.57465  0.5014  1.0000
  H   H9        1.0  0.63653  0.16906000000000002  0.24063  1.0000
  H   H10       1.0  0.59712  0.99268  0.14466  1.0000
  H   H11       1.0  0.55569  0.19618  0.13095  1.0000
  H   H12       1.0  0.42009  0.9056900000000001  0.0071  1.0000
  H   H13       1.0  0.40976000000000007  0.89379  0.25775  1.0000
  H   H14       1.0  0.55947  0.97849  0.36554  1.0000
  H   H15       1.0  0.33719  0.91049  0.35815  1.0000
  H   H16       1.0  0.61027  0.9259100000000001  0.50135  1.0000
  H   H17       1.0  0.8635500000000002  0.42788  0.75913  1.0000
  H   H18       1.0  0.9028  0.3477  0.85528  1.0000
  H   H19       1.0  0.9444900000000002  0.56442  0.86864  1.0000
  H   H20       1.0  0.08378  0.40083  0.99334  1.0000
  H   H21       1.0  0.09023999999999999  0.13812999999999998  0.74205  1.0000
  H   H22       1.0  0.94041  0.11328  0.63389  1.0000
  H   H23       1.0  0.16299  0.05179000000000002  0.64196  1.0000
  H   H24       1.0  0.88898  0.9265400000000001  0.49871000000000004  1.0000
  H   H25       1.0  0.39293  0.33114  0.7591  1.0000
  H   H26       1.0  0.45128  0.50708  0.85513  1.0000
  H   H27       1.0  0.4226200000000001  0.3039100000000001  0.86885  1.0000
  H   H28       1.0  0.41219  0.59469  0.99347  1.0000
  H   H29       1.0  0.15165  0.60481  0.74204  1.0000
  H   H30       1.0  0.19373  0.5203400000000001  0.63397  1.0000
  H   H31       1.0  0.9783100000000001  0.5878  0.64195  1.0000
  H   H32       1.0  0.10870000000000002  0.5736400000000001  0.49889  1.0000
  H   H33       1.0  0.89372  0.92801  0.75907  1.0000
  H   H34       1.0  0.9518800000000001  0.8476000000000001  0.8551  1.0000
  H   H35       1.0  0.9240099999999999  0.0647899999999999  0.86879  1.0000
  H   H36       1.0  0.9108600000000001  0.9006000000000001  0.9934800000000001  1.0000
  H   H37       1.0  0.65269  0.6387  0.74202  1.0000
  H   H38       1.0  0.6944600000000001  0.6146  0.63384  1.0000
  H   H39       1.0  0.48034  0.5536900000000001  0.6421  1.0000
  H   H40       1.0  0.60947  0.42535  0.49860000000000004  1.0000
  H   H41       1.0  0.36347000000000007  0.83095  0.75937  1.0000
  H   H42       1.0  0.40288  0.007329999999999972  0.85533  1.0000
  H   H43       1.0  0.44431000000000004  0.8038200000000001  0.86905  1.0000
  H   H44       1.0  0.5799  0.09431000000000005  0.9929  1.0000
  H   H45       1.0  0.59023  0.10620999999999998  0.74225  1.0000
  H   H46       1.0  0.44053  0.021510000000000015  0.63446  1.0000
  H   H47       1.0  0.66281  0.08951000000000002  0.64185  1.0000
  H   H48       1.0  0.38973000000000013  0.07409999999999999  0.49865  1.0000
  H   H49       1.0  0.13644  0.57212  0.24087  1.0000
  H   H50       1.0  0.09719  0.6523100000000001  0.14472  1.0000
  H   H51       1.0  0.05551  0.4355800000000001  0.13136  1.0000
  H   H52       1.0  0.91622  0.59918  0.00666  1.0000
  H   H53       1.0  0.90976  0.8618700000000001  0.25795  1.0000
  H   H54       1.0  0.059590000000000004  0.88673  0.36611  1.0000
  H   H55       1.0  0.8370100000000003  0.94822  0.35804  1.0000
  H   H56       1.0  0.11101000000000005  0.07346000000000003  0.50128  1.0000
  H   H57       1.0  0.60707  0.6688599999999999  0.24089  1.0000
  H   H58       1.0  0.54872  0.49293  0.14487  1.0000
  H   H59       1.0  0.57738  0.6961  0.13115  1.0000
  H   H60       1.0  0.58781  0.40532000000000007  0.00653  1.0000
  H   H61       1.0  0.84834  0.3952  0.25796  1.0000
  H   H62       1.0  0.80627  0.47966  0.36603  1.0000
  H   H63       1.0  0.021690000000000008  0.4122  0.35805  1.0000
  H   H64       1.0  0.8912999999999999  0.42636  0.50111  1.0000
  C   C1        1.0  0.09271  0.06379  0.21087  1.0000
  C   C2        1.0  0.07693  0.11919000000000002  0.19528  1.0000
  C   C3        1.0  0.08010000000000003  0.18945999999999996  0.22038  1.0000
  C   C4        1.0  0.05995000000000001  0.10884000000000002  0.15651  1.0000
  C   C5        1.0  0.05906000000000001  0.04238  0.13355  1.0000
  C   C6        1.0  0.07546  0.9868400000000002  0.14886  1.0000
  C   C7        1.0  0.09252  0.99774  0.18763  1.0000
  C   C8        1.0  0.1138  0.93916  0.20398  1.0000
  C   C9        1.0  0.07347  0.06951  0.07509  1.0000
  C   C10       1.0  0.039150000000000004  0.03816  0.03454  1.0000
  C   C11       1.0  0.05095  0.05675  0.00374  1.0000
  C   C12       1.0  0.9898099999999999  0.98316  0.03088  1.0000
  C   C13       1.0  0.9905000000000002  0.97725  0.06891  1.0000
  C   C14       1.0  0.36635000000000006  0.37726  0.28827  1.0000
  C   C15       1.0  0.31876  0.37061  0.31051  1.0000
  C   C16       1.0  0.24148999999999998  0.33955  0.29508  1.0000
  C   C17       1.0  0.34326  0.39142  0.34956  1.0000
  C   C18       1.0  0.41519  0.41896  0.36649  1.0000
  C   C19       1.0  0.46339  0.42515  0.34483  1.0000
  C   C20       1.0  0.4391  0.40444  0.30572  1.0000
  C   C21       1.0  0.49351  0.41622000000000003  0.28479  1.0000
  C   C22       1.0  0.40253  0.48975  0.42909  1.0000
  C   C23       1.0  0.44865000000000005  0.50001  0.46788  1.0000
  C   C24       1.0  0.43749000000000005  0.54273  0.50088  1.0000
  C   C25       1.0  0.50905  0.4587300000000001  0.46694  1.0000
  C   C26       1.0  0.50426  0.42062000000000005  0.42738  1.0000
  C   C27       1.0  0.61974  0.14702999999999997  0.21062  1.0000
  C   C28       1.0  0.61993  0.07606000000000002  0.19516  1.0000
  C   C29       1.0  0.6424100000000001  0.030540000000000008  0.22019  1.0000
  C   C30       1.0  0.59743  0.04781  0.15639  1.0000
  C   C31       1.0  0.57518  0.09139  0.13341  1.0000
  C   C32       1.0  0.57405  0.1622  0.14863  1.0000
  C   C33       1.0  0.59629  0.1899  0.18735  1.0000
  C   C34       1.0  0.59166  0.26474  0.20384  1.0000
  C   C35       1.0  0.50325  0.004929999999999998  0.07523  1.0000
  C   C36       1.0  0.49617999999999995  0.99602  0.03466  1.0000
  C   C37       1.0  0.4544  0.94616  0.0041  1.0000
  C   C38       1.0  0.54022  0.04813  0.03061  1.0000
  C   C39       1.0  0.57688  0.09271  0.06833  1.0000
  C   C40       1.0  0.42066  0.9086400000000001  0.28804  1.0000
  C   C41       1.0  0.4904899999999999  0.93738  0.30996  1.0000
  C   C42       1.0  0.55178  0.95253  0.29385  1.0000
  C   C43       1.0  0.50518  0.95608  0.34905  1.0000
  C   C44       1.0  0.45020000000000004  0.94597  0.36627  1.0000
  C   C45       1.0  0.38037  0.9182000000000001  0.34489  1.0000
  C   C46       1.0  0.36548  0.8993700000000001  0.30576  1.0000
  C   C47       1.0  0.29042  0.86651  0.28505  1.0000
  C   C48       1.0  0.52535  0.93822  0.42873  1.0000
  C   C49       1.0  0.5187  0.96704  0.46771000000000007  1.0000
  C   C50       1.0  0.56316  0.95783  0.50078  1.0000
  C   C51       1.0  0.4575  0.007629999999999976  0.46694  1.0000
  C   C52       1.0  0.42195  0.005500000000000007  0.42736  1.0000
  C   C53       1.0  0.8804600000000001  0.43601  0.78917  1.0000
  C   C54       1.0  0.88008  0.3807200000000001  0.80479  1.0000
  C   C55       1.0  0.85693  0.3106900000000001  0.77973  1.0000
  C   C56       1.0  0.90289  0.3911  0.84356  1.0000
  C   C57       1.0  0.9254800000000001  0.45740000000000003  0.86644  1.0000
  C   C58       1.0  0.92635  0.51284  0.85107  1.0000
  C   C59       1.0  0.9040200000000002  0.50187  0.81233  1.0000
  C   C60       1.0  0.90822  0.56017  0.79581  1.0000
  C   C61       1.0  0.99951  0.43080999999999997  0.9249599999999999  1.0000
  C   C62       1.0  0.005150000000000029  0.46202  0.96546  1.0000
  C   C63       1.0  0.047919999999999956  0.44343000000000005  0.99621  1.0000
  C   C64       1.0  0.95872  0.5168599999999999  0.9691299999999999  1.0000
  C   C65       1.0  0.92118  0.52269  0.93111  1.0000
  C   C66       1.0  0.07904999999999997  0.12209000000000005  0.71177  1.0000
  C   C67       1.0  0.009179999999999999  0.12889000000000003  0.68961  1.0000
  C   C68       1.0  0.94736  0.16078  0.70515  1.0000
  C   C69       1.0  0.9947500000000001  0.10754000000000001  0.65057  1.0000
  C   C70       1.0  0.049950000000000036  0.07946999999999999  0.63363  1.0000
  C   C71       1.0  0.11972000000000006  0.07309000000000002  0.65515  1.0000
  C   C72       1.0  0.13442000000000007  0.09432999999999997  0.69424  1.0000
  C   C73       1.0  0.20983  0.08276000000000001  0.71507  1.0000
  C   C74       1.0  0.975  0.009669999999999998  0.57131  1.0000
  C   C75       1.0  0.9813  0.99971  0.53231  1.0000
  C   C76       1.0  0.93657  0.95802  0.49928  1.0000
  C   C77       1.0  0.042730000000000004  0.04025  0.53305  1.0000
  C   C78       1.0  0.0786  0.07719000000000002  0.57262  1.0000
  C   C79       1.0  0.4063300000000001  0.35316  0.78913  1.0000
  C   C80       1.0  0.42277000000000003  0.42399  0.80466  1.0000
  C   C81       1.0  0.42111  0.46965  0.77977  1.0000
  C   C82       1.0  0.43922  0.4520600000000001  0.84346  1.0000
  C   C83       1.0  0.43981000000000003  0.40857  0.86646  1.0000
  C   C84       1.0  0.42316000000000004  0.33791  0.85118  1.0000
  C   C85       1.0  0.40616  0.31033  0.81241  1.0000
  C   C86       1.0  0.38581  0.23542  0.79597  1.0000
  C   C87       1.0  0.4259000000000001  0.49429  0.92491  1.0000
  C   C88       1.0  0.46061  0.50382  0.96544  1.0000
  C   C89       1.0  0.44965999999999995  0.5539300000000003  0.9962000000000001  1.0000
  C   C90       1.0  0.5094500000000002  0.4517000000000001  0.9691800000000002  1.0000
  C   C91       1.0  0.5083  0.40736999999999995  0.9312200000000002  1.0000
  C   C92       1.0  0.13234  0.59002  0.71176  1.0000
  C   C93       1.0  0.1801  0.5610900000000001  0.68959  1.0000
  C   C94       1.0  0.25765  0.54591  0.70529  1.0000
  C   C95       1.0  0.15567000000000006  0.5424700000000001  0.65055  1.0000
  C   C96       1.0  0.08327999999999999  0.55235  0.63356  1.0000
  C   C97       1.0  0.03484  0.58015  0.65512  1.0000
  C   C98       1.0  0.059340000000000004  0.5992800000000001  0.69422  1.0000
  C   C99       1.0  0.004960000000000008  0.63242  0.7151  1.0000
  C   C100      1.0  0.09613  0.56048  0.57129  1.0000
  C   C101      1.0  0.05085  0.5321200000000001  0.53231  1.0000
  C   C102      1.0  0.06212000000000006  0.54208  0.49936  1.0000
  C   C103      1.0  0.99074  0.49151000000000006  0.53296  1.0000
  C   C104      1.0  0.99479  0.49261  0.57245  1.0000
  C   C105      1.0  0.9072900000000002  0.93622  0.78912  1.0000
  C   C106      1.0  0.92307  0.88081  0.80472  1.0000
  C   C107      1.0  0.9199  0.81054  0.77962  1.0000
  C   C108      1.0  0.9400499999999999  0.89116  0.84349  1.0000
  C   C109      1.0  0.9409400000000001  0.9576200000000001  0.86645  1.0000
  C   C110      1.0  0.9245400000000001  0.013159999999999922  0.85113  1.0000
  C   C111      1.0  0.9074799999999998  0.0022600000000000562  0.81236  1.0000
  C   C112      1.0  0.8861900000000001  0.06084999999999998  0.79602  1.0000
  C   C113      1.0  0.92653  0.93049  0.92491  1.0000
  C   C114      1.0  0.96085  0.96184  0.96546  1.0000
  C   C115      1.0  0.94905  0.94326  0.99626  1.0000
  C   C116      1.0  0.010189999999999975  0.016839999999999987  0.96912  1.0000
  C   C117      1.0  0.009499999999999986  0.022750000000000038  0.93109  1.0000
  C   C118      1.0  0.63365  0.62275  0.71173  1.0000
  C   C119      1.0  0.68124  0.62939  0.68948  1.0000
  C   C120      1.0  0.75851  0.66046  0.70492  1.0000
  C   C121      1.0  0.6567400000000001  0.60859  0.65044  1.0000
  C   C122      1.0  0.58481  0.5810400000000001  0.63351  1.0000
  C   C123      1.0  0.53661  0.57486  0.65517  1.0000
  C   C124      1.0  0.5609  0.59557  0.69428  1.0000
  C   C125      1.0  0.50649  0.5837800000000001  0.7152  1.0000
  C   C126      1.0  0.59747  0.51025  0.57091  1.0000
  C   C127      1.0  0.55135  0.5  0.53212  1.0000
  C   C128      1.0  0.5625  0.45727000000000007  0.49912  1.0000
  C   C129      1.0  0.49095000000000005  0.54127  0.53306  1.0000
  C   C130      1.0  0.49574000000000007  0.57938  0.57262  1.0000
  C   C131      1.0  0.38026000000000004  0.85297  0.78937  1.0000
  C   C132      1.0  0.38007  0.92395  0.80484  1.0000
  C   C133      1.0  0.35759  0.96947  0.77981  1.0000
  C   C134      1.0  0.40257  0.9521900000000001  0.84361  1.0000
  C   C135      1.0  0.42482  0.9086200000000001  0.86659  1.0000
  C   C136      1.0  0.42595  0.8378  0.85137  1.0000
  C   C137      1.0  0.4037100000000001  0.8101  0.81265  1.0000
  C   C138      1.0  0.40834000000000004  0.73526  0.79615  1.0000
  C   C139      1.0  0.49675  0.9950700000000001  0.92477  1.0000
  C   C140      1.0  0.50381  0.003990000000000093  0.9653400000000001  1.0000
  C   C141      1.0  0.5456  0.053849999999999995  0.99589  1.0000
  C   C142      1.0  0.45978  0.95188  0.96938  1.0000
  C   C143      1.0  0.4231200000000001  0.9072900000000002  0.9316700000000001  1.0000
  C   C144      1.0  0.57934  0.09136  0.71196  1.0000
  C   C145      1.0  0.5095100000000001  0.06262000000000002  0.69004  1.0000
  C   C146      1.0  0.44822  0.04746999999999998  0.70615  1.0000
  C   C147      1.0  0.49482  0.04392  0.65095  1.0000
  C   C148      1.0  0.5498  0.05402999999999998  0.63373  1.0000
  C   C149      1.0  0.6196300000000001  0.08179999999999998  0.65511  1.0000
  C   C150      1.0  0.63452  0.10062999999999997  0.69424  1.0000
  C   C151      1.0  0.7095700000000001  0.13349000000000003  0.71495  1.0000
  C   C152      1.0  0.47465000000000007  0.06179  0.57127  1.0000
  C   C153      1.0  0.48129999999999995  0.03297000000000001  0.53229  1.0000
  C   C154      1.0  0.43684000000000006  0.04217999999999998  0.49921999999999994  1.0000
  C   C155      1.0  0.5425  0.9923700000000001  0.53306  1.0000
  C   C156      1.0  0.57805  0.99451  0.57264  1.0000
  C   C157      1.0  0.11954  0.56399  0.21083  1.0000
  C   C158      1.0  0.11992  0.61928  0.1952  1.0000
  C   C159      1.0  0.14307  0.6893099999999999  0.22027  1.0000
  C   C160      1.0  0.09711  0.6089  0.15644  1.0000
  C   C161      1.0  0.07452  0.54261  0.13356  1.0000
  C   C162      1.0  0.07365000000000001  0.48716  0.14893  1.0000
  C   C163      1.0  0.09598000000000001  0.49814  0.18767  1.0000
  C   C164      1.0  0.09178  0.43983  0.20419  1.0000
  C   C165      1.0  0.0004900000000000023  0.56919  0.07504  1.0000
  C   C166      1.0  0.99485  0.53798  0.03454  1.0000
  C   C167      1.0  0.9520800000000001  0.55658  0.0037900000000000004  1.0000
  C   C168      1.0  0.04127  0.4831499999999999  0.030869999999999998  1.0000
  C   C169      1.0  0.07881  0.47731  0.06889  1.0000
  C   C170      1.0  0.92095  0.87791  0.28823  1.0000
  C   C171      1.0  0.9908200000000001  0.87112  0.31039  1.0000
  C   C172      1.0  0.05264  0.8392300000000001  0.29485  1.0000
  C   C173      1.0  0.005249999999999996  0.89246  0.34943  1.0000
  C   C174      1.0  0.95005  0.92054  0.36637  1.0000
  C   C175      1.0  0.8802699999999999  0.92692  0.34484  1.0000
  C   C176      1.0  0.8655800000000001  0.9056800000000002  0.30576  1.0000
  C   C177      1.0  0.79017  0.9172400000000002  0.28493  1.0000
  C   C178      1.0  0.025000000000000015  0.99033  0.42869  1.0000
  C   C179      1.0  0.01868999999999996  0.0002900000000000247  0.46769  1.0000
  C   C180      1.0  0.06342  0.041979999999999996  0.50072  1.0000
  C   C181      1.0  0.9572699999999998  0.95975  0.46695  1.0000
  C   C182      1.0  0.9214000000000001  0.92281  0.42738  1.0000
  C   C183      1.0  0.59367  0.6468400000000001  0.21087  1.0000
  C   C184      1.0  0.57723  0.57602  0.19534  1.0000
  C   C185      1.0  0.57889  0.53036  0.22023  1.0000
  C   C186      1.0  0.56078  0.54795  0.15654  1.0000
  C   C187      1.0  0.56019  0.59143  0.13354  1.0000
  C   C188      1.0  0.57684  0.6621  0.14882  1.0000
  C   C189      1.0  0.59384  0.68967  0.18759  1.0000
  C   C190      1.0  0.61419  0.7645799999999999  0.20403  1.0000
  C   C191      1.0  0.5741  0.50571  0.07509  1.0000
  C   C192      1.0  0.53938  0.49618000000000007  0.03456  1.0000
  C   C193      1.0  0.55033  0.44608000000000003  0.0038  1.0000
  C   C194      1.0  0.49055  0.54831  0.03082  1.0000
  C   C195      1.0  0.4917000000000001  0.59263  0.06878  1.0000
  C   C196      1.0  0.86766  0.40998000000000007  0.28824  1.0000
  C   C197      1.0  0.8199  0.43891  0.31041  1.0000
  C   C198      1.0  0.74235  0.45409000000000005  0.29471  1.0000
  C   C199      1.0  0.8443300000000004  0.45753  0.34945  1.0000
  C   C200      1.0  0.91672  0.44766  0.36644  1.0000
  C   C201      1.0  0.9651600000000001  0.41985000000000006  0.34488  1.0000
  C   C202      1.0  0.94066  0.40072  0.30577  1.0000
  C   C203      1.0  0.99504  0.36759  0.2849  1.0000
  C   C204      1.0  0.90387  0.43953  0.42871  1.0000
  C   C205      1.0  0.9491500000000002  0.46788  0.46769  1.0000
  C   C206      1.0  0.93788  0.45792  0.50064  1.0000
  C   C207      1.0  0.009260000000000004  0.5085  0.46704  1.0000
  C   C208      1.0  0.005210000000000004  0.50739  0.42755  1.0000
  N   N1        1.0  0.04142  0.03069  0.09412  1.0000
  N   N2        1.0  0.43925  0.44177  0.4061  1.0000
  N   N3        1.0  0.55302  0.06373000000000001  0.094  1.0000
  N   N4        1.0  0.4656  0.9632500000000002  0.40591  1.0000
  N   N5        1.0  0.94781  0.4693499999999999  0.9059  1.0000
  N   N6        1.0  0.034789999999999995  0.05693000000000001  0.59406  1.0000
  N   N7        1.0  0.45777000000000007  0.43616000000000005  0.90591  1.0000
  N   N8        1.0  0.05928000000000003  0.53499  0.59395  1.0000
  N   N9        1.0  0.95858  0.96932  0.9058799999999999  1.0000
  N   N10       1.0  0.56075  0.55823  0.5939  1.0000
  N   N11       1.0  0.44698  0.9362700000000002  0.906  1.0000
  N   N12       1.0  0.5344  0.03675999999999999  0.59408  1.0000
  N   N13       1.0  0.05219  0.53065  0.0941  1.0000
  N   N14       1.0  0.9652000000000001  0.9430800000000001  0.40594  1.0000
  N   N15       1.0  0.54223  0.56384  0.09409  1.0000
  N   N16       1.0  0.94072  0.46502  0.40605  1.0000
  O   O1        1.0  0.09125  0.19358000000000006  0.25544  1.0000
  O   O2        1.0  0.0726  0.2404  0.20643  1.0000
  O   O3        1.0  0.13073000000000004  0.94761  0.23918000000000003  1.0000
  O   O4        1.0  0.11643  0.87944  0.18187  1.0000
  O   O5        1.0  0.1195  0.11734  0.08976  1.0000
  O   O6        1.0  0.9556900000000002  0.93629  0.07778  1.0000
  O   O7        1.0  0.20391  0.33647  0.26237  1.0000
  O   O8        1.0  0.21579  0.31556  0.31825  1.0000
  O   O9        1.0  0.48429000000000005  0.38737  0.25025  1.0000
  O   O10       1.0  0.54913  0.45768  0.30527  1.0000
  O   O11       1.0  0.34563  0.51631  0.41851  1.0000
  O   O12       1.0  0.54578  0.37985  0.4149  1.0000
  O   O13       1.0  0.6673600000000002  0.06068000000000002  0.25524  1.0000
  O   O14       1.0  0.63513  0.96578  0.20611  1.0000
  O   O15       1.0  0.61065  0.29053  0.23906  1.0000
  O   O16       1.0  0.56661  0.30297  0.18201  1.0000
  O   O17       1.0  0.47335  0.97048  0.09002  1.0000
  O   O18       1.0  0.61863  0.14353000000000002  0.0764  1.0000
  O   O19       1.0  0.55696  0.92096  0.26152  1.0000
  O   O20       1.0  0.59927  0.0014399999999999903  0.31625  1.0000
  O   O21       1.0  0.26566  0.86011  0.25036  1.0000
  O   O22       1.0  0.25468  0.8462  0.30559  1.0000
  O   O23       1.0  0.57117  0.90085  0.41767  1.0000
  O   O24       1.0  0.36722  0.033199999999999966  0.41497  1.0000
  O   O25       1.0  0.83333  0.30643999999999993  0.74469  1.0000
  O   O26       1.0  0.8623799999999999  0.25980000000000003  0.79378  1.0000
  O   O27       1.0  0.89065  0.55079  0.76057  1.0000
  O   O28       1.0  0.9316300000000001  0.62022  0.81777  1.0000
  O   O29       1.0  0.03184000000000009  0.38313000000000014  0.91031  1.0000
  O   O30       1.0  0.8766799999999999  0.56328  0.92224  1.0000
  O   O31       1.0  0.9417700000000001  0.16337000000000004  0.73772  1.0000
  O   O32       1.0  0.89913  0.18606000000000006  0.68224  1.0000
  O   O33       1.0  0.23427000000000006  0.11007999999999997  0.74974  1.0000
  O   O34       1.0  0.24653  0.043029999999999964  0.69434  1.0000
  O   O35       1.0  0.92953  0.98336  0.58242  1.0000
  O   O36       1.0  0.13377  0.11638  0.58503  1.0000
  O   O37       1.0  0.41069  0.43992000000000003  0.74468  1.0000
  O   O38       1.0  0.42929  0.53443  0.79416  1.0000
  O   O39       1.0  0.36762  0.20989  0.7607  1.0000
  O   O40       1.0  0.38537000000000005  0.19685  0.81789  1.0000
  O   O41       1.0  0.3791900000000001  0.52736  0.91003  1.0000
  O   O42       1.0  0.54256  0.35668000000000005  0.92245  1.0000
  O   O43       1.0  0.29491  0.57622  0.73783  1.0000
  O   O44       1.0  0.28388  0.49842  0.68241  1.0000
  O   O45       1.0  0.014840000000000022  0.63989  0.74984  1.0000
  O   O46       1.0  0.9483200000000002  0.65217  0.69441  1.0000
  O   O47       1.0  0.15249  0.59781  0.58241  1.0000
  O   O48       1.0  0.95305  0.4641700000000001  0.58469  1.0000
  O   O49       1.0  0.90875  0.80642  0.74456  1.0000
  O   O50       1.0  0.9274  0.7596  0.79357  1.0000
  O   O51       1.0  0.86927  0.05238999999999998  0.76082  1.0000
  O   O52       1.0  0.88357  0.12055999999999999  0.81813  1.0000
  O   O53       1.0  0.8804999999999997  0.88267  0.9102399999999999  1.0000
  O   O54       1.0  0.04430999999999988  0.06371  0.9222199999999999  1.0000
  O   O55       1.0  0.79609  0.6635300000000001  0.73762  1.0000
  O   O56       1.0  0.78421  0.68445  0.68175  1.0000
  O   O57       1.0  0.51571  0.61264  0.74975  1.0000
  O   O58       1.0  0.45087  0.54232  0.69473  1.0000
  O   O59       1.0  0.65436  0.48369000000000006  0.58149  1.0000
  O   O60       1.0  0.45422  0.62016  0.5851  1.0000
  O   O61       1.0  0.33264000000000005  0.93932  0.74475  1.0000
  O   O62       1.0  0.36487  0.03421999999999997  0.79389  1.0000
  O   O63       1.0  0.38934  0.70948  0.76094  1.0000
  O   O64       1.0  0.43338999999999994  0.69704  0.81798  1.0000
  O   O65       1.0  0.5266500000000001  0.029520000000000095  0.9099800000000001  1.0000
  O   O66       1.0  0.38137  0.8564700000000001  0.9236  1.0000
  O   O67       1.0  0.44304000000000004  0.07905000000000001  0.73848  1.0000
  O   O68       1.0  0.40073  0.99856  0.68375  1.0000
  O   O69       1.0  0.73434  0.13988999999999996  0.74964  1.0000
  O   O70       1.0  0.7453200000000001  0.15380000000000005  0.69441  1.0000
  O   O71       1.0  0.42883  0.09915000000000002  0.58233  1.0000
  O   O72       1.0  0.63278  0.9668  0.58503  1.0000
  O   O73       1.0  0.16667  0.6935700000000002  0.25531  1.0000
  O   O74       1.0  0.13761  0.74021  0.20622  1.0000
  O   O75       1.0  0.10934999999999999  0.44921000000000005  0.23943000000000003  1.0000
  O   O76       1.0  0.06837  0.37979  0.18223  1.0000
  O   O77       1.0  0.96816  0.61687  0.08969  1.0000
  O   O78       1.0  0.12331000000000002  0.43672  0.07776  1.0000
  O   O79       1.0  0.05822999999999997  0.83663  0.26227  1.0000
  O   O80       1.0  0.10088000000000003  0.81395  0.31776  1.0000
  O   O81       1.0  0.7657300000000001  0.88992  0.25026  1.0000
  O   O82       1.0  0.75347  0.9569700000000001  0.30566  1.0000
  O   O83       1.0  0.07047000000000003  0.01664  0.41758  1.0000
  O   O84       1.0  0.8662300000000002  0.8836300000000002  0.41497  1.0000
  O   O85       1.0  0.58931  0.56008  0.25532  1.0000
  O   O86       1.0  0.5707100000000003  0.46557000000000004  0.20584  1.0000
  O   O87       1.0  0.63238  0.7901100000000001  0.23930000000000004  1.0000
  O   O88       1.0  0.61462  0.8031500000000001  0.18211  1.0000
  O   O89       1.0  0.62081  0.47264  0.08997  1.0000
  O   O90       1.0  0.45744000000000007  0.64332  0.07754  1.0000
  O   O91       1.0  0.70509  0.42378  0.26217  1.0000
  O   O92       1.0  0.71612  0.50158  0.31759  1.0000
  O   O93       1.0  0.98516  0.36012  0.25016  1.0000
  O   O94       1.0  0.05168  0.34783  0.30559  1.0000
  O   O95       1.0  0.8475100000000001  0.40219  0.41759  1.0000
  O   O96       1.0  0.04694999999999997  0.53583  0.41531  1.0000
