data_image0
_chemical_formula_structural       Ca8P12H68C96O84
_chemical_formula_sum              "Ca8 P12 H68 C96 O84"
_cell_length_a       6.98924
_cell_length_b       22.49322
_cell_length_c       23.10983
_cell_angle_alpha    90.0
_cell_angle_beta     90.0
_cell_angle_gamma    90.0

_space_group_name_H-M_alt    "P 1"
_space_group_IT_number       1

loop_
  _space_group_symop_operation_xyz
  'x, y, z'

loop_
  _atom_site_type_symbol
  _atom_site_label
  _atom_site_symmetry_multiplicity
  _atom_site_fract_x
  _atom_site_fract_y
  _atom_site_fract_z
  _atom_site_occupancy
  Ca  Ca1       1.0  0.93478  0.49679  0.4679  1.0000
  Ca  Ca2       1.0  0.56237  0.99667  0.45581  1.0000
  Ca  Ca3       1.0  0.06522  0.99679  0.53211  1.0000
  Ca  Ca4       1.0  0.43763  0.49667  0.54419  1.0000
  Ca  Ca5       1.0  0.06522  0.49679  0.9679  1.0000
  Ca  Ca6       1.0  0.43762  0.99667  0.9558100000000002  1.0000
  Ca  Ca7       1.0  0.93478  0.99679  0.03211  1.0000
  Ca  Ca8       1.0  0.56237  0.49667  0.04419  1.0000
  P   P1        1.0  0.43686  0.5259199999999999  0.41382  1.0000
  P   P2        1.0  0.91331  0.34287  0.46441000000000004  1.0000
  P   P3        1.0  0.06292  0.9615199999999999  0.40524  1.0000
  P   P4        1.0  0.56313  0.025919999999999995  0.58619  1.0000
  P   P5        1.0  0.08669  0.84286  0.5356  1.0000
  P   P6        1.0  0.9370800000000001  0.46152  0.59477  1.0000
  P   P7        1.0  0.56313  0.5259199999999999  0.91382  1.0000
  P   P8        1.0  0.08669  0.34287  0.96441  1.0000
  P   P9        1.0  0.9370800000000001  0.9615199999999999  0.90524  1.0000
  P   P10       1.0  0.43686  0.025919999999999995  0.08618  1.0000
  P   P11       1.0  0.91331  0.84286  0.03559  1.0000
  P   P12       1.0  0.06292  0.46152  0.09476  1.0000
  H   H1        1.0  0.3239  0.60931  0.37954  1.0000
  H   H2        1.0  0.26292  0.25389  0.34771  1.0000
  H   H3        1.0  0.59794  0.57227  0.14942  1.0000
  H   H4        1.0  0.17238  0.2934  0.48871  1.0000
  H   H5        1.0  0.8187500000000001  0.3015  0.19695000000000001  1.0000
  H   H6        1.0  0.11685  0.8688899999999999  0.4214300000000001  1.0000
  H   H7        1.0  0.22148  0.23291  0.25034  1.0000
  H   H8        1.0  0.90746  0.91813  0.135  1.0000
  H   H9        1.0  0.33964  0.39905999999999997  0.39231000000000005  1.0000
  H   H10       1.0  0.44258  0.38442999999999994  0.20915  1.0000
  H   H11       1.0  0.5331  0.55187  0.29458  1.0000
  H   H12       1.0  0.70215  0.23462  0.48965  1.0000
  H   H13       1.0  0.61005  0.16103  0.31967  1.0000
  H   H14       1.0  0.89219  0.32861  0.33709  1.0000
  H   H15       1.0  0.14593  0.08467  0.38297  1.0000
  H   H16       1.0  0.03279  0.10264  0.20112000000000002  1.0000
  H   H17       1.0  0.97163  0.9316  0.28262  1.0000
  H   H18       1.0  0.67609  0.10931  0.62046  1.0000
  H   H19       1.0  0.73708  0.75389  0.6523  1.0000
  H   H20       1.0  0.40206  0.07227  0.8505800000000001  1.0000
  H   H21       1.0  0.82762  0.7934  0.51129  1.0000
  H   H22       1.0  0.18125  0.8015  0.80305  1.0000
  H   H23       1.0  0.88314  0.36889  0.57858  1.0000
  H   H24       1.0  0.77851  0.73291  0.7496700000000001  1.0000
  H   H25       1.0  0.09253000000000002  0.41813  0.865  1.0000
  H   H26       1.0  0.66035  0.89906  0.6077  1.0000
  H   H27       1.0  0.55742  0.88443  0.79086  1.0000
  H   H28       1.0  0.46689  0.05187  0.70542  1.0000
  H   H29       1.0  0.29785  0.73462  0.51035  1.0000
  H   H30       1.0  0.38994  0.66103  0.68034  1.0000
  H   H31       1.0  0.10781  0.82861  0.66291  1.0000
  H   H32       1.0  0.85407  0.58467  0.61704  1.0000
  H   H33       1.0  0.9672  0.6026399999999998  0.7988800000000001  1.0000
  H   H34       1.0  0.028370000000000003  0.4316  0.71738  1.0000
  H   H35       1.0  0.67609  0.60931  0.8795400000000001  1.0000
  H   H36       1.0  0.73708  0.25389  0.8477100000000001  1.0000
  H   H37       1.0  0.40206  0.57227  0.64942  1.0000
  H   H38       1.0  0.82761  0.2934  0.9887100000000001  1.0000
  H   H39       1.0  0.18125  0.3015  0.6969500000000001  1.0000
  H   H40       1.0  0.88314  0.8688899999999999  0.9214300000000001  1.0000
  H   H41       1.0  0.77851  0.23291  0.75034  1.0000
  H   H42       1.0  0.09253000000000002  0.91813  0.63501  1.0000
  H   H43       1.0  0.66035  0.39905999999999997  0.89231  1.0000
  H   H44       1.0  0.55742  0.38442999999999994  0.7091500000000001  1.0000
  H   H45       1.0  0.46689  0.55187  0.79459  1.0000
  H   H46       1.0  0.29785  0.23462  0.98966  1.0000
  H   H47       1.0  0.38994  0.16103  0.81967  1.0000
  H   H48       1.0  0.10781  0.32861  0.8371000000000001  1.0000
  H   H49       1.0  0.85407  0.08467  0.88297  1.0000
  H   H50       1.0  0.9672  0.10264  0.7011200000000001  1.0000
  H   H51       1.0  0.028370000000000003  0.9316  0.78262  1.0000
  H   H52       1.0  0.3239  0.10931  0.12046  1.0000
  H   H53       1.0  0.26292  0.75389  0.15229  1.0000
  H   H54       1.0  0.59794  0.07227  0.35058000000000006  1.0000
  H   H55       1.0  0.17238  0.7934  0.01129  1.0000
  H   H56       1.0  0.8187500000000001  0.8015  0.30305000000000004  1.0000
  H   H57       1.0  0.11686  0.36889  0.07857  1.0000
  H   H58       1.0  0.22148  0.73291  0.24966  1.0000
  H   H59       1.0  0.90746  0.41813  0.36500000000000005  1.0000
  H   H60       1.0  0.33964  0.89906  0.10769000000000001  1.0000
  H   H61       1.0  0.44258  0.88443  0.29086  1.0000
  H   H62       1.0  0.5331  0.05187  0.20542  1.0000
  H   H63       1.0  0.70215  0.73462  0.01035  1.0000
  H   H64       1.0  0.61005  0.66103  0.18034  1.0000
  H   H65       1.0  0.89219  0.82861  0.16291  1.0000
  H   H66       1.0  0.14593  0.58467  0.11704  1.0000
  H   H67       1.0  0.03279  0.6026399999999998  0.29888000000000003  1.0000
  H   H68       1.0  0.97163  0.4316  0.21738  1.0000
  C   C1        1.0  0.43655  0.48003  0.34967  1.0000
  C   C2        1.0  0.38563  0.41964  0.35194  1.0000
  C   C3        1.0  0.38854  0.38534999999999997  0.30113  1.0000
  C   C4        1.0  0.32867  0.32184  0.30053  1.0000
  C   C5        1.0  0.44408  0.41093  0.24850000000000003  1.0000
  C   C6        1.0  0.49738  0.4707  0.24648  1.0000
  C   C7        1.0  0.55004  0.49776999999999993  0.18995  1.0000
  C   C8        1.0  0.49293  0.5052  0.2969  1.0000
  C   C9        1.0  0.81191  0.28654  0.41802000000000006  1.0000
  C   C10       1.0  0.71995  0.2375  0.44295  1.0000
  C   C11       1.0  0.65072  0.19118  0.40819  1.0000
  C   C12       1.0  0.56551  0.13798  0.43792000000000003  1.0000
  C   C13       1.0  0.66507  0.19555999999999998  0.34804000000000007  1.0000
  C   C14       1.0  0.74604  0.24614  0.32258  1.0000
  C   C15       1.0  0.74636  0.25026  0.25837  1.0000
  C   C16       1.0  0.82336  0.29090999999999995  0.35760000000000003  1.0000
  C   C17       1.0  0.05308000000000001  0.00404  0.33921000000000007  1.0000
  C   C18       1.0  0.10008  0.0646  0.34239  1.0000
  C   C19       1.0  0.09526000000000001  0.10013999999999999  0.29263  1.0000
  C   C20       1.0  0.15671  0.16336  0.29613  1.0000
  C   C21       1.0  0.04045000000000001  0.07524  0.23975000000000005  1.0000
  C   C22       1.0  0.99696  0.014659999999999996  0.23617000000000005  1.0000
  C   C23       1.0  0.95418  0.98965  0.17819  1.0000
  C   C24       1.0  0.00335  0.97886  0.28587  1.0000
  C   C25       1.0  0.56344  0.98003  0.65033  1.0000
  C   C26       1.0  0.61436  0.91964  0.64806  1.0000
  C   C27       1.0  0.61145  0.8853499999999999  0.69888  1.0000
  C   C28       1.0  0.67132  0.82184  0.69948  1.0000
  C   C29       1.0  0.55591  0.91093  0.7515000000000001  1.0000
  C   C30       1.0  0.50262  0.9707  0.75353  1.0000
  C   C31       1.0  0.44996  0.99777  0.8100600000000001  1.0000
  C   C32       1.0  0.50707  0.0052  0.7031  1.0000
  C   C33       1.0  0.18808  0.78654  0.58198  1.0000
  C   C34       1.0  0.28004  0.7375  0.55705  1.0000
  C   C35       1.0  0.34927  0.69118  0.59182  1.0000
  C   C36       1.0  0.43448000000000003  0.63798  0.56209  1.0000
  C   C37       1.0  0.33492  0.69555  0.65196  1.0000
  C   C38       1.0  0.25395  0.74613  0.67743  1.0000
  C   C39       1.0  0.25364  0.75026  0.74163  1.0000
  C   C40       1.0  0.17663  0.7909  0.6424  1.0000
  C   C41       1.0  0.9469200000000001  0.50404  0.66079  1.0000
  C   C42       1.0  0.89992  0.5646  0.6576100000000001  1.0000
  C   C43       1.0  0.90474  0.60014  0.70737  1.0000
  C   C44       1.0  0.84329  0.6633599999999998  0.70387  1.0000
  C   C45       1.0  0.95955  0.57524  0.7602500000000001  1.0000
  C   C46       1.0  0.00304  0.51466  0.76383  1.0000
  C   C47       1.0  0.04581  0.48965  0.82182  1.0000
  C   C48       1.0  0.99664  0.47886  0.7141400000000001  1.0000
  C   C49       1.0  0.56344  0.48003  0.84967  1.0000
  C   C50       1.0  0.61436  0.41964  0.8519500000000001  1.0000
  C   C51       1.0  0.61145  0.38534999999999997  0.80113  1.0000
  C   C52       1.0  0.67132  0.32185  0.8005300000000001  1.0000
  C   C53       1.0  0.55591  0.41093  0.7485000000000002  1.0000
  C   C54       1.0  0.50262  0.4707  0.74648  1.0000
  C   C55       1.0  0.44996  0.49776999999999993  0.68995  1.0000
  C   C56       1.0  0.50707  0.5052  0.7969  1.0000
  C   C57       1.0  0.18808  0.28654  0.91803  1.0000
  C   C58       1.0  0.28004  0.2375  0.94296  1.0000
  C   C59       1.0  0.34927  0.19118  0.90819  1.0000
  C   C60       1.0  0.43448000000000003  0.13799  0.93792  1.0000
  C   C61       1.0  0.33492  0.19555999999999998  0.84804  1.0000
  C   C62       1.0  0.25396  0.24613  0.82258  1.0000
  C   C63       1.0  0.25362  0.25027  0.75838  1.0000
  C   C64       1.0  0.17663  0.29090999999999995  0.8576  1.0000
  C   C65       1.0  0.9469200000000001  0.00404  0.8392100000000001  1.0000
  C   C66       1.0  0.89992  0.0646  0.8423900000000001  1.0000
  C   C67       1.0  0.90474  0.10013999999999999  0.7926300000000001  1.0000
  C   C68       1.0  0.84329  0.16336  0.79614  1.0000
  C   C69       1.0  0.95955  0.07524  0.73976  1.0000
  C   C70       1.0  0.00304  0.014659999999999996  0.73617  1.0000
  C   C71       1.0  0.04581  0.98964  0.67819  1.0000
  C   C72       1.0  0.99664  0.97886  0.78587  1.0000
  C   C73       1.0  0.43655  0.98003  0.15033  1.0000
  C   C74       1.0  0.38564  0.91964  0.14806  1.0000
  C   C75       1.0  0.38854  0.8853499999999999  0.19888  1.0000
  C   C76       1.0  0.3286800000000001  0.82184  0.19947000000000004  1.0000
  C   C77       1.0  0.44408  0.91093  0.2515  1.0000
  C   C78       1.0  0.49738  0.9707  0.25353  1.0000
  C   C79       1.0  0.55004  0.99777  0.31005  1.0000
  C   C80       1.0  0.49293  0.0052  0.20310000000000006  1.0000
  C   C81       1.0  0.81191  0.78654  0.08198  1.0000
  C   C82       1.0  0.71995  0.7375  0.05705  1.0000
  C   C83       1.0  0.65072  0.69118  0.09182000000000001  1.0000
  C   C84       1.0  0.56551  0.63798  0.06208  1.0000
  C   C85       1.0  0.66507  0.69556  0.15196  1.0000
  C   C86       1.0  0.74604  0.74613  0.17743  1.0000
  C   C87       1.0  0.74638  0.7502699999999999  0.24162  1.0000
  C   C88       1.0  0.82337  0.7909099999999999  0.1424  1.0000
  C   C89       1.0  0.05308000000000001  0.50404  0.16079  1.0000
  C   C90       1.0  0.10008  0.5646  0.15761  1.0000
  C   C91       1.0  0.09526000000000001  0.60014  0.20737  1.0000
  C   C92       1.0  0.15671  0.6633599999999998  0.20387  1.0000
  C   C93       1.0  0.04045000000000001  0.57524  0.26025  1.0000
  C   C94       1.0  0.99696  0.51466  0.26383  1.0000
  C   C95       1.0  0.95418  0.48965  0.32181  1.0000
  C   C96       1.0  0.00335  0.47886  0.21413  1.0000
  O   O1        1.0  0.6172  0.51474  0.44877000000000006  1.0000
  O   O2        1.0  0.25888  0.51503  0.45074  1.0000
  O   O3        1.0  0.4476  0.59289  0.3905600000000001  1.0000
  O   O4        1.0  0.30399  0.29768  0.352  1.0000
  O   O5        1.0  0.30537  0.29495  0.25389  1.0000
  O   O6        1.0  0.5812  0.55558  0.192  1.0000
  O   O7        1.0  0.56022  0.4673  0.14502  1.0000
  O   O8        1.0  0.90578  0.40242999999999995  0.43174  1.0000
  O   O9        1.0  0.81971  0.33923  0.52315  1.0000
  O   O10       1.0  0.14246  0.33031  0.46853  1.0000
  O   O11       1.0  0.59022  0.08651  0.41126000000000007  1.0000
  O   O12       1.0  0.48637  0.14282  0.48554  1.0000
  O   O13       1.0  0.81957  0.30327  0.23924  1.0000
  O   O14       1.0  0.6875200000000001  0.21165999999999996  0.22569  1.0000
  O   O15       1.0  0.23755  0.9820299999999998  0.44037  1.0000
  O   O16       1.0  0.88527  0.9729199999999999  0.44287  1.0000
  O   O17       1.0  0.07757  0.89469  0.3856  1.0000
  O   O18       1.0  0.16297  0.19070999999999996  0.24554  1.0000
  O   O19       1.0  0.20025  0.18700999999999998  0.34312  1.0000
  O   O20       1.0  0.92266  0.9315299999999999  0.17720000000000002  1.0000
  O   O21       1.0  0.95269  0.02123  0.13402  1.0000
  O   O22       1.0  0.3828  0.014739999999999998  0.55123  1.0000
  O   O23       1.0  0.7411100000000002  0.01503  0.54927  1.0000
  O   O24       1.0  0.5524  0.09289  0.60944  1.0000
  O   O25       1.0  0.696  0.79768  0.648  1.0000
  O   O26       1.0  0.69463  0.7949499999999998  0.74611  1.0000
  O   O27       1.0  0.41879000000000005  0.05558  0.808  1.0000
  O   O28       1.0  0.4397700000000001  0.9673  0.85499  1.0000
  O   O29       1.0  0.09421000000000002  0.9024299999999998  0.56827  1.0000
  O   O30       1.0  0.18029000000000003  0.83922  0.47685000000000005  1.0000
  O   O31       1.0  0.8575300000000001  0.8303099999999998  0.53148  1.0000
  O   O32       1.0  0.40978  0.58651  0.58874  1.0000
  O   O33       1.0  0.51363  0.64282  0.51446  1.0000
  O   O34       1.0  0.18043  0.80327  0.7607600000000001  1.0000
  O   O35       1.0  0.31248  0.71166  0.77431  1.0000
  O   O36       1.0  0.76245  0.48202999999999996  0.55964  1.0000
  O   O37       1.0  0.11473  0.47292  0.55714  1.0000
  O   O38       1.0  0.92243  0.39468999999999993  0.61441  1.0000
  O   O39       1.0  0.83702  0.69071  0.75446  1.0000
  O   O40       1.0  0.7997400000000002  0.68701  0.65689  1.0000
  O   O41       1.0  0.07734  0.43152999999999997  0.8228000000000001  1.0000
  O   O42       1.0  0.04731000000000001  0.52123  0.8659800000000001  1.0000
  O   O43       1.0  0.3828  0.51474  0.94878  1.0000
  O   O44       1.0  0.7411100000000002  0.51503  0.9507400000000003  1.0000
  O   O45       1.0  0.5524  0.59289  0.89056  1.0000
  O   O46       1.0  0.696  0.29768  0.852  1.0000
  O   O47       1.0  0.69463  0.29495  0.7538900000000001  1.0000
  O   O48       1.0  0.41879000000000005  0.55558  0.692  1.0000
  O   O49       1.0  0.4397700000000001  0.4673  0.64502  1.0000
  O   O50       1.0  0.09421000000000002  0.40242999999999995  0.9317400000000001  1.0000
  O   O51       1.0  0.18029000000000003  0.33923  0.02315  1.0000
  O   O52       1.0  0.8575300000000001  0.33031  0.9685300000000001  1.0000
  O   O53       1.0  0.40978  0.08651  0.91126  1.0000
  O   O54       1.0  0.51363  0.14282  0.9855400000000001  1.0000
  O   O55       1.0  0.18043  0.30327  0.73924  1.0000
  O   O56       1.0  0.31249  0.21165  0.72568  1.0000
  O   O57       1.0  0.76245  0.9820299999999998  0.94037  1.0000
  O   O58       1.0  0.11473  0.9729199999999999  0.9428700000000001  1.0000
  O   O59       1.0  0.92243  0.89469  0.8856  1.0000
  O   O60       1.0  0.83702  0.19070999999999996  0.74554  1.0000
  O   O61       1.0  0.7997400000000002  0.18700999999999998  0.84312  1.0000
  O   O62       1.0  0.07734  0.9315299999999999  0.6772  1.0000
  O   O63       1.0  0.04731000000000001  0.02123  0.63403  1.0000
  O   O64       1.0  0.6172  0.014739999999999998  0.05123  1.0000
  O   O65       1.0  0.25889  0.01503  0.04926  1.0000
  O   O66       1.0  0.4476  0.09289  0.10944000000000001  1.0000
  O   O67       1.0  0.30399  0.79768  0.148  1.0000
  O   O68       1.0  0.30537  0.7949499999999998  0.24611000000000002  1.0000
  O   O69       1.0  0.5812  0.05558  0.308  1.0000
  O   O70       1.0  0.56022  0.9673  0.35499  1.0000
  O   O71       1.0  0.90578  0.9024299999999998  0.06826  1.0000
  O   O72       1.0  0.81971  0.83922  0.97686  1.0000
  O   O73       1.0  0.14247  0.8303099999999998  0.03147  1.0000
  O   O74       1.0  0.59022  0.58651  0.08874  1.0000
  O   O75       1.0  0.48637  0.64282  0.01446  1.0000
  O   O76       1.0  0.81957  0.80327  0.26076  1.0000
  O   O77       1.0  0.68751  0.71165  0.27432  1.0000
  O   O78       1.0  0.23755  0.48202999999999996  0.05963  1.0000
  O   O79       1.0  0.88527  0.47292  0.05713  1.0000
  O   O80       1.0  0.07757  0.39468999999999993  0.1144  1.0000
  O   O81       1.0  0.16297  0.69071  0.25446  1.0000
  O   O82       1.0  0.20025  0.68701  0.15689  1.0000
  O   O83       1.0  0.92266  0.43152999999999997  0.3228  1.0000
  O   O84       1.0  0.95269  0.52123  0.36598  1.0000
