data_image0
_chemical_formula_structural       K2Cd6H96C144N12O24
_chemical_formula_sum              "K2 Cd6 H96 C144 N12 O24"
_cell_length_a       18.0479
_cell_length_b       18.04265
_cell_length_c       19.7388
_cell_angle_alpha    90.06289
_cell_angle_beta     90.07208
_cell_angle_gamma    120.30163999999999

_symmetry_space_group_name_H-M    'P 1'
_symmetry_Int_Tables_number       1

loop_
  _symmetry_equiv_pos_as_xyz
  'x,y,z'

loop_
  _atom_site_type_symbol
  _atom_site_label
  _atom_site_symmetry_multiplicity
  _atom_site_fract_x
  _atom_site_fract_y
  _atom_site_fract_z
  _atom_site_occupancy
  K   K1        1.0  0.33323  0.66663  0.75055  1.0000
  K   K2        1.0  0.6667699999999999  0.3333699999999999  0.24943999999999997  1.0000
  Cd  Cd1       1.0  0.21481999999999993  0.7850599999999998  0.74996  1.0000
  Cd  Cd2       1.0  0.21523999999999993  0.4297299999999999  0.74997  1.0000
  Cd  Cd3       1.0  0.5703099999999999  0.7849999999999998  0.74998  1.0000
  Cd  Cd4       1.0  0.78518  0.21493999999999994  0.25004  1.0000
  Cd  Cd5       1.0  0.7847600000000001  0.57028  0.25003  1.0000
  Cd  Cd6       1.0  0.4297000000000001  0.21499999999999994  0.25002  1.0000
  H   H1        1.0  0.06038000000000003  0.66725  0.53621  1.0000
  H   H2        1.0  0.12019  0.52093  0.39491  1.0000
  H   H3        1.0  0.22419  0.52369  0.47706999999999994  1.0000
  H   H4        1.0  0.24311999999999992  0.5931399999999998  0.58995  1.0000
  H   H5        1.0  0.9375799999999999  0.5362099999999997  0.24874999999999997  1.0000
  H   H6        1.0  0.04362999999999991  0.5317899999999998  0.3251  1.0000
  H   H7        1.0  0.96588  0.65082  0.47818  1.0000
  H   H8        1.0  0.8626000000000004  0.64878  0.39563  1.0000
  H   H9        1.0  0.3317999999999999  0.39229999999999987  0.53636  1.0000
  H   H10       1.0  0.47928  0.5995099999999998  0.39549  1.0000
  H   H11       1.0  0.47644999999999993  0.7011499999999998  0.47723  1.0000
  H   H12       1.0  0.40643  0.65016  0.58989  1.0000
  H   H13       1.0  0.46354  0.40188  0.2494  1.0000
  H   H14       1.0  0.46802  0.51234  0.32589  1.0000
  H   H15       1.0  0.34907  0.3143  0.47850000000000004  1.0000
  H   H16       1.0  0.35126  0.21307999999999994  0.39591  1.0000
  H   H17       1.0  0.6076199999999999  0.9394699999999998  0.53645  1.0000
  H   H18       1.0  0.39988000000000007  0.8793599999999999  0.39583  1.0000
  H   H19       1.0  0.2983299999999999  0.7750099999999998  0.47781  1.0000
  H   H20       1.0  0.34962999999999983  0.7560799999999998  0.59037  1.0000
  H   H21       1.0  0.59779  0.06132999999999999  0.2494  1.0000
  H   H22       1.0  0.4871999999999999  0.9553199999999997  0.32596  1.0000
  H   H23       1.0  0.68594  0.03488000000000001  0.47847  1.0000
  H   H24       1.0  0.7871700000000001  0.13833999999999994  0.39581  1.0000
  H   H25       1.0  0.33287  0.9396199999999998  0.9636800000000001  1.0000
  H   H26       1.0  0.47870999999999997  0.8794599999999998  0.10508  1.0000
  H   H27       1.0  0.47625  0.7756699999999997  0.0229  1.0000
  H   H28       1.0  0.4073999999999999  0.7572399999999998  0.9097599999999999  1.0000
  H   H29       1.0  0.46402  0.062289999999999984  0.25103  1.0000
  H   H30       1.0  0.46795999999999993  0.9559499999999997  0.17468  1.0000
  H   H31       1.0  0.3489900000000001  0.03399999999999999  0.02176  1.0000
  H   H32       1.0  0.35181  0.13775  0.10425  1.0000
  H   H33       1.0  0.60724  0.66767  0.96372  1.0000
  H   H34       1.0  0.40019000000000005  0.521  0.10473000000000002  1.0000
  H   H35       1.0  0.2986299999999999  0.5235499999999997  0.0228  1.0000
  H   H36       1.0  0.3494599999999999  0.5928499999999998  0.90992  1.0000
  H   H37       1.0  0.5979  0.53612  0.25054  1.0000
  H   H38       1.0  0.4875499999999999  0.5321899999999998  0.17412  1.0000
  H   H39       1.0  0.6856199999999999  0.6510899999999997  0.02156  1.0000
  H   H40       1.0  0.78652  0.64815  0.10411999999999999  1.0000
  H   H41       1.0  0.06032  0.39243  0.9639099999999999  1.0000
  H   H42       1.0  0.12124999999999989  0.6004999999999998  0.10426000000000002  1.0000
  H   H43       1.0  0.2251999999999999  0.7018299999999997  0.02209  1.0000
  H   H44       1.0  0.2434299999999999  0.6506899999999998  0.90948  1.0000
  H   H45       1.0  0.93871  0.4025899999999999  0.25062  1.0000
  H   H46       1.0  0.04506000000000005  0.5131  0.1741  1.0000
  H   H47       1.0  0.9652400000000001  0.31416  0.02169  1.0000
  H   H48       1.0  0.86151  0.21314999999999995  0.10429000000000001  1.0000
  H   H49       1.0  0.9396300000000001  0.33275  0.4637899999999999  1.0000
  H   H50       1.0  0.8798099999999999  0.4790699999999999  0.60509  1.0000
  H   H51       1.0  0.7758199999999997  0.4763099999999999  0.52293  1.0000
  H   H52       1.0  0.75689  0.4068599999999999  0.41005  1.0000
  H   H53       1.0  0.06242999999999997  0.46378999999999987  0.75125  1.0000
  H   H54       1.0  0.95638  0.4682199999999999  0.6749  1.0000
  H   H55       1.0  0.03412999999999998  0.34918  0.52182  1.0000
  H   H56       1.0  0.13740000000000002  0.35122  0.60437  1.0000
  H   H57       1.0  0.66821  0.6077  0.46363999999999994  1.0000
  H   H58       1.0  0.52072  0.4004899999999999  0.60451  1.0000
  H   H59       1.0  0.52355  0.29885  0.52277  1.0000
  H   H60       1.0  0.59357  0.3498399999999999  0.41011  1.0000
  H   H61       1.0  0.53646  0.59812  0.7506  1.0000
  H   H62       1.0  0.5319799999999999  0.48765999999999987  0.67411  1.0000
  H   H63       1.0  0.65093  0.6857  0.5215  1.0000
  H   H64       1.0  0.64874  0.78692  0.60409  1.0000
  H   H65       1.0  0.39239  0.06052999999999999  0.4635500000000001  1.0000
  H   H66       1.0  0.60013  0.12063999999999997  0.60417  1.0000
  H   H67       1.0  0.70168  0.22498999999999994  0.52219  1.0000
  H   H68       1.0  0.6503699999999999  0.24392  0.40963000000000005  1.0000
  H   H69       1.0  0.40220999999999985  0.9386699999999998  0.7506  1.0000
  H   H70       1.0  0.5128  0.044680000000000004  0.67404  1.0000
  H   H71       1.0  0.3140699999999999  0.9651199999999998  0.52153  1.0000
  H   H72       1.0  0.21282999999999994  0.8616599999999998  0.60419  1.0000
  H   H73       1.0  0.66713  0.06037999999999999  0.03632  1.0000
  H   H74       1.0  0.5213  0.12054  0.8949200000000002  1.0000
  H   H75       1.0  0.52376  0.22432999999999995  0.9771  1.0000
  H   H76       1.0  0.5926  0.24275999999999995  0.09024  1.0000
  H   H77       1.0  0.5359799999999999  0.9377099999999998  0.74897  1.0000
  H   H78       1.0  0.5320400000000001  0.04404999999999999  0.82532  1.0000
  H   H79       1.0  0.6510099999999999  0.9659999999999997  0.9782400000000001  1.0000
  H   H80       1.0  0.6482  0.86225  0.8957500000000002  1.0000
  H   H81       1.0  0.39276999999999995  0.3323299999999999  0.03628  1.0000
  H   H82       1.0  0.59981  0.47899999999999987  0.89527  1.0000
  H   H83       1.0  0.7013700000000002  0.4764499999999999  0.9772  1.0000
  H   H84       1.0  0.6505499999999999  0.4071499999999999  0.09008  1.0000
  H   H85       1.0  0.40210999999999997  0.4638799999999999  0.74946  1.0000
  H   H86       1.0  0.51246  0.46780999999999995  0.8258800000000001  1.0000
  H   H87       1.0  0.31437999999999994  0.3489099999999999  0.9784400000000001  1.0000
  H   H88       1.0  0.21348000000000006  0.35185  0.89588  1.0000
  H   H89       1.0  0.9396799999999998  0.6075699999999998  0.03609  1.0000
  H   H90       1.0  0.87875  0.3994999999999999  0.89574  1.0000
  H   H91       1.0  0.7748  0.29817  0.9779100000000001  1.0000
  H   H92       1.0  0.75658  0.34931  0.09052  1.0000
  H   H93       1.0  0.061290000000000004  0.59741  0.74938  1.0000
  H   H94       1.0  0.9549500000000001  0.4868999999999999  0.8259  1.0000
  H   H95       1.0  0.034759999999999874  0.6858399999999998  0.9783099999999999  1.0000
  H   H96       1.0  0.13849999999999993  0.7868499999999998  0.8957  1.0000
  C   C1        1.0  0.1518699999999999  0.6342299999999997  0.56857  1.0000
  C   C2        1.0  0.0939799999999999  0.6340199999999998  0.52141  1.0000
  C   C3        1.0  0.08021999999999986  0.5933399999999998  0.45805000000000007  1.0000
  C   C4        1.0  0.12865999999999989  0.5535399999999998  0.4431  1.0000
  C   C5        1.0  0.18721000000000002  0.55429  0.48972000000000004  1.0000
  C   C6        1.0  0.19875  0.5937  0.55287  1.0000
  C   C7        1.0  0.16423  0.68018  0.63461  1.0000
  C   C8        1.0  0.94679  0.56145  0.3001  1.0000
  C   C9        1.0  0.006209999999999853  0.5595799999999997  0.3435  1.0000
  C   C10       1.0  0.01742  0.59281  0.41002999999999995  1.0000
  C   C11       1.0  0.9637399999999999  0.62569  0.42776  1.0000
  C   C12       1.0  0.9053799999999997  0.6250999999999998  0.38193  1.0000
  C   C13       1.0  0.36529000000000006  0.51741  0.56863  1.0000
  C   C14       1.0  0.36529000000000006  0.45948  0.5216  1.0000
  C   C15       1.0  0.40624999999999994  0.4866499999999999  0.45846  1.0000
  C   C16       1.0  0.44638  0.57527  0.44351  1.0000
  C   C17       1.0  0.44555000000000006  0.63326  0.48988  1.0000
  C   C18       1.0  0.40589000000000003  0.6051799999999999  0.55287  1.0000
  C   C19       1.0  0.31971  0.48373  0.63472  1.0000
  C   C20       1.0  0.4384  0.38556  0.30069  1.0000
  C   C21       1.0  0.44028999999999996  0.4468399999999999  0.34415  1.0000
  C   C22       1.0  0.40697000000000005  0.42436  0.41054000000000007  1.0000
  C   C23       1.0  0.37420999999999993  0.3374999999999999  0.42815000000000003  1.0000
  C   C24       1.0  0.37485  0.2797599999999999  0.38228  1.0000
  C   C25       1.0  0.4824499999999998  0.8476799999999998  0.56884  1.0000
  C   C26       1.0  0.5403499999999998  0.9057399999999998  0.52178  1.0000
  C   C27       1.0  0.5130699999999999  0.9194899999999998  0.45866  1.0000
  C   C28       1.0  0.4242999999999999  0.8708799999999998  0.44383999999999996  1.0000
  C   C29       1.0  0.3663199999999998  0.8120999999999998  0.49034  1.0000
  C   C30       1.0  0.39453999999999995  0.8005499999999998  0.55327  1.0000
  C   C31       1.0  0.5162  0.83538  0.63473  1.0000
  C   C32       1.0  0.61417  0.05260999999999998  0.30072  1.0000
  C   C33       1.0  0.55282  0.9931899999999998  0.34423  1.0000
  C   C34       1.0  0.57542  0.9824699999999997  0.41062999999999994  1.0000
  C   C35       1.0  0.66252  0.03669  0.42816  1.0000
  C   C36       1.0  0.7203200000000001  0.09511  0.38225  1.0000
  C   C37       1.0  0.36609  0.84829  0.93126  1.0000
  C   C38       1.0  0.36616999999999994  0.90607  0.97846  1.0000
  C   C39       1.0  0.40660999999999986  0.9197099999999998  0.04186  1.0000
  C   C40       1.0  0.4462900000000001  0.87116  0.05684  1.0000
  C   C41       1.0  0.44573999999999997  0.8127499999999998  0.01019  1.0000
  C   C42       1.0  0.40668999999999983  0.8014599999999997  0.9468899999999999  1.0000
  C   C43       1.0  0.3196499999999999  0.8359899999999998  0.8655099999999999  1.0000
  C   C44       1.0  0.43883000000000005  0.05319999999999998  0.1997  1.0000
  C   C45       1.0  0.4404199999999999  0.9936099999999998  0.15631  1.0000
  C   C46       1.0  0.4071099999999999  0.9824999999999998  0.08985  1.0000
  C   C47       1.0  0.37433000000000005  0.03626  0.07212  1.0000
  C   C48       1.0  0.37527  0.09480999999999998  0.11794  1.0000
  C   C49       1.0  0.48239999999999983  0.6344399999999998  0.93132  1.0000
  C   C50       1.0  0.5400999999999999  0.6342199999999998  0.97843  1.0000
  C   C51       1.0  0.51303  0.59345  0.04162  1.0000
  C   C52       1.0  0.4244399999999998  0.5535499999999998  0.05657  1.0000
  C   C53       1.0  0.36648999999999987  0.5542399999999997  0.01006  1.0000
  C   C54       1.0  0.39455  0.59362  0.94694  1.0000
  C   C55       1.0  0.51676  0.6808  0.86556  1.0000
  C   C56       1.0  0.61417  0.5612699999999998  0.19927  1.0000
  C   C57       1.0  0.553  0.55965  0.15586  1.0000
  C   C58       1.0  0.5754599999999999  0.5929299999999997  0.08949  1.0000
  C   C59       1.0  0.6623  0.62571  0.07184  1.0000
  C   C60       1.0  0.71992  0.62477  0.11769  1.0000
  C   C61       1.0  0.15211999999999995  0.51759  0.9310999999999999  1.0000
  C   C62       1.0  0.09417999999999992  0.4597999999999999  0.9783099999999999  1.0000
  C   C63       1.0  0.08054999999999993  0.4871299999999999  0.04143  1.0000
  C   C64       1.0  0.12934  0.57593  0.05621  1.0000
  C   C65       1.0  0.1879299999999999  0.6338199999999998  0.0096  1.0000
  C   C66       1.0  0.1991599999999999  0.6055899999999997  0.9465600000000001  1.0000
  C   C67       1.0  0.16439999999999994  0.4833399999999999  0.86542  1.0000
  C   C68       1.0  0.94742  0.3861799999999999  0.19933  1.0000
  C   C69       1.0  0.006959999999999988  0.44747  0.15584  1.0000
  C   C70       1.0  0.017589999999999984  0.42479  0.08946  1.0000
  C   C71       1.0  0.9633400000000001  0.33767999999999987  0.07194  1.0000
  C   C72       1.0  0.9048200000000001  0.2799799999999999  0.11784  1.0000
  C   C73       1.0  0.8481300000000002  0.36577  0.43143  1.0000
  C   C74       1.0  0.9060199999999999  0.36599  0.47859  1.0000
  C   C75       1.0  0.9197800000000002  0.40665999999999997  0.54195  1.0000
  C   C76       1.0  0.8713499999999998  0.4464599999999999  0.5569  1.0000
  C   C77       1.0  0.8128  0.44571  0.51028  1.0000
  C   C78       1.0  0.8012500000000001  0.4062999999999999  0.44712999999999997  1.0000
  C   C79       1.0  0.83577  0.3198199999999999  0.36539  1.0000
  C   C80       1.0  0.053209999999999945  0.4385499999999999  0.6999  1.0000
  C   C81       1.0  0.9937899999999997  0.4404299999999999  0.6565  1.0000
  C   C82       1.0  0.98259  0.4071899999999999  0.58997  1.0000
  C   C83       1.0  0.03627  0.37431  0.57224  1.0000
  C   C84       1.0  0.09463  0.3749  0.61807  1.0000
  C   C85       1.0  0.63472  0.4826  0.43137  1.0000
  C   C86       1.0  0.63472  0.54052  0.47839999999999994  1.0000
  C   C87       1.0  0.5937600000000001  0.5133599999999998  0.54154  1.0000
  C   C88       1.0  0.5536199999999999  0.4247299999999999  0.55649  1.0000
  C   C89       1.0  0.55446  0.3667399999999999  0.51011  1.0000
  C   C90       1.0  0.59411  0.3948199999999999  0.44712999999999997  1.0000
  C   C91       1.0  0.68029  0.51627  0.36528  1.0000
  C   C92       1.0  0.5616099999999999  0.6144499999999998  0.69931  1.0000
  C   C93       1.0  0.55971  0.55316  0.65584  1.0000
  C   C94       1.0  0.59303  0.57564  0.58946  1.0000
  C   C95       1.0  0.6258  0.6624999999999998  0.57185  1.0000
  C   C96       1.0  0.62515  0.7202499999999997  0.61772  1.0000
  C   C97       1.0  0.51756  0.15232  0.43115999999999993  1.0000
  C   C98       1.0  0.45965000000000006  0.09425999999999997  0.4782199999999999  1.0000
  C   C99       1.0  0.48693000000000003  0.08052  0.54134  1.0000
  C   C100      1.0  0.57571  0.12912  0.55616  1.0000
  C   C101      1.0  0.6336899999999999  0.18789999999999996  0.50966  1.0000
  C   C102      1.0  0.60546  0.19945  0.44673000000000007  1.0000
  C   C103      1.0  0.48380000000000006  0.16462999999999994  0.36527  1.0000
  C   C104      1.0  0.38582999999999984  0.9473899999999997  0.69928  1.0000
  C   C105      1.0  0.44718  0.006809999999999998  0.65577  1.0000
  C   C106      1.0  0.42458  0.01753  0.58937  1.0000
  C   C107      1.0  0.33748  0.9633099999999998  0.57184  1.0000
  C   C108      1.0  0.27968999999999994  0.9048899999999998  0.61775  1.0000
  C   C109      1.0  0.63392  0.15171  0.06874  1.0000
  C   C110      1.0  0.6338300000000001  0.09392999999999997  0.02154  1.0000
  C   C111      1.0  0.5934000000000001  0.08029  0.95814  1.0000
  C   C112      1.0  0.55371  0.12884  0.94316  1.0000
  C   C113      1.0  0.55426  0.18725999999999995  0.9898100000000001  1.0000
  C   C114      1.0  0.5933200000000001  0.19853999999999994  0.05311  1.0000
  C   C115      1.0  0.68036  0.16400999999999993  0.13449  1.0000
  C   C116      1.0  0.56117  0.9467999999999998  0.8003  1.0000
  C   C117      1.0  0.5595900000000001  0.006389999999999997  0.8436899999999999  1.0000
  C   C118      1.0  0.5929  0.017499999999999995  0.9101500000000001  1.0000
  C   C119      1.0  0.62567  0.9637399999999998  0.92788  1.0000
  C   C120      1.0  0.62474  0.90519  0.88206  1.0000
  C   C121      1.0  0.51761  0.36556  0.06868  1.0000
  C   C122      1.0  0.45990000000000003  0.36578  0.02157  1.0000
  C   C123      1.0  0.4869800000000001  0.40656  0.95838  1.0000
  C   C124      1.0  0.57557  0.4464499999999999  0.9434300000000001  1.0000
  C   C125      1.0  0.6335199999999999  0.4457599999999999  0.9899399999999999  1.0000
  C   C126      1.0  0.60545  0.40638999999999986  0.05306  1.0000
  C   C127      1.0  0.48325000000000007  0.3192  0.13444  1.0000
  C   C128      1.0  0.38582999999999995  0.4387299999999999  0.80073  1.0000
  C   C129      1.0  0.4470099999999999  0.44034999999999996  0.84414  1.0000
  C   C130      1.0  0.42454  0.4070799999999999  0.9105100000000002  1.0000
  C   C131      1.0  0.3377  0.3742899999999999  0.92816  1.0000
  C   C132      1.0  0.28009  0.37523  0.88231  1.0000
  C   C133      1.0  0.8478799999999999  0.4824099999999999  0.0689  1.0000
  C   C134      1.0  0.9058299999999999  0.5401999999999998  0.02169  1.0000
  C   C135      1.0  0.91946  0.51287  0.95857  1.0000
  C   C136      1.0  0.8706699999999999  0.4240799999999999  0.94379  1.0000
  C   C137      1.0  0.8120699999999998  0.3661799999999999  0.9904  1.0000
  C   C138      1.0  0.8008499999999998  0.3944199999999999  0.05344  1.0000
  C   C139      1.0  0.8356099999999999  0.5166599999999998  0.13458  1.0000
  C   C140      1.0  0.052579999999999925  0.6138199999999998  0.80067  1.0000
  C   C141      1.0  0.9930399999999999  0.55253  0.8441599999999999  1.0000
  C   C142      1.0  0.9824100000000001  0.57522  0.91054  1.0000
  C   C143      1.0  0.0366699999999999  0.6623199999999998  0.92806  1.0000
  C   C144      1.0  0.0951799999999999  0.7200199999999998  0.8821599999999999  1.0000
  N   N1        1.0  0.89653  0.5940199999999998  0.31808  1.0000
  N   N2        1.0  0.40587  0.30239  0.31852  1.0000
  N   N3        1.0  0.6975  0.10339999999999998  0.3185  1.0000
  N   N4        1.0  0.4065  0.10365999999999997  0.18172  1.0000
  N   N5        1.0  0.69722  0.5935599999999998  0.18138  1.0000
  N   N6        1.0  0.8965  0.30286  0.18154  1.0000
  N   N7        1.0  0.10346999999999996  0.4059799999999999  0.68192  1.0000
  N   N8        1.0  0.59414  0.6976099999999997  0.68148  1.0000
  N   N9        1.0  0.3024999999999999  0.8965999999999997  0.6815  1.0000
  N   N10       1.0  0.5935  0.8963399999999998  0.81828  1.0000
  N   N11       1.0  0.30278  0.40645  0.81862  1.0000
  N   N12       1.0  0.10349999999999993  0.6971399999999998  0.8184600000000001  1.0000
  O   O1        1.0  0.12262999999999989  0.7185599999999998  0.64625  1.0000
  O   O2        1.0  0.21855  0.68059  0.67696  1.0000
  O   O3        1.0  0.28167  0.4034999999999999  0.6465  1.0000
  O   O4        1.0  0.31921999999999984  0.5377699999999997  0.67691  1.0000
  O   O5        1.0  0.59646  0.8779299999999998  0.64657  1.0000
  O   O6        1.0  0.46216000000000007  0.7802699999999998  0.67669  1.0000
  O   O7        1.0  0.2808499999999999  0.8773299999999998  0.8549699999999999  1.0000
  O   O8        1.0  0.3191599999999999  0.7821199999999998  0.82251  1.0000
  O   O9        1.0  0.5971500000000001  0.71976  0.85469  1.0000
  O   O10       1.0  0.46295000000000003  0.68088  0.8228199999999999  1.0000
  O   O11       1.0  0.12321999999999995  0.4028199999999999  0.85482  1.0000
  O   O12       1.0  0.21807  0.53716  0.8224599999999999  1.0000
  O   O13       1.0  0.8773699999999999  0.2814399999999999  0.35375  1.0000
  O   O14       1.0  0.78145  0.31941  0.32304  1.0000
  O   O15       1.0  0.71833  0.59651  0.3535  1.0000
  O   O16       1.0  0.68078  0.46222999999999986  0.32309  1.0000
  O   O17       1.0  0.40354  0.12207  0.35343  1.0000
  O   O18       1.0  0.53785  0.21972999999999998  0.32331  1.0000
  O   O19       1.0  0.71916  0.12266999999999997  0.14503  1.0000
  O   O20       1.0  0.68084  0.21787999999999993  0.17749  1.0000
  O   O21       1.0  0.40285  0.28023999999999993  0.14531  1.0000
  O   O22       1.0  0.5370599999999999  0.3191299999999999  0.17718  1.0000
  O   O23       1.0  0.87679  0.59718  0.14518  1.0000
  O   O24       1.0  0.78194  0.46283999999999986  0.17754  1.0000
