data_image0
_chemical_formula_structural       Cd4H96C136N8O24
_chemical_formula_sum              "Cd4 H96 C136 N8 O24"
_cell_length_a       9.44774
_cell_length_b       12.17558
_cell_length_c       29.15646
_cell_angle_alpha    90.0
_cell_angle_beta     90.0
_cell_angle_gamma    90.0

_space_group_name_H-M_alt    "P 1"
_space_group_IT_number       1

loop_
  _space_group_symop_operation_xyz
  'x, y, z'

loop_
  _atom_site_type_symbol
  _atom_site_label
  _atom_site_symmetry_multiplicity
  _atom_site_fract_x
  _atom_site_fract_y
  _atom_site_fract_z
  _atom_site_occupancy
  Cd  Cd1       1.0  0.50142  0.84638  0.026460000000000004  1.0000
  Cd  Cd2       1.0  0.50142  0.15362  0.97354  1.0000
  Cd  Cd3       1.0  0.00142  0.84638  0.47354  1.0000
  Cd  Cd4       1.0  0.00142  0.15362  0.5264600000000002  1.0000
  H   H1        1.0  0.74564  0.51681  0.08520000000000003  1.0000
  H   H2        1.0  0.80165  0.37773  0.14693000000000006  1.0000
  H   H3        1.0  0.5666  0.57261  0.24395000000000006  1.0000
  H   H4        1.0  0.5089  0.70632  0.18178  1.0000
  H   H5        1.0  0.74168  0.48039  0.29002  1.0000
  H   H6        1.0  0.57683  0.41178  0.2807900000000001  1.0000
  H   H7        1.0  0.70219  0.03148  0.3171000000000001  1.0000
  H   H8        1.0  0.91721  0.05594  0.36554  1.0000
  H   H9        1.0  0.02523  0.24073  0.37364000000000014  1.0000
  H   H10       1.0  0.9177600000000001  0.40044  0.33365  1.0000
  H   H11       1.0  0.58913  0.17065  0.23232000000000005  1.0000
  H   H12       1.0  0.48872000000000004  0.25666  0.2687  1.0000
  H   H13       1.0  0.48377000000000003  0.24178  0.34875  1.0000
  H   H14       1.0  0.29308  0.9426699999999999  0.29923  1.0000
  H   H15       1.0  0.33452  0.23144  0.41854  1.0000
  H   H16       1.0  0.14021  0.93509  0.36925000000000013  1.0000
  H   H17       1.0  0.55775  0.62883  0.9587200000000002  1.0000
  H   H18       1.0  0.4215  0.47729  0.92052  1.0000
  H   H19       1.0  0.15621  0.47651  0.9272000000000002  1.0000
  H   H20       1.0  0.9379399999999999  0.56145  0.96065  1.0000
  H   H21       1.0  0.82654  0.70794  0.00819  1.0000
  H   H22       1.0  0.8495800000000001  0.8820599999999998  0.05208000000000001  1.0000
  H   H23       1.0  0.00711  0.02859  0.08493000000000002  1.0000
  H   H24       1.0  0.26907  0.01792  0.06987  1.0000
  H   H25       1.0  0.74564  0.4832  0.9148000000000002  1.0000
  H   H26       1.0  0.80164  0.62227  0.8530600000000003  1.0000
  H   H27       1.0  0.5666  0.42738999999999994  0.75605  1.0000
  H   H28       1.0  0.5089  0.29369  0.81822  1.0000
  H   H29       1.0  0.74168  0.51961  0.70998  1.0000
  H   H30       1.0  0.57683  0.58822  0.71921  1.0000
  H   H31       1.0  0.70219  0.96852  0.6829  1.0000
  H   H32       1.0  0.91721  0.94407  0.6344500000000002  1.0000
  H   H33       1.0  0.02523  0.75927  0.62636  1.0000
  H   H34       1.0  0.9177600000000001  0.59956  0.66635  1.0000
  H   H35       1.0  0.58913  0.8293599999999999  0.76768  1.0000
  H   H36       1.0  0.48872000000000004  0.74334  0.7313000000000002  1.0000
  H   H37       1.0  0.48377000000000003  0.75822  0.6512500000000002  1.0000
  H   H38       1.0  0.29308  0.05733  0.70077  1.0000
  H   H39       1.0  0.33452  0.76856  0.58146  1.0000
  H   H40       1.0  0.14021  0.06491  0.63075  1.0000
  H   H41       1.0  0.55775  0.37117  0.04128  1.0000
  H   H42       1.0  0.4215  0.52271  0.07948  1.0000
  H   H43       1.0  0.15621  0.52349  0.0728  1.0000
  H   H44       1.0  0.9379399999999999  0.43854999999999994  0.03935  1.0000
  H   H45       1.0  0.82654  0.29206  0.9918100000000002  1.0000
  H   H46       1.0  0.8495800000000001  0.11793999999999999  0.9479200000000002  1.0000
  H   H47       1.0  0.00711  0.97142  0.91507  1.0000
  H   H48       1.0  0.26907  0.98208  0.93012  1.0000
  H   H49       1.0  0.24563999999999997  0.51681  0.41480000000000006  1.0000
  H   H50       1.0  0.30165  0.37773  0.35307  1.0000
  H   H51       1.0  0.0666  0.57261  0.25605  1.0000
  H   H52       1.0  0.0089  0.70632  0.3182200000000001  1.0000
  H   H53       1.0  0.24168  0.48039  0.20998  1.0000
  H   H54       1.0  0.07683  0.41178  0.21921000000000004  1.0000
  H   H55       1.0  0.20219  0.03148  0.18290000000000006  1.0000
  H   H56       1.0  0.41721  0.05594  0.13446  1.0000
  H   H57       1.0  0.52523  0.24073  0.12636  1.0000
  H   H58       1.0  0.41776  0.40044  0.16635  1.0000
  H   H59       1.0  0.08913  0.17065  0.26768  1.0000
  H   H60       1.0  0.9887200000000002  0.25666  0.2313  1.0000
  H   H61       1.0  0.98377  0.24178  0.15125000000000002  1.0000
  H   H62       1.0  0.79308  0.9426699999999999  0.20077  1.0000
  H   H63       1.0  0.83452  0.23144  0.08146  1.0000
  H   H64       1.0  0.64021  0.93509  0.13075  1.0000
  H   H65       1.0  0.05776  0.62883  0.54128  1.0000
  H   H66       1.0  0.9215000000000001  0.47729  0.57948  1.0000
  H   H67       1.0  0.6562  0.47651  0.5728  1.0000
  H   H68       1.0  0.43794  0.56145  0.53935  1.0000
  H   H69       1.0  0.32654  0.70794  0.49181000000000014  1.0000
  H   H70       1.0  0.34958  0.8820599999999998  0.44792  1.0000
  H   H71       1.0  0.50711  0.02859  0.4150700000000001  1.0000
  H   H72       1.0  0.76907  0.01792  0.4301300000000001  1.0000
  H   H73       1.0  0.24563999999999997  0.4832  0.5852000000000003  1.0000
  H   H74       1.0  0.30165  0.62227  0.64693  1.0000
  H   H75       1.0  0.0666  0.42738999999999994  0.74395  1.0000
  H   H76       1.0  0.0089  0.29369  0.68178  1.0000
  H   H77       1.0  0.24168  0.51961  0.7900200000000001  1.0000
  H   H78       1.0  0.07683  0.58822  0.78078  1.0000
  H   H79       1.0  0.20219  0.96852  0.8171  1.0000
  H   H80       1.0  0.41721  0.94407  0.8655400000000002  1.0000
  H   H81       1.0  0.52523  0.75927  0.8736400000000001  1.0000
  H   H82       1.0  0.41776  0.59956  0.83365  1.0000
  H   H83       1.0  0.08913  0.8293599999999999  0.73232  1.0000
  H   H84       1.0  0.9887200000000002  0.74334  0.7687000000000003  1.0000
  H   H85       1.0  0.98377  0.75822  0.8487500000000002  1.0000
  H   H86       1.0  0.79308  0.05733  0.79923  1.0000
  H   H87       1.0  0.83452  0.76856  0.91854  1.0000
  H   H88       1.0  0.64021  0.06491  0.86925  1.0000
  H   H89       1.0  0.05776  0.37117  0.4587200000000001  1.0000
  H   H90       1.0  0.9215000000000001  0.52271  0.42052  1.0000
  H   H91       1.0  0.6562  0.52349  0.4272  1.0000
  H   H92       1.0  0.43794  0.43854999999999994  0.4606500000000001  1.0000
  H   H93       1.0  0.32654  0.29206  0.50819  1.0000
  H   H94       1.0  0.34958  0.11793999999999999  0.5520800000000002  1.0000
  H   H95       1.0  0.50711  0.97142  0.58493  1.0000
  H   H96       1.0  0.76907  0.98208  0.56987  1.0000
  C   C1        1.0  0.59028  0.69868  0.09257  1.0000
  C   C2        1.0  0.6247  0.61959  0.12997  1.0000
  C   C3        1.0  0.70786  0.5269  0.1202  1.0000
  C   C4        1.0  0.73973  0.45099  0.15403  1.0000
  C   C5        1.0  0.69008  0.46761  0.19897  1.0000
  C   C6        1.0  0.60662  0.55959  0.20943000000000006  1.0000
  C   C7        1.0  0.57413  0.63463  0.17469000000000007  1.0000
  C   C8        1.0  0.69261  0.40405  0.2776  1.0000
  C   C9        1.0  0.74973  0.30637  0.30292000000000013  1.0000
  C   C10       1.0  0.68849  0.20138999999999999  0.29791000000000006  1.0000
  C   C11       1.0  0.75011  0.11218  0.3207000000000001  1.0000
  C   C12       1.0  0.87052  0.12584  0.3478900000000001  1.0000
  C   C13       1.0  0.9308199999999999  0.22987  0.35284  1.0000
  C   C14       1.0  0.8704400000000001  0.31932  0.33032  1.0000
  C   C15       1.0  0.55885  0.18459  0.26821  1.0000
  C   C16       1.0  0.39746  0.09235  0.31928  1.0000
  C   C17       1.0  0.40819  0.17525  0.35264  1.0000
  C   C18       1.0  0.30053  0.00575  0.32557  1.0000
  C   C19       1.0  0.32442  0.16948999999999997  0.39189000000000007  1.0000
  C   C20       1.0  0.21558999999999998  0.00205  0.3645800000000001  1.0000
  C   C21       1.0  0.22770000000000004  0.08365  0.3986  1.0000
  C   C22       1.0  0.13942  0.08195  0.4410000000000001  1.0000
  C   C23       1.0  0.44258  0.62662  0.9600000000000002  1.0000
  C   C24       1.0  0.36544  0.54167  0.93889  1.0000
  C   C25       1.0  0.21956000000000003  0.5417  0.9425200000000002  1.0000
  C   C26       1.0  0.15105  0.62586  0.9675  1.0000
  C   C27       1.0  0.00139  0.6275  0.9752100000000001  1.0000
  C   C28       1.0  0.93966  0.70792  0.0011500000000000004  1.0000
  C   C29       1.0  0.02336  0.7948100000000001  0.02036  1.0000
  C   C30       1.0  0.9635200000000002  0.88077  0.04659  1.0000
  C   C31       1.0  0.05027  0.96157  0.06462  1.0000
  C   C32       1.0  0.19663  0.95617  0.056410000000000016  1.0000
  C   C33       1.0  0.17236  0.7962299999999999  0.013570000000000004  1.0000
  C   C34       1.0  0.23766999999999996  0.70913  0.98715  1.0000
  C   C35       1.0  0.59028  0.30132  0.9074300000000002  1.0000
  C   C36       1.0  0.62469  0.38041  0.87003  1.0000
  C   C37       1.0  0.70786  0.47311  0.8798  1.0000
  C   C38       1.0  0.73973  0.54901  0.84597  1.0000
  C   C39       1.0  0.69008  0.53239  0.8010300000000002  1.0000
  C   C40       1.0  0.60662  0.44041  0.7905700000000002  1.0000
  C   C41       1.0  0.57413  0.36537  0.8253100000000002  1.0000
  C   C42       1.0  0.69261  0.59595  0.7224  1.0000
  C   C43       1.0  0.74973  0.69363  0.69708  1.0000
  C   C44       1.0  0.68849  0.7986199999999999  0.70209  1.0000
  C   C45       1.0  0.75011  0.88782  0.6793  1.0000
  C   C46       1.0  0.87052  0.87416  0.6521100000000002  1.0000
  C   C47       1.0  0.9308199999999999  0.77014  0.64716  1.0000
  C   C48       1.0  0.8704400000000001  0.68068  0.66968  1.0000
  C   C49       1.0  0.55885  0.81542  0.73179  1.0000
  C   C50       1.0  0.39746  0.90766  0.68072  1.0000
  C   C51       1.0  0.40819  0.8247499999999999  0.6473600000000003  1.0000
  C   C52       1.0  0.30053  0.99426  0.67442  1.0000
  C   C53       1.0  0.32442  0.83052  0.6081100000000003  1.0000
  C   C54       1.0  0.21558999999999998  0.99795  0.63542  1.0000
  C   C55       1.0  0.22770000000000004  0.91635  0.6014  1.0000
  C   C56       1.0  0.13942  0.91805  0.559  1.0000
  C   C57       1.0  0.44258  0.37337999999999993  0.040000000000000015  1.0000
  C   C58       1.0  0.36544  0.45833  0.06111  1.0000
  C   C59       1.0  0.21956000000000003  0.4583  0.05748000000000002  1.0000
  C   C60       1.0  0.15105  0.37414  0.0325  1.0000
  C   C61       1.0  0.00139  0.3725  0.024780000000000003  1.0000
  C   C62       1.0  0.93965  0.29208  0.99885  1.0000
  C   C63       1.0  0.02336  0.20519  0.9796400000000002  1.0000
  C   C64       1.0  0.9635200000000002  0.11923  0.95341  1.0000
  C   C65       1.0  0.05027  0.03844  0.93538  1.0000
  C   C66       1.0  0.19663  0.04383  0.9435900000000003  1.0000
  C   C67       1.0  0.17236  0.20377  0.9864300000000003  1.0000
  C   C68       1.0  0.23766999999999996  0.29087  0.01285  1.0000
  C   C69       1.0  0.09028  0.69868  0.40743  1.0000
  C   C70       1.0  0.1247  0.61959  0.37003  1.0000
  C   C71       1.0  0.20786  0.5269  0.37980000000000014  1.0000
  C   C72       1.0  0.23973  0.45099  0.3459700000000001  1.0000
  C   C73       1.0  0.19008  0.46761  0.30103  1.0000
  C   C74       1.0  0.10662  0.55959  0.29057000000000005  1.0000
  C   C75       1.0  0.07413  0.63463  0.3253100000000001  1.0000
  C   C76       1.0  0.19262  0.40405  0.2224  1.0000
  C   C77       1.0  0.24973000000000004  0.30637  0.19708  1.0000
  C   C78       1.0  0.18849  0.20138  0.20209000000000005  1.0000
  C   C79       1.0  0.25011  0.11218  0.17930000000000004  1.0000
  C   C80       1.0  0.37052  0.12584  0.15211000000000005  1.0000
  C   C81       1.0  0.43082000000000004  0.22987  0.14716000000000007  1.0000
  C   C82       1.0  0.37044  0.31932  0.16968  1.0000
  C   C83       1.0  0.058850000000000006  0.18459  0.23179000000000005  1.0000
  C   C84       1.0  0.8974599999999999  0.09235  0.18072  1.0000
  C   C85       1.0  0.90819  0.17525  0.14736  1.0000
  C   C86       1.0  0.80053  0.00575  0.17442000000000005  1.0000
  C   C87       1.0  0.82442  0.16948999999999997  0.10811000000000003  1.0000
  C   C88       1.0  0.71559  0.00205  0.13542000000000004  1.0000
  C   C89       1.0  0.7277  0.08365  0.10140000000000003  1.0000
  C   C90       1.0  0.63942  0.08195  0.05900000000000001  1.0000
  C   C91       1.0  0.9425799999999999  0.62662  0.54  1.0000
  C   C92       1.0  0.86544  0.54167  0.56111  1.0000
  C   C93       1.0  0.71955  0.5417  0.55748  1.0000
  C   C94       1.0  0.65105  0.62586  0.5325  1.0000
  C   C95       1.0  0.50138  0.6275  0.52478  1.0000
  C   C96       1.0  0.43966  0.70792  0.49885  1.0000
  C   C97       1.0  0.52336  0.7948100000000001  0.47964  1.0000
  C   C98       1.0  0.46353000000000005  0.88077  0.4534100000000001  1.0000
  C   C99       1.0  0.55028  0.96157  0.4353800000000001  1.0000
  C   C100      1.0  0.69663  0.95617  0.4435900000000001  1.0000
  C   C101      1.0  0.67236  0.7962299999999999  0.4864300000000001  1.0000
  C   C102      1.0  0.73767  0.70913  0.51285  1.0000
  C   C103      1.0  0.09028  0.30132  0.59257  1.0000
  C   C104      1.0  0.1247  0.38041  0.62997  1.0000
  C   C105      1.0  0.20786  0.47311  0.6202  1.0000
  C   C106      1.0  0.23973  0.54901  0.65403  1.0000
  C   C107      1.0  0.19008  0.53239  0.6989700000000002  1.0000
  C   C108      1.0  0.10662  0.44041  0.7094300000000002  1.0000
  C   C109      1.0  0.07413  0.36537  0.6746900000000002  1.0000
  C   C110      1.0  0.19262  0.59595  0.7776  1.0000
  C   C111      1.0  0.24973000000000004  0.69363  0.80292  1.0000
  C   C112      1.0  0.18849  0.7986199999999999  0.79791  1.0000
  C   C113      1.0  0.25011  0.88782  0.82069  1.0000
  C   C114      1.0  0.37052  0.87416  0.8478900000000003  1.0000
  C   C115      1.0  0.43082000000000004  0.77014  0.85284  1.0000
  C   C116      1.0  0.37044  0.68068  0.83032  1.0000
  C   C117      1.0  0.058850000000000006  0.81542  0.76821  1.0000
  C   C118      1.0  0.8974599999999999  0.90766  0.8192700000000003  1.0000
  C   C119      1.0  0.90819  0.8247499999999999  0.85263  1.0000
  C   C120      1.0  0.80053  0.99426  0.82557  1.0000
  C   C121      1.0  0.82442  0.83052  0.8918900000000002  1.0000
  C   C122      1.0  0.71559  0.99795  0.86458  1.0000
  C   C123      1.0  0.7277  0.91635  0.8986  1.0000
  C   C124      1.0  0.63942  0.91805  0.94099  1.0000
  C   C125      1.0  0.9425799999999999  0.37337999999999993  0.46  1.0000
  C   C126      1.0  0.86544  0.45833  0.4388900000000001  1.0000
  C   C127      1.0  0.71955  0.4583  0.44252  1.0000
  C   C128      1.0  0.65105  0.37414  0.4675  1.0000
  C   C129      1.0  0.50138  0.3725  0.4752200000000001  1.0000
  C   C130      1.0  0.43966  0.29208  0.5011500000000001  1.0000
  C   C131      1.0  0.52336  0.20519  0.5203600000000002  1.0000
  C   C132      1.0  0.46353000000000005  0.11923  0.54659  1.0000
  C   C133      1.0  0.55028  0.03844  0.56462  1.0000
  C   C134      1.0  0.69663  0.04383  0.5564  1.0000
  C   C135      1.0  0.67236  0.20377  0.51357  1.0000
  C   C136      1.0  0.73767  0.29087  0.4871500000000001  1.0000
  N   N1        1.0  0.38054  0.7080399999999999  0.9829600000000002  1.0000
  N   N2        1.0  0.25583  0.87612  0.03171  1.0000
  N   N3        1.0  0.38054  0.29196  0.01704  1.0000
  N   N4        1.0  0.25583  0.12389  0.96829  1.0000
  N   N5        1.0  0.88054  0.7080399999999999  0.51704  1.0000
  N   N6        1.0  0.75583  0.87612  0.46829  1.0000
  N   N7        1.0  0.88054  0.29196  0.4829600000000001  1.0000
  N   N8        1.0  0.75583  0.12389  0.5317100000000001  1.0000
  O   O1        1.0  0.17794  0.14428  0.47416  1.0000
  O   O2        1.0  0.64267  0.68286  0.05287  1.0000
  O   O3        1.0  0.02836  0.02212  0.4421600000000001  1.0000
  O   O4        1.0  0.50692  0.77894  0.10181000000000003  1.0000
  O   O5        1.0  0.72927  0.38828  0.22962000000000005  1.0000
  O   O6        1.0  0.47729000000000005  0.08831999999999998  0.2801300000000001  1.0000
  O   O7        1.0  0.17794  0.85572  0.52584  1.0000
  O   O8        1.0  0.64267  0.31714  0.9471300000000001  1.0000
  O   O9        1.0  0.02836  0.9778799999999999  0.55784  1.0000
  O   O10       1.0  0.50692  0.22106  0.89819  1.0000
  O   O11       1.0  0.72927  0.61173  0.7703800000000002  1.0000
  O   O12       1.0  0.47729000000000005  0.91168  0.71987  1.0000
  O   O13       1.0  0.67794  0.14428  0.025840000000000005  1.0000
  O   O14       1.0  0.14267  0.68286  0.44713  1.0000
  O   O15       1.0  0.52836  0.02212  0.057840000000000016  1.0000
  O   O16       1.0  0.006910000000000001  0.77894  0.39819  1.0000
  O   O17       1.0  0.22927999999999998  0.38828  0.27038  1.0000
  O   O18       1.0  0.97729  0.08831999999999998  0.21987000000000007  1.0000
  O   O19       1.0  0.67794  0.85572  0.97416  1.0000
  O   O20       1.0  0.14267  0.31714  0.55287  1.0000
  O   O21       1.0  0.52836  0.9778799999999999  0.94215  1.0000
  O   O22       1.0  0.006910000000000001  0.22106  0.60181  1.0000
  O   O23       1.0  0.22927999999999998  0.61173  0.7296200000000003  1.0000
  O   O24       1.0  0.97729  0.91168  0.78013  1.0000
