data_image0
_chemical_formula_structural       Cd8H112C144N24O16
_chemical_formula_sum              "Cd8 H112 C144 N24 O16"
_cell_length_a       15.79264
_cell_length_b       16.44984
_cell_length_c       19.218920000000004
_cell_angle_alpha    78.6423
_cell_angle_beta     65.75601
_cell_angle_gamma    61.32986

_space_group_name_H-M_alt    "P 1"
_space_group_IT_number       1

loop_
  _space_group_symop_operation_xyz
  'x, y, z'

loop_
  _atom_site_type_symbol
  _atom_site_label
  _atom_site_symmetry_multiplicity
  _atom_site_fract_x
  _atom_site_fract_y
  _atom_site_fract_z
  _atom_site_occupancy
  Cd  Cd1       1.0  0.6322400000000001  0.53102  0.09468  1.0000
  Cd  Cd2       1.0  0.27251999999999993  0.9690300000000001  0.09473  1.0000
  Cd  Cd3       1.0  0.8365800000000001  0.53093  0.4053600000000001  1.0000
  Cd  Cd4       1.0  0.75827  0.9690200000000001  0.4052500000000001  1.0000
  Cd  Cd5       1.0  0.36775  0.46898  0.90532  1.0000
  Cd  Cd6       1.0  0.72747  0.030970000000000008  0.90527  1.0000
  Cd  Cd7       1.0  0.16341  0.46907  0.59463  1.0000
  Cd  Cd8       1.0  0.24172999999999997  0.03098  0.59475  1.0000
  H   H1        1.0  0.6581599999999999  0.79167  0.81413  1.0000
  H   H2        1.0  0.7469099999999999  0.71474  0.86596  1.0000
  H   H3        1.0  0.5222799999999999  0.45075  0.26077000000000006  1.0000
  H   H4        1.0  0.35618  0.44392  0.3307  1.0000
  H   H5        1.0  0.30622  0.5026  0.11660000000000001  1.0000
  H   H6        1.0  0.47279  0.50956  0.05614  1.0000
  H   H7        1.0  0.7913400000000002  0.22315  0.9458500000000001  1.0000
  H   H8        1.0  0.67924  0.33274  0.05208000000000001  1.0000
  H   H9        1.0  0.8461999999999998  0.4873500000000001  0.96372  1.0000
  H   H10       1.0  0.9686399999999995  0.38223000000000007  0.8530600000000003  1.0000
  H   H11       1.0  0.94882  0.10655  0.87508  1.0000
  H   H12       1.0  0.07541000000000002  0.00941  0.76076  1.0000
  H   H13       1.0  0.11105000000000002  0.23464  0.63242  1.0000
  H   H14       1.0  0.9903599999999999  0.33973  0.74239  1.0000
  H   H15       1.0  0.5272099999999995  0.70853  0.8139000000000001  1.0000
  H   H16       1.0  0.3864500000000001  0.78526  0.86568  1.0000
  H   H17       1.0  0.2167  0.04938  0.2607  1.0000
  H   H18       1.0  0.31302  0.056050000000000016  0.33058  1.0000
  H   H19       1.0  0.5771199999999999  0.99694  0.11637  1.0000
  H   H20       1.0  0.47066  0.99025  0.05613000000000001  1.0000
  H   H21       1.0  0.26297  0.27666  0.94594  1.0000
  H   H22       1.0  0.26853  0.16702  0.05213  1.0000
  H   H23       1.0  0.18990000000000007  0.01269  0.9634599999999999  1.0000
  H   H24       1.0  0.17829000000000006  0.11793  0.85285  1.0000
  H   H25       1.0  0.17649999999999996  0.39339  0.87509  1.0000
  H   H26       1.0  0.16411000000000003  0.49069  0.7608600000000001  1.0000
  H   H27       1.0  0.25651  0.2656  0.63238  1.0000
  H   H28       1.0  0.2673899999999999  0.16039  0.7422300000000002  1.0000
  H   H29       1.0  0.54957  0.7914800000000002  0.68603  1.0000
  H   H30       1.0  0.5382000000000001  0.7145  0.634  1.0000
  H   H31       1.0  0.026739999999999924  0.4509100000000001  0.23931000000000002  1.0000
  H   H32       1.0  0.19967999999999994  0.44405  0.16937000000000005  1.0000
  H   H33       1.0  0.1910300000000002  0.50265  0.38347  1.0000
  H   H34       1.0  0.01752999999999999  0.50953  0.44397  1.0000
  H   H35       1.0  0.98537  0.22326  0.55407  1.0000
  H   H36       1.0  0.9878299999999998  0.33296  0.4479200000000001  1.0000
  H   H37       1.0  0.6662899999999999  0.4873500000000001  0.53636  1.0000
  H   H38       1.0  0.6490799999999999  0.38216000000000006  0.64699  1.0000
  H   H39       1.0  0.94476  0.10683  0.62499  1.0000
  H   H40       1.0  0.91528  0.00952  0.7391500000000001  1.0000
  H   H41       1.0  0.65449  0.2346  0.8676200000000001  1.0000
  H   H42       1.0  0.67007  0.33971  0.7577000000000003  1.0000
  H   H43       1.0  0.76406  0.70871  0.68619  1.0000
  H   H44       1.0  0.8280599999999999  0.78537  0.6343000000000001  1.0000
  H   H45       1.0  0.7340800000000002  0.04887  0.23915  1.0000
  H   H46       1.0  0.63104  0.05569000000000001  0.16927000000000003  1.0000
  H   H47       1.0  0.4257  0.99708  0.3835  1.0000
  H   H48       1.0  0.5387799999999999  0.99041  0.44379  1.0000
  H   H49       1.0  0.46062  0.27654  0.55402  1.0000
  H   H50       1.0  0.56455  0.16679000000000002  0.44787  1.0000
  H   H51       1.0  0.7974600000000001  0.01243  0.53649  1.0000
  H   H52       1.0  0.70386  0.1177  0.64713  1.0000
  H   H53       1.0  0.43024  0.3930400000000001  0.62497  1.0000
  H   H54       1.0  0.34563  0.49053  0.73905  1.0000
  H   H55       1.0  0.47787999999999986  0.26557  0.86764  1.0000
  H   H56       1.0  0.57211  0.16027  0.7578500000000001  1.0000
  H   H57       1.0  0.3418300000000001  0.20834  0.18586000000000005  1.0000
  H   H58       1.0  0.25309  0.2852600000000001  0.13404  1.0000
  H   H59       1.0  0.47772000000000003  0.54925  0.73923  1.0000
  H   H60       1.0  0.6438200000000001  0.55608  0.6693  1.0000
  H   H61       1.0  0.6937699999999998  0.4974  0.8834000000000002  1.0000
  H   H62       1.0  0.5271999999999999  0.49045  0.94386  1.0000
  H   H63       1.0  0.20865  0.77685  0.054140000000000015  1.0000
  H   H64       1.0  0.32075999999999977  0.6672600000000001  0.9479200000000001  1.0000
  H   H65       1.0  0.1538  0.51266  0.03628  1.0000
  H   H66       1.0  0.03135999999999996  0.61777  0.14694  1.0000
  H   H67       1.0  0.05117000000000001  0.89346  0.12491  1.0000
  H   H68       1.0  0.9245899999999999  0.9905900000000001  0.23924  1.0000
  H   H69       1.0  0.8889400000000001  0.76536  0.36758  1.0000
  H   H70       1.0  0.009639999999999984  0.66028  0.2576  1.0000
  H   H71       1.0  0.4727799999999999  0.29148  0.18609000000000003  1.0000
  H   H72       1.0  0.61355  0.21474000000000004  0.13431  1.0000
  H   H73       1.0  0.7832999999999999  0.9506300000000002  0.7393  1.0000
  H   H74       1.0  0.68698  0.94395  0.66942  1.0000
  H   H75       1.0  0.42288  0.0030600000000000007  0.88363  1.0000
  H   H76       1.0  0.52934  0.009750000000000002  0.94386  1.0000
  H   H77       1.0  0.7370300000000001  0.72334  0.05406  1.0000
  H   H78       1.0  0.73147  0.83298  0.94787  1.0000
  H   H79       1.0  0.8101000000000002  0.98731  0.03653  1.0000
  H   H80       1.0  0.82171  0.88207  0.14714  1.0000
  H   H81       1.0  0.8234999999999999  0.60662  0.12490000000000001  1.0000
  H   H82       1.0  0.8358900000000001  0.50932  0.23913  1.0000
  H   H83       1.0  0.74349  0.73441  0.3676100000000001  1.0000
  H   H84       1.0  0.7325999999999999  0.83962  0.25777  1.0000
  H   H85       1.0  0.4504199999999999  0.20853  0.31397  1.0000
  H   H86       1.0  0.46179999999999993  0.28551  0.366  1.0000
  H   H87       1.0  0.9732599999999999  0.54909  0.76068  1.0000
  H   H88       1.0  0.8003199999999999  0.55595  0.83062  1.0000
  H   H89       1.0  0.8089599999999996  0.49735  0.6165300000000002  1.0000
  H   H90       1.0  0.9824599999999999  0.49048  0.55603  1.0000
  H   H91       1.0  0.014629999999999956  0.77675  0.4459300000000001  1.0000
  H   H92       1.0  0.012169999999999943  0.6670400000000001  0.55208  1.0000
  H   H93       1.0  0.33370000000000005  0.51266  0.46364  1.0000
  H   H94       1.0  0.35091  0.61784  0.3530100000000001  1.0000
  H   H95       1.0  0.055240000000000046  0.89317  0.37501  1.0000
  H   H96       1.0  0.08472000000000002  0.99049  0.26085  1.0000
  H   H97       1.0  0.34551  0.76541  0.13238  1.0000
  H   H98       1.0  0.32992  0.6603  0.2423  1.0000
  H   H99       1.0  0.23593999999999998  0.29129  0.31381000000000003  1.0000
  H   H100      1.0  0.17194  0.21464000000000003  0.36570000000000014  1.0000
  H   H101      1.0  0.2659099999999999  0.95113  0.76085  1.0000
  H   H102      1.0  0.3689500000000001  0.94431  0.83072  1.0000
  H   H103      1.0  0.5743  0.00292  0.6165  1.0000
  H   H104      1.0  0.46120999999999995  0.00959  0.5562  1.0000
  H   H105      1.0  0.5393800000000001  0.72346  0.44598  1.0000
  H   H106      1.0  0.43545000000000006  0.83321  0.55213  1.0000
  H   H107      1.0  0.20253999999999994  0.98757  0.46351000000000003  1.0000
  H   H108      1.0  0.29613  0.8823  0.35287  1.0000
  H   H109      1.0  0.5697500000000003  0.60696  0.37503  1.0000
  H   H110      1.0  0.6543599999999997  0.50948  0.26095  1.0000
  H   H111      1.0  0.52211  0.73444  0.13235  1.0000
  H   H112      1.0  0.42789  0.8397400000000002  0.24215  1.0000
  C   C1        1.0  0.6142899999999999  0.66649  0.9823600000000001  1.0000
  C   C2        1.0  0.59398  0.73031  0.9173600000000001  1.0000
  C   C3        1.0  0.67054  0.74668  0.86226  1.0000
  C   C4        1.0  0.47218  0.46196  0.23077000000000003  1.0000
  C   C5        1.0  0.3783200000000001  0.4590300000000001  0.26999  1.0000
  C   C6        1.0  0.31345  0.47289  0.23059  1.0000
  C   C7        1.0  0.35145999999999994  0.48954  0.15106  1.0000
  C   C8        1.0  0.4452900000000001  0.49311  0.11645000000000001  1.0000
  C   C9        1.0  0.8092399999999996  0.27903  0.94698  1.0000
  C   C10       1.0  0.74515  0.3405400000000001  0.007430000000000001  1.0000
  C   C11       1.0  0.83864  0.42708  0.95761  1.0000
  C   C12       1.0  0.9048  0.36937  0.89514  1.0000
  C   C13       1.0  0.8921399999999998  0.2922  0.8873  1.0000
  C   C14       1.0  0.9598899999999999  0.23278  0.82096  1.0000
  C   C15       1.0  0.9837499999999997  0.13766  0.8229800000000003  1.0000
  C   C16       1.0  0.054180000000000034  0.08302  0.75913  1.0000
  C   C17       1.0  0.07515999999999988  0.20856000000000002  0.6875200000000002  1.0000
  C   C18       1.0  0.00809999999999999  0.26673  0.74962  1.0000
  C   C19       1.0  0.4025299999999999  0.83367  0.9822300000000002  1.0000
  C   C20       1.0  0.48778999999999995  0.7697900000000002  0.9172500000000001  1.0000
  C   C21       1.0  0.4665099999999999  0.7534700000000001  0.86204  1.0000
  C   C22       1.0  0.29677  0.038190000000000016  0.2307  1.0000
  C   C23       1.0  0.35158000000000006  0.04099  0.26986  1.0000
  C   C24       1.0  0.4559099999999999  0.027010000000000006  0.23047000000000004  1.0000
  C   C25       1.0  0.49735999999999997  0.01028  0.15094000000000002  1.0000
  C   C26       1.0  0.43794  0.00686  0.11640000000000002  1.0000
  C   C27       1.0  0.24375  0.22092  0.94701  1.0000
  C   C28       1.0  0.24722  0.15938000000000002  0.00744  1.0000
  C   C29       1.0  0.2035099999999999  0.07298000000000002  0.9574700000000002  1.0000
  C   C30       1.0  0.19995000000000004  0.13074  0.89503  1.0000
  C   C31       1.0  0.22052  0.20786000000000002  0.88726  1.0000
  C   C32       1.0  0.21917  0.26729  0.82093  1.0000
  C   C33       1.0  0.19344000000000006  0.36239  0.82299  1.0000
  C   C34       1.0  0.18678999999999993  0.41711000000000004  0.7591900000000001  1.0000
  C   C35       1.0  0.23724999999999993  0.29166  0.68751  1.0000
  C   C36       1.0  0.24227999999999997  0.2334  0.74956  1.0000
  C   C37       1.0  0.7188499999999997  0.66635  0.5178300000000002  1.0000
  C   C38       1.0  0.6753899999999999  0.73027  0.58277  1.0000
  C   C39       1.0  0.5825399999999998  0.74648  0.6378200000000003  1.0000
  C   C40       1.0  0.06566999999999999  0.46205  0.26931  1.0000
  C   C41       1.0  0.16247  0.45911000000000013  0.23009000000000002  1.0000
  C   C42       1.0  0.21351000000000003  0.47292  0.2695  1.0000
  C   C43       1.0  0.15883999999999995  0.48957  0.34902  1.0000
  C   C44       1.0  0.06143999999999991  0.49314  0.3836400000000001  1.0000
  C   C45       1.0  0.9116000000000003  0.27909  0.5529600000000001  1.0000
  C   C46       1.0  0.91415  0.34061000000000013  0.49254000000000003  1.0000
  C   C47       1.0  0.73412  0.42706  0.54241  1.0000
  C   C48       1.0  0.7257299999999999  0.36934  0.6048600000000002  1.0000
  C   C49       1.0  0.81557  0.29222  0.61267  1.0000
  C   C50       1.0  0.8072899999999997  0.23286000000000004  0.6790400000000002  1.0000
  C   C51       1.0  0.8786200000000001  0.13781  0.67705  1.0000
  C   C52       1.0  0.8628299999999999  0.08309000000000002  0.74082  1.0000
  C   C53       1.0  0.71636  0.20852  0.81249  1.0000
  C   C54       1.0  0.7252500000000001  0.26672  0.75042  1.0000
  C   C55       1.0  0.7637600000000001  0.83353  0.51777  1.0000
  C   C56       1.0  0.7421299999999998  0.7698100000000002  0.5828200000000001  1.0000
  C   C57       1.0  0.77969  0.7536300000000001  0.63802  1.0000
  C   C58       1.0  0.66507  0.03787  0.26916  1.0000
  C   C59       1.0  0.60744  0.04075  0.23  1.0000
  C   C60       1.0  0.5169699999999999  0.02696  0.26941  1.0000
  C   C61       1.0  0.49218999999999996  0.01032  0.34895  1.0000
  C   C62       1.0  0.55502  0.00687  0.3835  1.0000
  C   C63       1.0  0.53553  0.22077000000000005  0.55295  1.0000
  C   C64       1.0  0.5935099999999999  0.15922  0.49253  1.0000
  C   C65       1.0  0.7236199999999999  0.07277  0.54247  1.0000
  C   C66       1.0  0.6694600000000002  0.13053  0.60492  1.0000
  C   C67       1.0  0.5718099999999999  0.20767  0.6127  1.0000
  C   C68       1.0  0.51374  0.26708  0.6790600000000002  1.0000
  C   C69       1.0  0.4444099999999998  0.36215000000000014  0.67702  1.0000
  C   C70       1.0  0.3964699999999999  0.41696  0.7407600000000002  1.0000
  C   C71       1.0  0.4712400000000001  0.29159  0.81247  1.0000
  C   C72       1.0  0.5243800000000001  0.23328  0.75046  1.0000
  C   C73       1.0  0.3857  0.33352000000000004  0.01764  1.0000
  C   C74       1.0  0.40602  0.2697  0.08263000000000001  1.0000
  C   C75       1.0  0.3294500000000001  0.25332  0.13774  1.0000
  C   C76       1.0  0.52781  0.53805  0.76922  1.0000
  C   C77       1.0  0.6216700000000001  0.54097  0.73001  1.0000
  C   C78       1.0  0.6865499999999995  0.52711  0.7694100000000003  1.0000
  C   C79       1.0  0.6485400000000003  0.51046  0.84893  1.0000
  C   C80       1.0  0.55471  0.50689  0.8835500000000001  1.0000
  C   C81       1.0  0.19076000000000007  0.72097  0.05302  1.0000
  C   C82       1.0  0.2548500000000001  0.6594700000000002  0.99257  1.0000
  C   C83       1.0  0.16134999999999997  0.5729300000000002  0.04239  1.0000
  C   C84       1.0  0.09519  0.63064  0.10485000000000003  1.0000
  C   C85       1.0  0.10785999999999996  0.7078100000000002  0.1127  1.0000
  C   C86       1.0  0.0400999999999999  0.7672200000000002  0.17903  1.0000
  C   C87       1.0  0.01623999999999998  0.86234  0.17701000000000003  1.0000
  C   C88       1.0  0.94581  0.91698  0.24086  1.0000
  C   C89       1.0  0.9248299999999999  0.7914500000000002  0.31248  1.0000
  C   C90       1.0  0.9919  0.73328  0.25038  1.0000
  C   C91       1.0  0.59747  0.16633  0.01777  1.0000
  C   C92       1.0  0.5122  0.23022000000000006  0.08275  1.0000
  C   C93       1.0  0.53348  0.24653  0.13796000000000003  1.0000
  C   C94       1.0  0.70322  0.96181  0.7693000000000002  1.0000
  C   C95       1.0  0.6484200000000003  0.95901  0.73013  1.0000
  C   C96       1.0  0.5440900000000002  0.97299  0.76953  1.0000
  C   C97       1.0  0.50264  0.98972  0.8490600000000003  1.0000
  C   C98       1.0  0.5620499999999997  0.99315  0.8836000000000003  1.0000
  C   C99       1.0  0.75625  0.77908  0.05299  1.0000
  C   C100      1.0  0.7527800000000004  0.84062  0.9925600000000001  1.0000
  C   C101      1.0  0.79648  0.92703  0.04252  1.0000
  C   C102      1.0  0.80005  0.86926  0.10497000000000001  1.0000
  C   C103      1.0  0.77947  0.79214  0.11273  1.0000
  C   C104      1.0  0.7808199999999998  0.73271  0.17906  1.0000
  C   C105      1.0  0.80656  0.6376200000000001  0.177  1.0000
  C   C106      1.0  0.8132000000000004  0.58289  0.24081  1.0000
  C   C107      1.0  0.76275  0.70834  0.31248  1.0000
  C   C108      1.0  0.75771  0.7666  0.25044  1.0000
  C   C109      1.0  0.28115000000000007  0.33365000000000006  0.48217  1.0000
  C   C110      1.0  0.3246  0.26973  0.41723  1.0000
  C   C111      1.0  0.41745  0.25353  0.36218  1.0000
  C   C112      1.0  0.9343200000000002  0.53796  0.73069  1.0000
  C   C113      1.0  0.83753  0.5409  0.7699  1.0000
  C   C114      1.0  0.7864799999999998  0.52709  0.7305000000000003  1.0000
  C   C115      1.0  0.8411600000000001  0.51043  0.65097  1.0000
  C   C116      1.0  0.9385500000000001  0.50687  0.6163500000000001  1.0000
  C   C117      1.0  0.08839999999999992  0.72091  0.4470400000000001  1.0000
  C   C118      1.0  0.08584999999999986  0.6593900000000003  0.50746  1.0000
  C   C119      1.0  0.26587  0.5729400000000001  0.45759000000000005  1.0000
  C   C120      1.0  0.27426999999999996  0.63067  0.39514000000000005  1.0000
  C   C121      1.0  0.18442999999999996  0.7077800000000002  0.3873300000000001  1.0000
  C   C122      1.0  0.19269999999999998  0.7671400000000002  0.32096  1.0000
  C   C123      1.0  0.12138000000000003  0.86219  0.32295  1.0000
  C   C124      1.0  0.13717  0.91691  0.25917  1.0000
  C   C125      1.0  0.28363999999999984  0.7914900000000002  0.18751  1.0000
  C   C126      1.0  0.27475  0.73328  0.24958000000000002  1.0000
  C   C127      1.0  0.23623000000000005  0.16647  0.48223  1.0000
  C   C128      1.0  0.2578699999999998  0.23019000000000003  0.4171800000000001  1.0000
  C   C129      1.0  0.22031000000000003  0.24637000000000003  0.36197  1.0000
  C   C130      1.0  0.33491999999999994  0.96213  0.73083  1.0000
  C   C131      1.0  0.3925599999999999  0.95925  0.7700000000000001  1.0000
  C   C132      1.0  0.48303000000000007  0.97305  0.73059  1.0000
  C   C133      1.0  0.5078099999999999  0.98968  0.65105  1.0000
  C   C134      1.0  0.4449699999999998  0.99314  0.61649  1.0000
  C   C135      1.0  0.4644599999999999  0.77923  0.4470500000000001  1.0000
  C   C136      1.0  0.4064800000000002  0.84078  0.50747  1.0000
  C   C137      1.0  0.27637999999999996  0.92724  0.45753000000000005  1.0000
  C   C138      1.0  0.3305399999999999  0.8694700000000002  0.39508  1.0000
  C   C139      1.0  0.42818000000000006  0.79233  0.3873  1.0000
  C   C140      1.0  0.48625999999999997  0.73292  0.32094  1.0000
  C   C141      1.0  0.5555799999999999  0.6378600000000002  0.32297  1.0000
  C   C142      1.0  0.60353  0.58304  0.25924  1.0000
  C   C143      1.0  0.52876  0.70841  0.18752  1.0000
  C   C144      1.0  0.47562000000000004  0.76672  0.24953  1.0000
  N   N1        1.0  0.5074199999999999  0.47912000000000005  0.15455  1.0000
  N   N2        1.0  0.75841  0.41444000000000003  0.014210000000000004  1.0000
  N   N3        1.0  0.10111000000000005  0.11619  0.69125  1.0000
  N   N4        1.0  0.33767  0.021020000000000004  0.15449  1.0000
  N   N5        1.0  0.22709  0.08554  0.01415  1.0000
  N   N6        1.0  0.20757  0.38404  0.69129  1.0000
  N   N7        1.0  0.013289999999999972  0.47915  0.3455400000000001  1.0000
  N   N8        1.0  0.8269600000000003  0.41446000000000005  0.4858  1.0000
  N   N9        1.0  0.78271  0.11614  0.80871  1.0000
  N   N10       1.0  0.6412500000000001  0.020860000000000007  0.3454  1.0000
  N   N11       1.0  0.68743  0.08537  0.48582000000000003  1.0000
  N   N12       1.0  0.40875  0.38398  0.8086500000000002  1.0000
  N   N13       1.0  0.4925700000000002  0.52089  0.84545  1.0000
  N   N14       1.0  0.24157999999999982  0.58556  0.9857900000000002  1.0000
  N   N15       1.0  0.89888  0.88382  0.30875  1.0000
  N   N16       1.0  0.66232  0.97898  0.84551  1.0000
  N   N17       1.0  0.7729  0.91446  0.98584  1.0000
  N   N18       1.0  0.7924199999999999  0.6159700000000001  0.30871  1.0000
  N   N19       1.0  0.9867099999999999  0.52085  0.65446  1.0000
  N   N20       1.0  0.17303000000000007  0.58554  0.51419  1.0000
  N   N21       1.0  0.21729  0.88386  0.19129  1.0000
  N   N22       1.0  0.3587399999999999  0.97915  0.6546  1.0000
  N   N23       1.0  0.3125699999999999  0.91464  0.5141800000000001  1.0000
  N   N24       1.0  0.5912399999999999  0.6160200000000001  0.19135  1.0000
  O   O1        1.0  0.54404  0.6395  0.02337  1.0000
  O   O2        1.0  0.6981399999999999  0.63859  0.99321  1.0000
  O   O3        1.0  0.43189000000000005  0.86051  0.02327  1.0000
  O   O4        1.0  0.3078299999999997  0.8616200000000003  0.9931200000000001  1.0000
  O   O5        1.0  0.8160900000000001  0.63933  0.47681000000000007  1.0000
  O   O6        1.0  0.66284  0.63848  0.5070400000000002  1.0000
  O   O7        1.0  0.7079000000000002  0.86011  0.4765  1.0000
  O   O8        1.0  0.8303299999999998  0.8616500000000002  0.50705  1.0000
  O   O9        1.0  0.4559599999999999  0.36050000000000004  0.97663  1.0000
  O   O10       1.0  0.30186  0.36141  0.0067800000000000004  1.0000
  O   O11       1.0  0.5681000000000002  0.13949  0.97673  1.0000
  O   O12       1.0  0.6921700000000001  0.13838  0.00688  1.0000
  O   O13       1.0  0.18390000000000006  0.3606700000000001  0.5231900000000002  1.0000
  O   O14       1.0  0.33716  0.36153  0.49296000000000006  1.0000
  O   O15       1.0  0.2921  0.13989000000000004  0.52349  1.0000
  O   O16       1.0  0.16967000000000007  0.13836  0.49295000000000005  1.0000
