data_image0
_chemical_formula_structural       Cd8H112C192S8N32O32
_chemical_formula_sum              "Cd8 H112 C192 S8 N32 O32"
_cell_length_a       16.28876
_cell_length_b       16.18152
_cell_length_c       20.32263
_cell_angle_alpha    90.0
_cell_angle_beta     90.0
_cell_angle_gamma    90.00045

_symmetry_space_group_name_H-M    'P 1'
_symmetry_Int_Tables_number       1

loop_
  _symmetry_equiv_pos_as_xyz
  'x,y,z'

loop_
  _atom_site_type_symbol
  _atom_site_label
  _atom_site_symmetry_multiplicity
  _atom_site_fract_x
  _atom_site_fract_y
  _atom_site_fract_z
  _atom_site_occupancy
  Cd  Cd1       1.0  0.91229  0.61574  0.32177  1.0000
  Cd  Cd2       1.0  0.08774999999999997  0.61573  0.17858  1.0000
  Cd  Cd3       1.0  0.41229  0.61574  0.67823  1.0000
  Cd  Cd4       1.0  0.58774  0.61573  0.82142  1.0000
  Cd  Cd5       1.0  0.58771  0.38426  0.32177  1.0000
  Cd  Cd6       1.0  0.41225  0.38428  0.17858  1.0000
  Cd  Cd7       1.0  0.08770999999999997  0.38426  0.67823  1.0000
  Cd  Cd8       1.0  0.91225  0.38428  0.82142  1.0000
  H   H1        1.0  0.8076499999999998  0.46839  0.27531  1.0000
  H   H2        1.0  0.7991999999999998  0.31752  0.27079  1.0000
  H   H3        1.0  0.04317  0.30892  0.35609  1.0000
  H   H4        1.0  0.03923  0.46308  0.35967  1.0000
  H   H5        1.0  0.97811  0.03995  0.40161  1.0000
  H   H6        1.0  0.97923  0.19139  0.4034  1.0000
  H   H7        1.0  0.03956  0.92487  0.35396  1.0000
  H   H8        1.0  0.79903  0.91987  0.26442  1.0000
  H   H9        1.0  0.8065899999999998  0.76561  0.26837  1.0000
  H   H10       1.0  0.03452  0.77025  0.35727  1.0000
  H   H11       1.0  0.29628  0.62509  0.33602000000000004  1.0000
  H   H12       1.0  0.37904  0.62624  0.44126000000000004  1.0000
  H   H13       1.0  0.15779  0.60721  0.55354  1.0000
  H   H14       1.0  0.07414  0.60748  0.44949000000000006  1.0000
  H   H15       1.0  0.19235  0.46838000000000013  0.22469  1.0000
  H   H16       1.0  0.20079  0.31751  0.22922  1.0000
  H   H17       1.0  0.95683  0.30892  0.14392000000000002  1.0000
  H   H18       1.0  0.96077  0.4631  0.14033  1.0000
  H   H19       1.0  0.02187  0.03996  0.09838000000000001  1.0000
  H   H20       1.0  0.02076  0.1914  0.09659  1.0000
  H   H21       1.0  0.9604399999999997  0.92486  0.14604  1.0000
  H   H22       1.0  0.20097  0.91988  0.23559  1.0000
  H   H23       1.0  0.19342  0.76562  0.23163  1.0000
  H   H24       1.0  0.96549  0.77023  0.14273000000000002  1.0000
  H   H25       1.0  0.70353  0.62509  0.16393  1.0000
  H   H26       1.0  0.62082  0.62626  0.05874  1.0000
  H   H27       1.0  0.84218  0.60723  0.94659  1.0000
  H   H28       1.0  0.92568  0.60749  0.05056000000000001  1.0000
  H   H29       1.0  0.30765  0.46839  0.72469  1.0000
  H   H30       1.0  0.2992  0.31752  0.72921  1.0000
  H   H31       1.0  0.54317  0.30892  0.64391  1.0000
  H   H32       1.0  0.53923  0.46308  0.64033  1.0000
  H   H33       1.0  0.47811  0.03995  0.59839  1.0000
  H   H34       1.0  0.47923  0.19139  0.5966  1.0000
  H   H35       1.0  0.53956  0.92487  0.64604  1.0000
  H   H36       1.0  0.29903  0.91987  0.73558  1.0000
  H   H37       1.0  0.30659  0.76561  0.7316200000000002  1.0000
  H   H38       1.0  0.53452  0.77025  0.64273  1.0000
  H   H39       1.0  0.79628  0.62509  0.66398  1.0000
  H   H40       1.0  0.87904  0.62624  0.55874  1.0000
  H   H41       1.0  0.65779  0.60721  0.44646  1.0000
  H   H42       1.0  0.57413  0.60748  0.55051  1.0000
  H   H43       1.0  0.69235  0.46838000000000013  0.7753100000000002  1.0000
  H   H44       1.0  0.70078  0.31751  0.77078  1.0000
  H   H45       1.0  0.4568299999999999  0.30892  0.85608  1.0000
  H   H46       1.0  0.46077  0.4631  0.85967  1.0000
  H   H47       1.0  0.52187  0.03996  0.9016200000000001  1.0000
  H   H48       1.0  0.52076  0.1914  0.90341  1.0000
  H   H49       1.0  0.46044  0.92486  0.8539600000000002  1.0000
  H   H50       1.0  0.70097  0.91988  0.76441  1.0000
  H   H51       1.0  0.69342  0.76562  0.76837  1.0000
  H   H52       1.0  0.46549  0.77023  0.85727  1.0000
  H   H53       1.0  0.20354  0.62509  0.8360700000000001  1.0000
  H   H54       1.0  0.12082  0.62626  0.94126  1.0000
  H   H55       1.0  0.34218  0.60723  0.053410000000000006  1.0000
  H   H56       1.0  0.42568  0.60749  0.94944  1.0000
  H   H57       1.0  0.69234  0.53161  0.27531  1.0000
  H   H58       1.0  0.70079  0.68248  0.27079  1.0000
  H   H59       1.0  0.4568299999999999  0.69109  0.35609  1.0000
  H   H60       1.0  0.46077  0.53692  0.35967  1.0000
  H   H61       1.0  0.52188  0.96005  0.40161  1.0000
  H   H62       1.0  0.52076  0.80861  0.4034  1.0000
  H   H63       1.0  0.46044  0.07513  0.35396  1.0000
  H   H64       1.0  0.70096  0.08014  0.26442  1.0000
  H   H65       1.0  0.69341  0.2344  0.26837  1.0000
  H   H66       1.0  0.46548  0.22975000000000007  0.35727  1.0000
  H   H67       1.0  0.20371999999999996  0.37492  0.33602000000000004  1.0000
  H   H68       1.0  0.12096  0.37376  0.44126000000000004  1.0000
  H   H69       1.0  0.34221  0.39279  0.55354  1.0000
  H   H70       1.0  0.42586  0.39253  0.44949000000000006  1.0000
  H   H71       1.0  0.30765  0.53162  0.22469  1.0000
  H   H72       1.0  0.29921  0.68249  0.22922  1.0000
  H   H73       1.0  0.54317  0.69108  0.14392000000000002  1.0000
  H   H74       1.0  0.53922  0.53691  0.14033  1.0000
  H   H75       1.0  0.47813  0.96004  0.09838000000000001  1.0000
  H   H76       1.0  0.47923  0.8086  0.09659  1.0000
  H   H77       1.0  0.53956  0.07514  0.14604  1.0000
  H   H78       1.0  0.29903  0.08013  0.23559  1.0000
  H   H79       1.0  0.30658  0.23438  0.23163  1.0000
  H   H80       1.0  0.53451  0.22977  0.14273000000000002  1.0000
  H   H81       1.0  0.79646  0.37491  0.16393  1.0000
  H   H82       1.0  0.8791799999999997  0.37375  0.05874  1.0000
  H   H83       1.0  0.65782  0.39278  0.94659  1.0000
  H   H84       1.0  0.5743199999999998  0.39252  0.05056000000000001  1.0000
  H   H85       1.0  0.19234  0.53161  0.72469  1.0000
  H   H86       1.0  0.20079  0.68248  0.72921  1.0000
  H   H87       1.0  0.95683  0.69109  0.64391  1.0000
  H   H88       1.0  0.9607599999999997  0.53692  0.64033  1.0000
  H   H89       1.0  0.02188  0.96005  0.59839  1.0000
  H   H90       1.0  0.02076  0.80861  0.5966  1.0000
  H   H91       1.0  0.96043  0.07513  0.64604  1.0000
  H   H92       1.0  0.20096  0.08014  0.73558  1.0000
  H   H93       1.0  0.19341  0.2344  0.73163  1.0000
  H   H94       1.0  0.96547  0.22975000000000007  0.64273  1.0000
  H   H95       1.0  0.70371  0.37492  0.66398  1.0000
  H   H96       1.0  0.6209599999999997  0.37376  0.55874  1.0000
  H   H97       1.0  0.84221  0.39279  0.44646  1.0000
  H   H98       1.0  0.92586  0.39253  0.55051  1.0000
  H   H99       1.0  0.8076499999999998  0.53162  0.7753100000000002  1.0000
  H   H100      1.0  0.79921  0.68249  0.77078  1.0000
  H   H101      1.0  0.04317  0.69108  0.85608  1.0000
  H   H102      1.0  0.03922  0.53691  0.85967  1.0000
  H   H103      1.0  0.9781199999999998  0.96004  0.9016200000000001  1.0000
  H   H104      1.0  0.97923  0.8086  0.90341  1.0000
  H   H105      1.0  0.03956  0.07514  0.8539600000000002  1.0000
  H   H106      1.0  0.79903  0.08013  0.76441  1.0000
  H   H107      1.0  0.80658  0.23438  0.76837  1.0000
  H   H108      1.0  0.03451  0.22977  0.85727  1.0000
  H   H109      1.0  0.29646  0.37491  0.8360700000000001  1.0000
  H   H110      1.0  0.37918  0.37375  0.94126  1.0000
  H   H111      1.0  0.15782  0.39278  0.053410000000000006  1.0000
  H   H112      1.0  0.07432  0.39252  0.94944  1.0000
  C   C1        1.0  0.85856  0.43121  0.29303  1.0000
  C   C2        1.0  0.85464  0.3455800000000001  0.29007  1.0000
  C   C3        1.0  0.9210299999999998  0.29895  0.31308  1.0000
  C   C4        1.0  0.98887  0.34183  0.33915  1.0000
  C   C5        1.0  0.9877799999999999  0.42767  0.34038  1.0000
  C   C6        1.0  0.9198  0.20803  0.31074  1.0000
  C   C7        1.0  0.88471  0.16336  0.2568  1.0000
  C   C8        1.0  0.88405  0.07356  0.25562  1.0000
  C   C9        1.0  0.91825  0.0269  0.30879  1.0000
  C   C10       1.0  0.9522899999999997  0.07283  0.35975  1.0000
  C   C11       1.0  0.9530899999999998  0.16021  0.36082  1.0000
  C   C12       1.0  0.98528  0.8922  0.33664  1.0000
  C   C13       1.0  0.91835  0.93592  0.31014  1.0000
  C   C14       1.0  0.85236  0.8894  0.28541  1.0000
  C   C15       1.0  0.856  0.80363  0.28792  1.0000
  C   C16       1.0  0.98363  0.8062500000000002  0.33762  1.0000
  C   C17       1.0  0.1325  0.61681  0.32376  1.0000
  C   C18       1.0  0.18051  0.61674  0.3866  1.0000
  C   C19       1.0  0.2665  0.62167  0.38378  1.0000
  C   C20       1.0  0.3124  0.6225  0.44143  1.0000
  C   C21       1.0  0.27317  0.61773  0.50275  1.0000
  C   C22       1.0  0.1873  0.61194  0.50565  1.0000
  C   C23       1.0  0.14089  0.61175  0.44794  1.0000
  C   C24       1.0  0.32362  0.61845  0.56442  1.0000
  C   C25       1.0  0.14144  0.43119  0.20698  1.0000
  C   C26       1.0  0.14535  0.3455800000000001  0.20994  1.0000
  C   C27       1.0  0.07896  0.29895  0.18693  1.0000
  C   C28       1.0  0.01114  0.34184  0.16084  1.0000
  C   C29       1.0  0.01222  0.42767  0.15962  1.0000
  C   C30       1.0  0.08019  0.20803  0.18927  1.0000
  C   C31       1.0  0.11528  0.16335  0.24319  1.0000
  C   C32       1.0  0.11596999999999998  0.07355  0.24437  1.0000
  C   C33       1.0  0.08175999999999997  0.0269  0.19119  1.0000
  C   C34       1.0  0.0477  0.07284  0.14024  1.0000
  C   C35       1.0  0.04689999999999998  0.16022  0.13917  1.0000
  C   C36       1.0  0.01473  0.8921900000000003  0.16335000000000002  1.0000
  C   C37       1.0  0.08165999999999997  0.93592  0.18985000000000002  1.0000
  C   C38       1.0  0.14764999999999998  0.88941  0.21458  1.0000
  C   C39       1.0  0.14401  0.80364  0.21208  1.0000
  C   C40       1.0  0.016379999999999992  0.80623  0.16237  1.0000
  C   C41       1.0  0.86748  0.6168000000000002  0.17624  1.0000
  C   C42       1.0  0.81937  0.61673  0.11345  1.0000
  C   C43       1.0  0.73333  0.62167  0.11619  1.0000
  C   C44       1.0  0.68747  0.62251  0.0585  1.0000
  C   C45       1.0  0.72678  0.61775  0.99722  1.0000
  C   C46       1.0  0.81263  0.61195  0.9944200000000001  1.0000
  C   C47       1.0  0.85894  0.61175  0.05215000000000001  1.0000
  C   C48       1.0  0.67661  0.61841  0.9354100000000001  1.0000
  C   C49       1.0  0.35856  0.43121  0.70697  1.0000
  C   C50       1.0  0.35464  0.3455800000000001  0.70993  1.0000
  C   C51       1.0  0.42103  0.29895  0.68692  1.0000
  C   C52       1.0  0.4888699999999999  0.34183  0.6608500000000002  1.0000
  C   C53       1.0  0.48778  0.42767  0.65962  1.0000
  C   C54       1.0  0.4198  0.20803  0.68926  1.0000
  C   C55       1.0  0.38471  0.16336  0.7432  1.0000
  C   C56       1.0  0.3840499999999999  0.07356  0.74438  1.0000
  C   C57       1.0  0.41825  0.0269  0.69121  1.0000
  C   C58       1.0  0.45229  0.07283  0.6402500000000001  1.0000
  C   C59       1.0  0.4531  0.16021  0.63918  1.0000
  C   C60       1.0  0.48528  0.8922  0.66336  1.0000
  C   C61       1.0  0.41835  0.93592  0.6898600000000001  1.0000
  C   C62       1.0  0.35236  0.8894  0.71459  1.0000
  C   C63       1.0  0.356  0.80363  0.71208  1.0000
  C   C64       1.0  0.48363  0.8062500000000002  0.66238  1.0000
  C   C65       1.0  0.6325  0.61681  0.67624  1.0000
  C   C66       1.0  0.6805  0.61674  0.6134  1.0000
  C   C67       1.0  0.7664999999999997  0.62167  0.61622  1.0000
  C   C68       1.0  0.81239  0.6225  0.55857  1.0000
  C   C69       1.0  0.77317  0.61773  0.49725  1.0000
  C   C70       1.0  0.68729  0.61194  0.49435  1.0000
  C   C71       1.0  0.64089  0.61175  0.55206  1.0000
  C   C72       1.0  0.82362  0.61844  0.43558  1.0000
  C   C73       1.0  0.64144  0.43119  0.79302  1.0000
  C   C74       1.0  0.6453499999999998  0.3455800000000001  0.79006  1.0000
  C   C75       1.0  0.57896  0.29895  0.81307  1.0000
  C   C76       1.0  0.51113  0.34184  0.83916  1.0000
  C   C77       1.0  0.51222  0.42768  0.84038  1.0000
  C   C78       1.0  0.58019  0.20803  0.8107300000000001  1.0000
  C   C79       1.0  0.61528  0.16335  0.75681  1.0000
  C   C80       1.0  0.61597  0.07355  0.7556300000000001  1.0000
  C   C81       1.0  0.5817499999999998  0.0269  0.8088100000000001  1.0000
  C   C82       1.0  0.5477  0.07284  0.85976  1.0000
  C   C83       1.0  0.5469  0.16022  0.8608300000000001  1.0000
  C   C84       1.0  0.51473  0.8921900000000003  0.83665  1.0000
  C   C85       1.0  0.58166  0.93592  0.8101500000000001  1.0000
  C   C86       1.0  0.64765  0.88941  0.7854200000000001  1.0000
  C   C87       1.0  0.64401  0.80364  0.7879200000000001  1.0000
  C   C88       1.0  0.51638  0.80623  0.83763  1.0000
  C   C89       1.0  0.36747999999999986  0.6168000000000002  0.82376  1.0000
  C   C90       1.0  0.3193699999999999  0.61673  0.88655  1.0000
  C   C91       1.0  0.23333  0.62167  0.88381  1.0000
  C   C92       1.0  0.18748  0.62251  0.9415  1.0000
  C   C93       1.0  0.22678  0.61774  0.0027800000000000004  1.0000
  C   C94       1.0  0.31263  0.61195  0.00558  1.0000
  C   C95       1.0  0.35893999999999987  0.61175  0.94785  1.0000
  C   C96       1.0  0.17661  0.61841  0.06459  1.0000
  C   C97       1.0  0.64144  0.5688  0.29303  1.0000
  C   C98       1.0  0.6453499999999998  0.65442  0.29007  1.0000
  C   C99       1.0  0.57897  0.70105  0.31308  1.0000
  C   C100      1.0  0.51113  0.65818  0.33915  1.0000
  C   C101      1.0  0.51221  0.5723400000000002  0.34038  1.0000
  C   C102      1.0  0.5802  0.79197  0.31074  1.0000
  C   C103      1.0  0.61529  0.83664  0.2568  1.0000
  C   C104      1.0  0.61595  0.92644  0.25562  1.0000
  C   C105      1.0  0.5817499999999998  0.9731  0.30879  1.0000
  C   C106      1.0  0.5477  0.92717  0.35975  1.0000
  C   C107      1.0  0.5469  0.83979  0.36082  1.0000
  C   C108      1.0  0.51472  0.10780000000000003  0.33664  1.0000
  C   C109      1.0  0.5816499999999998  0.06408  0.31014  1.0000
  C   C110      1.0  0.64763  0.11061  0.28541  1.0000
  C   C111      1.0  0.64399  0.19638  0.28792  1.0000
  C   C112      1.0  0.5163699999999998  0.19376000000000004  0.33762  1.0000
  C   C113      1.0  0.3674999999999999  0.3832  0.32376  1.0000
  C   C114      1.0  0.31948999999999994  0.38326  0.3866  1.0000
  C   C115      1.0  0.2335  0.37833  0.38378  1.0000
  C   C116      1.0  0.18759999999999993  0.3775  0.44143  1.0000
  C   C117      1.0  0.22683  0.38227  0.50275  1.0000
  C   C118      1.0  0.3127  0.38806  0.50565  1.0000
  C   C119      1.0  0.3591099999999999  0.38826  0.44794  1.0000
  C   C120      1.0  0.17637  0.38156  0.56442  1.0000
  C   C121      1.0  0.35856  0.56881  0.20698  1.0000
  C   C122      1.0  0.35465  0.65443  0.20994  1.0000
  C   C123      1.0  0.42103  0.70105  0.18693  1.0000
  C   C124      1.0  0.4888599999999999  0.6581700000000003  0.16084  1.0000
  C   C125      1.0  0.48778  0.57233  0.15962  1.0000
  C   C126      1.0  0.41981  0.79197  0.18927  1.0000
  C   C127      1.0  0.38472  0.8366500000000002  0.24319  1.0000
  C   C128      1.0  0.38402999999999987  0.92645  0.24437  1.0000
  C   C129      1.0  0.41824  0.9731  0.19119  1.0000
  C   C130      1.0  0.4523  0.92717  0.14024  1.0000
  C   C131      1.0  0.4531  0.83978  0.13917  1.0000
  C   C132      1.0  0.48527  0.10781  0.16335000000000002  1.0000
  C   C133      1.0  0.41834  0.06408  0.18985000000000002  1.0000
  C   C134      1.0  0.35235  0.11059  0.21458  1.0000
  C   C135      1.0  0.35599  0.19636  0.21208  1.0000
  C   C136      1.0  0.48362  0.19377  0.16237  1.0000
  C   C137      1.0  0.63252  0.3832  0.17624  1.0000
  C   C138      1.0  0.68063  0.38327  0.11345  1.0000
  C   C139      1.0  0.76667  0.37833  0.11619  1.0000
  C   C140      1.0  0.81252  0.37749  0.0585  1.0000
  C   C141      1.0  0.77322  0.38226  0.99722  1.0000
  C   C142      1.0  0.6873599999999997  0.38805  0.9944200000000001  1.0000
  C   C143      1.0  0.64106  0.38825  0.05215000000000001  1.0000
  C   C144      1.0  0.8233899999999997  0.3816  0.9354100000000001  1.0000
  C   C145      1.0  0.14144  0.5688  0.70697  1.0000
  C   C146      1.0  0.14535  0.65442  0.70993  1.0000
  C   C147      1.0  0.07897  0.70105  0.68692  1.0000
  C   C148      1.0  0.01113  0.65818  0.6608500000000002  1.0000
  C   C149      1.0  0.01221  0.5723400000000002  0.65962  1.0000
  C   C150      1.0  0.0802  0.79197  0.68926  1.0000
  C   C151      1.0  0.11529  0.83664  0.7432  1.0000
  C   C152      1.0  0.11594999999999997  0.92644  0.74438  1.0000
  C   C153      1.0  0.08174999999999998  0.9731  0.69121  1.0000
  C   C154      1.0  0.04771  0.92717  0.6402500000000001  1.0000
  C   C155      1.0  0.04689999999999998  0.83979  0.63918  1.0000
  C   C156      1.0  0.01472  0.10780000000000003  0.66336  1.0000
  C   C157      1.0  0.08165  0.06408  0.6898600000000001  1.0000
  C   C158      1.0  0.14762999999999998  0.11061  0.71459  1.0000
  C   C159      1.0  0.144  0.19638  0.71208  1.0000
  C   C160      1.0  0.01637  0.19376000000000004  0.66238  1.0000
  C   C161      1.0  0.8675  0.3832  0.67624  1.0000
  C   C162      1.0  0.81949  0.38326  0.6134  1.0000
  C   C163      1.0  0.73349  0.37833  0.61622  1.0000
  C   C164      1.0  0.6875999999999999  0.3775  0.55857  1.0000
  C   C165      1.0  0.72682  0.38227  0.49725  1.0000
  C   C166      1.0  0.8127  0.38806  0.49435  1.0000
  C   C167      1.0  0.85911  0.38826  0.55206  1.0000
  C   C168      1.0  0.67637  0.38156  0.43558  1.0000
  C   C169      1.0  0.85856  0.56881  0.79302  1.0000
  C   C170      1.0  0.85465  0.65443  0.79006  1.0000
  C   C171      1.0  0.9210299999999998  0.70105  0.81307  1.0000
  C   C172      1.0  0.9888599999999999  0.6581700000000003  0.83916  1.0000
  C   C173      1.0  0.9877799999999999  0.57233  0.84038  1.0000
  C   C174      1.0  0.9198099999999998  0.79197  0.8107300000000001  1.0000
  C   C175      1.0  0.88472  0.8366500000000002  0.75681  1.0000
  C   C176      1.0  0.88403  0.92645  0.7556300000000001  1.0000
  C   C177      1.0  0.91824  0.9731  0.8088100000000001  1.0000
  C   C178      1.0  0.9522899999999997  0.92717  0.85976  1.0000
  C   C179      1.0  0.9531  0.83978  0.8608300000000001  1.0000
  C   C180      1.0  0.98526  0.10781  0.83665  1.0000
  C   C181      1.0  0.91834  0.06408  0.8101500000000001  1.0000
  C   C182      1.0  0.85235  0.11059  0.7854200000000001  1.0000
  C   C183      1.0  0.8559899999999998  0.19636  0.7879200000000001  1.0000
  C   C184      1.0  0.98361  0.19377  0.83763  1.0000
  C   C185      1.0  0.13252  0.3832  0.82376  1.0000
  C   C186      1.0  0.18063  0.38327  0.88655  1.0000
  C   C187      1.0  0.26667  0.37833  0.88381  1.0000
  C   C188      1.0  0.31252  0.37749  0.9415  1.0000
  C   C189      1.0  0.27322  0.38226  0.0027800000000000004  1.0000
  C   C190      1.0  0.18737  0.38805  0.00558  1.0000
  C   C191      1.0  0.14106  0.38825  0.94785  1.0000
  C   C192      1.0  0.32339  0.3815900000000001  0.06459  1.0000
  S   S1        1.0  0.82386  0.12131  0.15482000000000004  1.0000
  S   S2        1.0  0.17614  0.1213  0.34517  1.0000
  S   S3        1.0  0.32387  0.12131  0.84518  1.0000
  S   S4        1.0  0.67614  0.1213  0.65483  1.0000
  S   S5        1.0  0.67613  0.87869  0.15482000000000004  1.0000
  S   S6        1.0  0.32385  0.87871  0.34517  1.0000
  S   S7        1.0  0.17613  0.87869  0.84518  1.0000
  S   S8        1.0  0.8238499999999997  0.87871  0.65483  1.0000
  N   N1        1.0  0.85101  0.04222  0.19964000000000004  1.0000
  N   N2        1.0  0.85206  0.19743  0.20181000000000002  1.0000
  N   N3        1.0  0.92388  0.47196  0.31709  1.0000
  N   N4        1.0  0.92032  0.76227  0.31336  1.0000
  N   N5        1.0  0.14902  0.04221  0.30033000000000004  1.0000
  N   N6        1.0  0.14791  0.19742  0.29819  1.0000
  N   N7        1.0  0.07612  0.47196  0.18293  1.0000
  N   N8        1.0  0.07967999999999997  0.76227  0.18666  1.0000
  N   N9        1.0  0.3510099999999999  0.04222  0.8003600000000001  1.0000
  N   N10       1.0  0.35207  0.19743  0.7981800000000001  1.0000
  N   N11       1.0  0.42387999999999987  0.47196  0.68291  1.0000
  N   N12       1.0  0.42032  0.76227  0.68664  1.0000
  N   N13       1.0  0.64902  0.04221  0.69967  1.0000
  N   N14       1.0  0.64791  0.19742  0.7018100000000002  1.0000
  N   N15       1.0  0.57612  0.47196  0.81707  1.0000
  N   N16       1.0  0.57968  0.76227  0.81334  1.0000
  N   N17       1.0  0.64899  0.9577800000000002  0.19964000000000004  1.0000
  N   N18       1.0  0.64793  0.80257  0.20181000000000002  1.0000
  N   N19       1.0  0.57612  0.52804  0.31709  1.0000
  N   N20       1.0  0.57967  0.23774000000000006  0.31336  1.0000
  N   N21       1.0  0.3509799999999999  0.95779  0.30033000000000004  1.0000
  N   N22       1.0  0.35209  0.80258  0.29819  1.0000
  N   N23       1.0  0.4238699999999999  0.52804  0.18293  1.0000
  N   N24       1.0  0.42031  0.23773  0.18666  1.0000
  N   N25       1.0  0.14899  0.9577800000000002  0.8003600000000001  1.0000
  N   N26       1.0  0.14793  0.80257  0.7981800000000001  1.0000
  N   N27       1.0  0.07612  0.52804  0.68291  1.0000
  N   N28       1.0  0.07966999999999998  0.23774000000000006  0.68664  1.0000
  N   N29       1.0  0.85098  0.95779  0.69967  1.0000
  N   N30       1.0  0.85208  0.80258  0.7018100000000002  1.0000
  N   N31       1.0  0.92387  0.52804  0.81707  1.0000
  N   N32       1.0  0.9203099999999997  0.23774000000000006  0.81334  1.0000
  O   O1        1.0  0.05473  0.61716  0.3266200000000001  1.0000
  O   O2        1.0  0.17348  0.61688  0.26989  1.0000
  O   O3        1.0  0.40157  0.62501  0.55971  1.0000
  O   O4        1.0  0.2863599999999999  0.61264  0.6196  1.0000
  O   O5        1.0  0.94531  0.61716  0.17336  1.0000
  O   O6        1.0  0.8266  0.61688  0.23016  1.0000
  O   O7        1.0  0.5986699999999999  0.62503  0.9400900000000001  1.0000
  O   O8        1.0  0.71391  0.61253  0.8802600000000002  1.0000
  O   O9        1.0  0.55473  0.61716  0.67338  1.0000
  O   O10       1.0  0.67348  0.61688  0.7301100000000001  1.0000
  O   O11       1.0  0.90157  0.62501  0.44029  1.0000
  O   O12       1.0  0.78636  0.61262  0.3804  1.0000
  O   O13       1.0  0.44532  0.61716  0.82664  1.0000
  O   O14       1.0  0.3266  0.61688  0.7698400000000001  1.0000
  O   O15       1.0  0.09868  0.62503  0.059910000000000005  1.0000
  O   O16       1.0  0.21391  0.61252  0.11974  1.0000
  O   O17       1.0  0.44527  0.38284  0.3266200000000001  1.0000
  O   O18       1.0  0.32652  0.38312  0.26989  1.0000
  O   O19       1.0  0.09843  0.375  0.55971  1.0000
  O   O20       1.0  0.21364  0.38738  0.61959  1.0000
  O   O21       1.0  0.55468  0.38285  0.17336  1.0000
  O   O22       1.0  0.67339  0.38313  0.23016  1.0000
  O   O23       1.0  0.90132  0.37497  0.9400900000000001  1.0000
  O   O24       1.0  0.78609  0.38748  0.8802600000000002  1.0000
  O   O25       1.0  0.94527  0.38284  0.67338  1.0000
  O   O26       1.0  0.82652  0.38312  0.7301100000000001  1.0000
  O   O27       1.0  0.59842  0.375  0.44029  1.0000
  O   O28       1.0  0.71364  0.38737  0.3804  1.0000
  O   O29       1.0  0.05468  0.38285  0.82664  1.0000
  O   O30       1.0  0.1734  0.38313  0.7698400000000001  1.0000
  O   O31       1.0  0.40132  0.37497  0.059910000000000005  1.0000
  O   O32       1.0  0.28609  0.38747  0.11974  1.0000
