data_image0
_chemical_formula_structural       Cd8H128C148N24O36
_chemical_formula_sum              "Cd8 H128 C148 N24 O36"
_cell_length_a       15.7456
_cell_length_b       17.46942
_cell_length_c       20.10367
_cell_angle_alpha    110.72187
_cell_angle_beta     89.99821
_cell_angle_gamma    90.02199

_space_group_name_H-M_alt    "P 1"
_space_group_IT_number       1

loop_
  _space_group_symop_operation_xyz
  'x, y, z'

loop_
  _atom_site_type_symbol
  _atom_site_label
  _atom_site_symmetry_multiplicity
  _atom_site_fract_x
  _atom_site_fract_y
  _atom_site_fract_z
  _atom_site_occupancy
  Cd  Cd1       1.0  0.08426  0.74848  0.74637  1.0000
  Cd  Cd2       1.0  0.00182  0.81609  0.91629  1.0000
  Cd  Cd3       1.0  0.58454  0.25075  0.75331  1.0000
  Cd  Cd4       1.0  0.50038  0.1829  0.58333  1.0000
  Cd  Cd5       1.0  0.91574  0.25152  0.25363  1.0000
  Cd  Cd6       1.0  0.99818  0.18391  0.08371  1.0000
  Cd  Cd7       1.0  0.4154600000000001  0.74925  0.24668999999999996  1.0000
  Cd  Cd8       1.0  0.49962  0.8171000000000002  0.41666  1.0000
  H   H1        1.0  0.16421  0.85139  0.86272  1.0000
  H   H2        1.0  0.17105  0.75016  0.85935  1.0000
  H   H3        1.0  0.05390000000000002  0.8378400000000001  0.6411999999999998  1.0000
  H   H4        1.0  0.96533  0.83198  0.53639  1.0000
  H   H5        1.0  0.89287  0.5867299999999999  0.5177799999999999  1.0000
  H   H6        1.0  0.9844  0.60345  0.62359  1.0000
  H   H7        1.0  0.82571  0.9008299999999999  0.49645999999999996  1.0000
  H   H8        1.0  0.81374  0.8541000000000001  0.56196  1.0000
  H   H9        1.0  0.72518  0.86473  0.5119999999999999  1.0000
  H   H10       1.0  0.8912200000000002  0.53069  0.30817  1.0000
  H   H11       1.0  0.87441  0.51864  0.39084  1.0000
  H   H12       1.0  0.96822  0.56769  0.3771799999999999  1.0000
  H   H13       1.0  0.69684  0.83728  0.398  1.0000
  H   H14       1.0  0.6802  0.74668  0.32189  1.0000
  H   H15       1.0  0.74125  0.67123  0.1964  1.0000
  H   H16       1.0  0.7341600000000003  0.72855  0.13868  1.0000
  H   H17       1.0  0.66089  0.7468599999999999  0.20947999999999997  1.0000
  H   H18       1.0  0.9169  0.020680000000000004  0.30677  1.0000
  H   H19       1.0  0.99732  0.9448200000000001  0.27954  1.0000
  H   H20       1.0  0.96097  0.98065  0.36934  1.0000
  H   H21       1.0  0.87197  0.70907  0.10881  1.0000
  H   H22       1.0  0.9317500000000002  0.7058  0.99351  1.0000
  H   H23       1.0  0.96905  0.9575400000000001  0.07079999999999999  1.0000
  H   H24       1.0  0.90463  0.97186  0.18621999999999997  1.0000
  H   H25       1.0  0.31545  0.021060000000000006  0.8484  1.0000
  H   H26       1.0  0.40832  0.10691999999999992  0.8000299999999999  1.0000
  H   H27       1.0  0.32458  0.9677800000000001  0.58861  1.0000
  H   H28       1.0  0.22903  0.8854199999999999  0.63756  1.0000
  H   H29       1.0  0.92412  0.5348  0.68116  1.0000
  H   H30       1.0  0.82639  0.41273  0.64317  1.0000
  H   H31       1.0  0.7678  0.45636999999999994  0.8615099999999999  1.0000
  H   H32       1.0  0.86225  0.5803  0.89927  1.0000
  H   H33       1.0  0.66378  0.14946999999999994  0.6364499999999997  1.0000
  H   H34       1.0  0.67049  0.24927  0.63958  1.0000
  H   H35       1.0  0.55397  0.16164  0.8589699999999999  1.0000
  H   H36       1.0  0.4651900000000001  0.16788999999999998  0.9638899999999999  1.0000
  H   H37       1.0  0.3932600000000001  0.41302999999999995  0.9820399999999999  1.0000
  H   H38       1.0  0.4848800000000001  0.39592999999999995  0.8761199999999999  1.0000
  H   H39       1.0  0.32561  0.09921  0.0035299999999999997  1.0000
  H   H40       1.0  0.31371  0.14596999999999996  0.93804  1.0000
  H   H41       1.0  0.22509  0.13515  0.98786  1.0000
  H   H42       1.0  0.3912  0.46936  0.1918  1.0000
  H   H43       1.0  0.37461  0.48133000000000004  0.1091  1.0000
  H   H44       1.0  0.4683  0.43236  0.12291  1.0000
  H   H45       1.0  0.19649  0.16277  0.10209999999999997  1.0000
  H   H46       1.0  0.18009  0.25327  0.1782  1.0000
  H   H47       1.0  0.24134  0.32876  0.30355  1.0000
  H   H48       1.0  0.23429  0.27148  0.3613  1.0000
  H   H49       1.0  0.16103  0.25298  0.29045  1.0000
  H   H50       1.0  0.41668  0.9792700000000001  0.19296  1.0000
  H   H51       1.0  0.49717  0.05514  0.22022999999999998  1.0000
  H   H52       1.0  0.46076  0.01939  0.13041  1.0000
  H   H53       1.0  0.37211  0.29088  0.39117999999999997  1.0000
  H   H54       1.0  0.43193  0.29384  0.50643  1.0000
  H   H55       1.0  0.46887  0.04215  0.42887  1.0000
  H   H56       1.0  0.40432  0.027970000000000002  0.3134  1.0000
  H   H57       1.0  0.81543  0.9792900000000001  0.6516199999999999  1.0000
  H   H58       1.0  0.9081300000000002  0.89277  0.69944  1.0000
  H   H59       1.0  0.82514  0.031500000000000014  0.91127  1.0000
  H   H60       1.0  0.72978  0.11426999999999998  0.86289  1.0000
  H   H61       1.0  0.42383  0.46576000000000006  0.8202799999999998  1.0000
  H   H62       1.0  0.32585  0.5873799999999999  0.8569399999999998  1.0000
  H   H63       1.0  0.26897000000000004  0.54219  0.63805  1.0000
  H   H64       1.0  0.36344  0.41834  0.60147  1.0000
  H   H65       1.0  0.83579  0.14860999999999996  0.13727999999999996  1.0000
  H   H66       1.0  0.82895  0.24984000000000003  0.14065  1.0000
  H   H67       1.0  0.9461000000000003  0.16216  0.3588  1.0000
  H   H68       1.0  0.03467  0.16801999999999997  0.46360999999999997  1.0000
  H   H69       1.0  0.10714000000000003  0.41327  0.48220999999999997  1.0000
  H   H70       1.0  0.01561  0.39655  0.37641  1.0000
  H   H71       1.0  0.1743  0.09916999999999992  0.5035299999999999  1.0000
  H   H72       1.0  0.18626  0.14589999999999997  0.43803999999999993  1.0000
  H   H73       1.0  0.27482  0.13527  0.488  1.0000
  H   H74       1.0  0.10878000000000003  0.46931  0.69183  1.0000
  H   H75       1.0  0.12559  0.48135000000000006  0.6091499999999999  1.0000
  H   H76       1.0  0.03178  0.4323099999999999  0.6228199999999998  1.0000
  H   H77       1.0  0.30316  0.16272  0.602  1.0000
  H   H78       1.0  0.3198  0.25331999999999993  0.67811  1.0000
  H   H79       1.0  0.25875  0.32877  0.8035999999999998  1.0000
  H   H80       1.0  0.26584  0.27144999999999997  0.8613199999999999  1.0000
  H   H81       1.0  0.33911  0.25314  0.79052  1.0000
  H   H82       1.0  0.0831  0.97932  0.6932299999999999  1.0000
  H   H83       1.0  0.00268  0.05517999999999999  0.72046  1.0000
  H   H84       1.0  0.03903  0.01935000000000003  0.63066  1.0000
  H   H85       1.0  0.12803  0.29093  0.89118  1.0000
  H   H86       1.0  0.06826  0.29419  0.006489999999999999  1.0000
  H   H87       1.0  0.03095  0.042459999999999984  0.92919  1.0000
  H   H88       1.0  0.09537000000000002  0.028139999999999925  0.8137699999999998  1.0000
  H   H89       1.0  0.68455  0.9789400000000001  0.15159999999999996  1.0000
  H   H90       1.0  0.59168  0.89308  0.19996999999999995  1.0000
  H   H91       1.0  0.67542  0.03222  0.41139  1.0000
  H   H92       1.0  0.77097  0.11457999999999997  0.36244  1.0000
  H   H93       1.0  0.07588  0.4652  0.31884  1.0000
  H   H94       1.0  0.17361  0.58727  0.35683  1.0000
  H   H95       1.0  0.2322  0.54363  0.13849  1.0000
  H   H96       1.0  0.13775000000000004  0.4197  0.10073  1.0000
  H   H97       1.0  0.33622  0.85053  0.36355  1.0000
  H   H98       1.0  0.32951  0.7507299999999999  0.36042  1.0000
  H   H99       1.0  0.44603  0.83836  0.14103  1.0000
  H   H100      1.0  0.53481  0.83211  0.03611  1.0000
  H   H101      1.0  0.60674  0.58697  0.017959999999999993  1.0000
  H   H102      1.0  0.51512  0.60406  0.12386999999999998  1.0000
  H   H103      1.0  0.67439  0.90079  0.99647  1.0000
  H   H104      1.0  0.68629  0.85403  0.06195  1.0000
  H   H105      1.0  0.77491  0.86485  0.012129999999999998  1.0000
  H   H106      1.0  0.60881  0.5306399999999998  0.8081999999999998  1.0000
  H   H107      1.0  0.6253900000000002  0.5186699999999999  0.8908999999999998  1.0000
  H   H108      1.0  0.5317  0.56764  0.8770899999999999  1.0000
  H   H109      1.0  0.8035100000000002  0.83723  0.8978999999999999  1.0000
  H   H110      1.0  0.81991  0.74673  0.8218  1.0000
  H   H111      1.0  0.75867  0.67124  0.69645  1.0000
  H   H112      1.0  0.7657200000000001  0.72852  0.6386999999999999  1.0000
  H   H113      1.0  0.83897  0.74702  0.70955  1.0000
  H   H114      1.0  0.58333  0.020729999999999894  0.8070399999999998  1.0000
  H   H115      1.0  0.50283  0.9448600000000001  0.77977  1.0000
  H   H116      1.0  0.53924  0.98061  0.86959  1.0000
  H   H117      1.0  0.62789  0.70912  0.60882  1.0000
  H   H118      1.0  0.5680700000000001  0.70616  0.49355999999999994  1.0000
  H   H119      1.0  0.53114  0.95785  0.5711299999999998  1.0000
  H   H120      1.0  0.59569  0.97203  0.6866  1.0000
  H   H121      1.0  0.18457  0.02071  0.34838  1.0000
  H   H122      1.0  0.09187  0.10723  0.30056  1.0000
  H   H123      1.0  0.17486  0.9685  0.08873  1.0000
  H   H124      1.0  0.2702200000000001  0.88573  0.13711  1.0000
  H   H125      1.0  0.57617  0.53424  0.17972  1.0000
  H   H126      1.0  0.67415  0.41262  0.14306  1.0000
  H   H127      1.0  0.73103  0.45781  0.36194999999999994  1.0000
  H   H128      1.0  0.63656  0.58166  0.39853  1.0000
  C   C1        1.0  0.01623  0.78402  0.61245  1.0000
  C   C2        1.0  0.96638  0.7803599999999999  0.5546199999999999  1.0000
  C   C3        1.0  0.91888  0.7093  0.51866  1.0000
  C   C4        1.0  0.92759  0.64344  0.54313  1.0000
  C   C5        1.0  0.97844  0.65209  0.60186  1.0000
  C   C6        1.0  0.86462  0.70602  0.45914  1.0000
  C   C7        1.0  0.81344  0.76978  0.45527999999999996  1.0000
  C   C8        1.0  0.79361  0.85171  0.50909  1.0000
  C   C9        1.0  0.85643  0.64159  0.3914499999999999  1.0000
  C   C10       1.0  0.89987  0.56038  0.36567999999999995  1.0000
  C   C11       1.0  0.72794  0.78708  0.3560299999999999  1.0000
  C   C12       1.0  0.7851300000000002  0.79588  0.24139  1.0000
  C   C13       1.0  0.72762  0.73194  0.19389  1.0000
  C   C14       1.0  0.84735  0.84594  0.22758999999999996  1.0000
  C   C15       1.0  0.87487  0.8998200000000001  0.2962  1.0000
  C   C16       1.0  0.94126  0.96497  0.31381  1.0000
  C   C17       1.0  0.88109  0.84139  0.15893999999999994  1.0000
  C   C18       1.0  0.88992  0.766  0.10216  1.0000
  C   C19       1.0  0.92503  0.76314  0.03814  1.0000
  C   C20       1.0  0.94558  0.90388  0.08072999999999998  1.0000
  C   C21       1.0  0.9101  0.91126  0.1459  1.0000
  C   C22       1.0  0.20612  0.90204  0.77524  1.0000
  C   C23       1.0  0.26616  0.9491599999999998  0.7458299999999998  1.0000
  C   C24       1.0  0.31795  0.010630000000000013  0.79183  1.0000
  C   C25       1.0  0.36978  0.05739999999999993  0.7649799999999998  1.0000
  C   C26       1.0  0.37249  0.04199999999999998  0.69155  1.0000
  C   C27       1.0  0.32264000000000004  0.97887  0.64531  1.0000
  C   C28       1.0  0.26941  0.9333399999999998  0.67246  1.0000
  C   C29       1.0  0.4245700000000001  0.09551999999999991  0.6636799999999998  1.0000
  C   C30       1.0  0.95234  0.64058  0.81225  1.0000
  C   C31       1.0  0.89857  0.56503  0.79217  1.0000
  C   C32       1.0  0.8891  0.51716  0.71998  1.0000
  C   C33       1.0  0.83549  0.44956999999999997  0.69896  1.0000
  C   C34       1.0  0.79097  0.42819  0.75025  1.0000
  C   C35       1.0  0.72988  0.35768000000000005  0.72757  1.0000
  C   C36       1.0  0.8023000000000002  0.47441000000000005  0.82259  1.0000
  C   C37       1.0  0.85504  0.54283  0.84346  1.0000
  C   C38       1.0  0.51629  0.21549999999999994  0.8876099999999999  1.0000
  C   C39       1.0  0.4664300000000001  0.21938999999999995  0.94551  1.0000
  C   C40       1.0  0.419  0.29050999999999993  0.9813399999999999  1.0000
  C   C41       1.0  0.42789  0.35627  0.95675  1.0000
  C   C42       1.0  0.47874  0.34739  0.89796  1.0000
  C   C43       1.0  0.36461  0.29392  0.04084999999999999  1.0000
  C   C44       1.0  0.31328  0.23022  0.04471  1.0000
  C   C45       1.0  0.2935  0.14827999999999994  0.9908699999999999  1.0000
  C   C46       1.0  0.35645  0.35837  0.10852999999999999  1.0000
  C   C47       1.0  0.39994  0.4396  0.13431  1.0000
  C   C48       1.0  0.22777  0.21293000000000004  0.14399  1.0000
  C   C49       1.0  0.2852  0.20415  0.25853  1.0000
  C   C50       1.0  0.22773  0.26804  0.3060699999999999  1.0000
  C   C51       1.0  0.3473900000000001  0.15404999999999996  0.27225999999999995  1.0000
  C   C52       1.0  0.37476  0.10014999999999998  0.20361999999999994  1.0000
  C   C53       1.0  0.4411  0.03499999999999999  0.18595  1.0000
  C   C54       1.0  0.38113  0.15852000000000002  0.34086  1.0000
  C   C55       1.0  0.39004  0.23388  0.39771  1.0000
  C   C56       1.0  0.42508  0.23659  0.4616999999999999  1.0000
  C   C57       1.0  0.44544  0.09578999999999994  0.4189199999999999  1.0000
  C   C58       1.0  0.40998  0.08854  0.35378  1.0000
  C   C59       1.0  0.7079200000000002  0.09906  0.72467  1.0000
  C   C60       1.0  0.76711  0.05137000000000001  0.75428  1.0000
  C   C61       1.0  0.81836  0.98959  0.70816  1.0000
  C   C62       1.0  0.86983  0.9423099999999999  0.7347  1.0000
  C   C63       1.0  0.8726800000000002  0.95742  0.8081099999999999  1.0000
  C   C64       1.0  0.8231000000000003  0.02057000000000002  0.85456  1.0000
  C   C65       1.0  0.77012  0.06658999999999991  0.8276499999999998  1.0000
  C   C66       1.0  0.92466  0.9030000000000001  0.8350899999999998  1.0000
  C   C67       1.0  0.45389  0.3595  0.68878  1.0000
  C   C68       1.0  0.39958  0.43475  0.7088  1.0000
  C   C69       1.0  0.3893600000000001  0.48286  0.7808799999999998  1.0000
  C   C70       1.0  0.33535  0.55017  0.80129  1.0000
  C   C71       1.0  0.2911600000000001  0.57105  0.74954  1.0000
  C   C72       1.0  0.22987  0.64145  0.7716199999999998  1.0000
  C   C73       1.0  0.30309  0.52451  0.67736  1.0000
  C   C74       1.0  0.3561  0.45633  0.65713  1.0000
  C   C75       1.0  0.98377  0.21597999999999995  0.3875499999999999  1.0000
  C   C76       1.0  0.03362000000000001  0.21964000000000003  0.44538  1.0000
  C   C77       1.0  0.08112  0.2907  0.48134  1.0000
  C   C78       1.0  0.07241  0.35655999999999993  0.45686999999999994  1.0000
  C   C79       1.0  0.02157  0.34791  0.39814  1.0000
  C   C80       1.0  0.13538  0.29398  0.54086  1.0000
  C   C81       1.0  0.18656  0.23022  0.54472  1.0000
  C   C82       1.0  0.20639  0.14829  0.49091  1.0000
  C   C83       1.0  0.14357  0.3584099999999999  0.6085499999999998  1.0000
  C   C84       1.0  0.10013  0.4396199999999999  0.6343199999999998  1.0000
  C   C85       1.0  0.27206  0.2129199999999999  0.6439699999999998  1.0000
  C   C86       1.0  0.21488  0.20412  0.7586099999999999  1.0000
  C   C87       1.0  0.27239  0.26806  0.8061  1.0000
  C   C88       1.0  0.15265  0.15406  0.7724099999999999  1.0000
  C   C89       1.0  0.12514  0.10017999999999999  0.7038  1.0000
  C   C90       1.0  0.05874  0.03503000000000003  0.68619  1.0000
  C   C91       1.0  0.11891000000000003  0.15860999999999997  0.8410599999999999  1.0000
  C   C92       1.0  0.11008000000000003  0.23399999999999996  0.8978399999999999  1.0000
  C   C93       1.0  0.07497  0.23686  0.9618499999999998  1.0000
  C   C94       1.0  0.05442  0.09611999999999997  0.9192699999999998  1.0000
  C   C95       1.0  0.0899  0.08873999999999997  0.8540999999999999  1.0000
  C   C96       1.0  0.79388  0.09795  0.22476  1.0000
  C   C97       1.0  0.73384  0.05083  0.25417  1.0000
  C   C98       1.0  0.68206  0.98937  0.20816999999999994  1.0000
  C   C99       1.0  0.63022  0.9426  0.23501999999999998  1.0000
  C   C100      1.0  0.62752  0.958  0.30844  1.0000
  C   C101      1.0  0.67736  0.02113000000000001  0.35469  1.0000
  C   C102      1.0  0.73059  0.06665999999999998  0.32753999999999994  1.0000
  C   C103      1.0  0.57543  0.90448  0.33631999999999995  1.0000
  C   C104      1.0  0.04767  0.35942  0.18775  1.0000
  C   C105      1.0  0.10143  0.43497  0.20783  1.0000
  C   C106      1.0  0.1109  0.48284  0.28001999999999994  1.0000
  C   C107      1.0  0.16451  0.55043  0.3010399999999999  1.0000
  C   C108      1.0  0.20903000000000005  0.57181  0.24974999999999997  1.0000
  C   C109      1.0  0.27013  0.64232  0.27243  1.0000
  C   C110      1.0  0.1977  0.52559  0.17741  1.0000
  C   C111      1.0  0.14496  0.45717  0.15654  1.0000
  C   C112      1.0  0.48371  0.7845  0.11239  1.0000
  C   C113      1.0  0.53358  0.78061  0.05449  1.0000
  C   C114      1.0  0.581  0.70948  0.01866  1.0000
  C   C115      1.0  0.57211  0.64373  0.04325  1.0000
  C   C116      1.0  0.52126  0.65261  0.10202999999999997  1.0000
  C   C117      1.0  0.63539  0.70608  0.95915  1.0000
  C   C118      1.0  0.68673  0.76978  0.95529  1.0000
  C   C119      1.0  0.7065  0.85172  0.009119999999999998  1.0000
  C   C120      1.0  0.64355  0.64163  0.89146  1.0000
  C   C121      1.0  0.60007  0.5603999999999999  0.8656899999999997  1.0000
  C   C122      1.0  0.77224  0.78707  0.85601  1.0000
  C   C123      1.0  0.7148  0.7958499999999998  0.7414599999999999  1.0000
  C   C124      1.0  0.77227  0.73196  0.69393  1.0000
  C   C125      1.0  0.65261  0.84595  0.72774  1.0000
  C   C126      1.0  0.62524  0.8998499999999999  0.7963799999999998  1.0000
  C   C127      1.0  0.5589000000000001  0.965  0.81405  1.0000
  C   C128      1.0  0.61887  0.84148  0.65914  1.0000
  C   C129      1.0  0.60996  0.76612  0.60229  1.0000
  C   C130      1.0  0.57492  0.76341  0.5383  1.0000
  C   C131      1.0  0.55457  0.90421  0.5810799999999998  1.0000
  C   C132      1.0  0.59002  0.91146  0.64622  1.0000
  C   C133      1.0  0.29208  0.9009400000000001  0.27533  1.0000
  C   C134      1.0  0.23289  0.9486300000000001  0.24572  1.0000
  C   C135      1.0  0.18164  0.010409999999999997  0.29183999999999993  1.0000
  C   C136      1.0  0.13018  0.05769  0.2653  1.0000
  C   C137      1.0  0.12733  0.042579999999999986  0.19188  1.0000
  C   C138      1.0  0.1769  0.97943  0.14544  1.0000
  C   C139      1.0  0.22989  0.93341  0.17235  1.0000
  C   C140      1.0  0.07534  0.09699999999999998  0.16490999999999995  1.0000
  C   C141      1.0  0.54611  0.64049  0.31122  1.0000
  C   C142      1.0  0.60042  0.56525  0.2912  1.0000
  C   C143      1.0  0.61064  0.51714  0.21911999999999995  1.0000
  C   C144      1.0  0.6646500000000002  0.44982000000000005  0.19871  1.0000
  C   C145      1.0  0.70884  0.42894  0.25046  1.0000
  C   C146      1.0  0.77013  0.35855  0.22838  1.0000
  C   C147      1.0  0.69691  0.4754899999999999  0.3226399999999999  1.0000
  C   C148      1.0  0.6439  0.54367  0.34286  1.0000
  N   N1        1.0  0.02172  0.7213900000000001  0.63678  1.0000
  N   N2        1.0  0.77834  0.74115  0.38893  1.0000
  N   N3        1.0  0.80523  0.66414  0.34866999999999987  1.0000
  N   N4        1.0  0.83417  0.88379  0.34801  1.0000
  N   N5        1.0  0.77925  0.82158  0.31366  1.0000
  N   N6        1.0  0.95327  0.83092  0.02687  1.0000
  N   N7        1.0  0.52183  0.2779699999999999  0.8630799999999998  1.0000
  N   N8        1.0  0.2780700000000001  0.25889  0.11102  1.0000
  N   N9        1.0  0.30516  0.33586  0.15129999999999993  1.0000
  N   N10       1.0  0.334  0.11621000000000001  0.15186  1.0000
  N   N11       1.0  0.27918  0.17844  0.18627999999999995  1.0000
  N   N12       1.0  0.45315  0.16871  0.47283  1.0000
  N   N13       1.0  0.97829  0.27860999999999997  0.3632199999999999  1.0000
  N   N14       1.0  0.22166  0.25884999999999997  0.6110599999999999  1.0000
  N   N15       1.0  0.19477  0.33586  0.65133  1.0000
  N   N16       1.0  0.16583000000000006  0.11620999999999991  0.6519899999999997  1.0000
  N   N17       1.0  0.22075  0.17842000000000002  0.68634  1.0000
  N   N18       1.0  0.04673  0.16908  0.97313  1.0000
  N   N19       1.0  0.47817  0.72202  0.13691999999999996  1.0000
  N   N20       1.0  0.72193  0.74111  0.88898  1.0000
  N   N21       1.0  0.6948400000000002  0.66414  0.8486899999999998  1.0000
  N   N22       1.0  0.6660000000000003  0.8837899999999999  0.84814  1.0000
  N   N23       1.0  0.72082  0.82156  0.8137199999999999  1.0000
  N   N24       1.0  0.54685  0.8312900000000001  0.52717  1.0000
  O   O1        1.0  0.21235000000000007  0.912  0.84082  1.0000
  O   O2        1.0  0.15177  0.85654  0.7311899999999998  1.0000
  O   O3        1.0  0.45439  0.16211999999999993  0.70695  1.0000
  O   O4        1.0  0.43371  0.07318  0.59551  1.0000
  O   O5        1.0  0.94785  0.68977  0.87729  1.0000
  O   O6        1.0  0.99613  0.6513999999999999  0.7635199999999998  1.0000
  O   O7        1.0  0.72332  0.31769  0.66085  1.0000
  O   O8        1.0  0.68887  0.3443799999999999  0.7772499999999998  1.0000
  O   O9        1.0  0.12979  0.80298  0.86897  1.0000
  O   O10       1.0  0.71528  0.09077000000000002  0.65961  1.0000
  O   O11       1.0  0.65281  0.14365  0.76836  1.0000
  O   O12       1.0  0.95286  0.8364199999999999  0.7909199999999997  1.0000
  O   O13       1.0  0.93534  0.92456  0.9030699999999999  1.0000
  O   O14       1.0  0.45008  0.31078  0.6235  1.0000
  O   O15       1.0  0.49746  0.34863  0.73762  1.0000
  O   O16       1.0  0.22128  0.6803899999999999  0.8383499999999999  1.0000
  O   O17       1.0  0.19074000000000005  0.65599  0.72166  1.0000
  O   O18       1.0  0.6286  0.19688999999999998  0.6297399999999999  1.0000
  O   O19       1.0  0.7876500000000002  0.088  0.15918  1.0000
  O   O20       1.0  0.84823  0.14345999999999998  0.26880999999999994  1.0000
  O   O21       1.0  0.54561  0.83787  0.29305  1.0000
  O   O22       1.0  0.5663  0.9268199999999999  0.40449  1.0000
  O   O23       1.0  0.05216  0.31023  0.12270999999999999  1.0000
  O   O24       1.0  0.003870000000000001  0.34859999999999997  0.23647999999999997  1.0000
  O   O25       1.0  0.27668  0.68231  0.33915  1.0000
  O   O26       1.0  0.31114  0.65562  0.22273999999999997  1.0000
  O   O27       1.0  0.87021  0.19701999999999997  0.13102999999999998  1.0000
  O   O28       1.0  0.28472  0.90923  0.34039  1.0000
  O   O29       1.0  0.34719  0.85635  0.23164  1.0000
  O   O30       1.0  0.04714  0.16358  0.20908  1.0000
  O   O31       1.0  0.06466  0.07544  0.09692999999999999  1.0000
  O   O32       1.0  0.54992  0.68922  0.3765  1.0000
  O   O33       1.0  0.50254  0.65137  0.26238  1.0000
  O   O34       1.0  0.77873  0.31961  0.16165  1.0000
  O   O35       1.0  0.80926  0.34401  0.27834  1.0000
  O   O36       1.0  0.3714  0.8031  0.37025999999999987  1.0000
