data_image0
_chemical_formula_structural       Zn16H80C156N8O68
_chemical_formula_sum              "Zn16 H80 C156 N8 O68"
_cell_length_a       10.45417
_cell_length_b       32.237730000000006
_cell_length_c       32.28455
_cell_angle_alpha    90.0
_cell_angle_beta     90.0
_cell_angle_gamma    91.78619

_space_group_name_H-M_alt    "P 1"
_space_group_IT_number       1

loop_
  _space_group_symop_operation_xyz
  'x, y, z'

loop_
  _atom_site_type_symbol
  _atom_site_label
  _atom_site_symmetry_multiplicity
  _atom_site_fract_x
  _atom_site_fract_y
  _atom_site_fract_z
  _atom_site_occupancy
  Zn  Zn1       1.0  0.47173000000000004  0.13236  0.79938  1.0000
  Zn  Zn2       1.0  0.66694  0.7843499999999998  0.21853999999999996  1.0000
  Zn  Zn3       1.0  0.37781  0.77601  0.21121  1.0000
  Zn  Zn4       1.0  0.02714  0.29677  0.37197999999999987  1.0000
  Zn  Zn5       1.0  0.9728600000000001  0.70323  0.62802  1.0000
  Zn  Zn6       1.0  0.5282600000000001  0.86764  0.20061999999999994  1.0000
  Zn  Zn7       1.0  0.8778100000000001  0.27601  0.28879  1.0000
  Zn  Zn8       1.0  0.52713  0.79677  0.12802  1.0000
  Zn  Zn9       1.0  0.83305  0.71565  0.71854  1.0000
  Zn  Zn10      1.0  0.4728600000000001  0.20323  0.87198  1.0000
  Zn  Zn11      1.0  0.33306  0.21565  0.78146  1.0000
  Zn  Zn12      1.0  0.16694  0.28435  0.28146  1.0000
  Zn  Zn13      1.0  0.028270000000000003  0.36764  0.29938  1.0000
  Zn  Zn14      1.0  0.12218000000000001  0.72399  0.71121  1.0000
  Zn  Zn15      1.0  0.62219  0.22399  0.78879  1.0000
  Zn  Zn16      1.0  0.9717300000000001  0.63236  0.70062  1.0000
  H   H1        1.0  0.9296400000000001  0.74683  0.98457  1.0000
  H   H2        1.0  0.97753  0.47401  0.5683  1.0000
  H   H3        1.0  0.30256  0.08697  0.24663  1.0000
  H   H4        1.0  0.42964  0.24682999999999994  0.51543  1.0000
  H   H5        1.0  0.51075  0.06843  0.02657  1.0000
  H   H6        1.0  0.53459  0.9713  0.12124999999999997  1.0000
  H   H7        1.0  0.3822  0.63982  0.20907999999999993  1.0000
  H   H8        1.0  0.010749999999999989  0.56843  0.47343  1.0000
  H   H9        1.0  0.05211  0.99016  0.74632  1.0000
  H   H10       1.0  0.9972499999999999  0.62227  0.52719  1.0000
  H   H11       1.0  0.8153100000000001  0.75494  0.04478  1.0000
  H   H12       1.0  0.75384  0.04982  0.75579  1.0000
  H   H13       1.0  0.19744000000000006  0.41303  0.74663  1.0000
  H   H14       1.0  0.7815700000000001  0.24863  0.5900799999999998  1.0000
  H   H15       1.0  0.2702300000000001  0.7494699999999997  0.54654  1.0000
  H   H16       1.0  0.52913  0.33575  0.27218  1.0000
  H   H17       1.0  0.65156  0.78711  0.35447  1.0000
  H   H18       1.0  0.33087  0.44896  0.2539  1.0000
  H   H19       1.0  0.029130000000000014  0.83575  0.22782  1.0000
  H   H20       1.0  0.4972500000000001  0.12227  0.97281  1.0000
  H   H21       1.0  0.90828  0.06426  0.28169  1.0000
  H   H22       1.0  0.9708600000000001  0.16425  0.77218  1.0000
  H   H23       1.0  0.40828000000000003  0.5642599999999998  0.21831  1.0000
  H   H24       1.0  0.07035  0.25317  0.01543  1.0000
  H   H25       1.0  0.15156999999999998  0.28710999999999987  0.14553  1.0000
  H   H26       1.0  0.7730500000000001  0.6635799999999997  0.24439999999999995  1.0000
  H   H27       1.0  0.4654  0.0287  0.87875  1.0000
  H   H28       1.0  0.21843000000000004  0.75137  0.40992  1.0000
  H   H29       1.0  0.7540700000000001  0.25821  0.16694  1.0000
  H   H30       1.0  0.72694  0.83642  0.7444  1.0000
  H   H31       1.0  0.7184299999999999  0.25136999999999987  0.09008  1.0000
  H   H32       1.0  0.83086  0.94896  0.2461  1.0000
  H   H33       1.0  0.59171  0.43574  0.78169  1.0000
  H   H34       1.0  0.34843  0.21289  0.64553  1.0000
  H   H35       1.0  0.9806400000000001  0.23177  0.84037  1.0000
  H   H36       1.0  0.0027500000000000003  0.37773  0.47281  1.0000
  H   H37       1.0  0.8822  0.13981999999999994  0.29092  1.0000
  H   H38       1.0  0.6846800000000001  0.74506  0.54478  1.0000
  H   H39       1.0  0.88036  0.72019  0.9302499999999998  1.0000
  H   H40       1.0  0.61963  0.77981  0.43025  1.0000
  H   H41       1.0  0.9478800000000002  0.00984  0.25367  1.0000
  H   H42       1.0  0.51935  0.26823  0.34037  1.0000
  H   H43       1.0  0.57035  0.75317  0.48457  1.0000
  H   H44       1.0  0.72976  0.25053  0.45345999999999986  1.0000
  H   H45       1.0  0.7459200000000001  0.24179  0.66694  1.0000
  H   H46       1.0  0.9892400000000001  0.43157  0.52657  1.0000
  H   H47       1.0  0.11963000000000001  0.27981  0.06975  1.0000
  H   H48       1.0  0.28156000000000003  0.74863  0.90992  1.0000
  H   H49       1.0  0.47752999999999995  0.9740099999999998  0.9317  1.0000
  H   H50       1.0  0.25406999999999996  0.7582099999999998  0.33306  1.0000
  H   H51       1.0  0.2730600000000001  0.16358  0.2556  1.0000
  H   H52       1.0  0.69743  0.91303  0.75337  1.0000
  H   H53       1.0  0.034600000000000006  0.4713  0.37875  1.0000
  H   H54       1.0  0.31531  0.25494  0.45522  1.0000
  H   H55       1.0  0.61779  0.3601799999999999  0.7909199999999997  1.0000
  H   H56       1.0  0.24592000000000003  0.74179  0.8330599999999999  1.0000
  H   H57       1.0  0.11779  0.86018  0.70908  1.0000
  H   H58       1.0  0.022459999999999997  0.52599  0.4317  1.0000
  H   H59       1.0  0.48924000000000006  0.9315699999999998  0.9734299999999998  1.0000
  H   H60       1.0  0.019349999999999996  0.76822  0.15962999999999994  1.0000
  H   H61       1.0  0.50274  0.8777299999999998  0.027189999999999992  1.0000
  H   H62       1.0  0.22976000000000002  0.75053  0.04654  1.0000
  H   H63       1.0  0.9653900000000004  0.5287  0.62124  1.0000
  H   H64       1.0  0.38036000000000003  0.22019  0.56975  1.0000
  H   H65       1.0  0.22694  0.33642  0.7555999999999998  1.0000
  H   H66       1.0  0.66913  0.55104  0.7461  1.0000
  H   H67       1.0  0.8025600000000002  0.58697  0.25337  1.0000
  H   H68       1.0  0.7461600000000002  0.45018  0.25579  1.0000
  H   H69       1.0  0.7702400000000001  0.24946999999999997  0.95346  1.0000
  H   H70       1.0  0.25383  0.54982  0.74421  1.0000
  H   H71       1.0  0.18468  0.24506  0.95522  1.0000
  H   H72       1.0  0.52246  0.02599  0.0683  1.0000
  H   H73       1.0  0.4708600000000001  0.6642499999999998  0.72782  1.0000
  H   H74       1.0  0.09171000000000001  0.93574  0.71831  1.0000
  H   H75       1.0  0.24615000000000004  0.95018  0.24421  1.0000
  H   H76       1.0  0.44788  0.50984  0.24633  1.0000
  H   H77       1.0  0.8484200000000001  0.71289  0.85447  1.0000
  H   H78       1.0  0.4806400000000001  0.73177  0.65963  1.0000
  H   H79       1.0  0.55211  0.49016  0.75367  1.0000
  H   H80       1.0  0.16913  0.05103999999999999  0.7539  1.0000
  C   C1        1.0  0.03175000000000001  0.86899  0.23339  1.0000
  C   C2        1.0  0.03832  0.27432  0.09037  1.0000
  C   C3        1.0  0.9423500000000002  0.72112  0.86707  1.0000
  C   C4        1.0  0.19476000000000002  0.14127  0.26105  1.0000
  C   C5        1.0  0.13944000000000004  0.75308  0.06264  1.0000
  C   C6        1.0  0.9930500000000001  0.5896099999999997  0.53562  1.0000
  C   C7        1.0  0.71091  0.59901  0.24406  1.0000
  C   C8        1.0  0.08272000000000002  0.10978  0.7627699999999997  1.0000
  C   C9        1.0  0.39142  0.42949  0.76302  1.0000
  C   C10       1.0  0.7700800000000002  0.36763  0.27252  1.0000
  C   C11       1.0  0.68719  0.24126999999999996  0.60271  1.0000
  C   C12       1.0  0.63944  0.25308  0.43736  1.0000
  C   C13       1.0  0.53955  0.45486  0.25282  1.0000
  C   C14       1.0  0.50428  0.98372  0.01601  1.0000
  C   C15       1.0  0.9768100000000001  0.24917  0.95965  1.0000
  C   C16       1.0  0.8605600000000002  0.24691999999999995  0.93736  1.0000
  C   C17       1.0  0.97416  0.61212  0.61018  1.0000
  C   C18       1.0  0.07626  0.15604999999999997  0.27395  1.0000
  C   C19       1.0  0.40602000000000005  0.25565  0.4385799999999999  1.0000
  C   C20       1.0  0.40481  0.26191  0.39585  1.0000
  C   C21       1.0  0.4548  0.77314  0.33956999999999987  1.0000
  C   C22       1.0  0.51954  0.921  0.07765  1.0000
  C   C23       1.0  0.33232  0.76276  0.35494  1.0000
  C   C24       1.0  0.42082000000000014  0.4329399999999999  0.25611  1.0000
  C   C25       1.0  0.80523  0.85873  0.73895  1.0000
  C   C26       1.0  0.9548000000000001  0.27314  0.16043  1.0000
  C   C27       1.0  0.99938  0.44105  0.49443  1.0000
  C   C28       1.0  0.93687  0.79808  0.7193  1.0000
  C   C29       1.0  0.75987  0.26357  0.37062  1.0000
  C   C30       1.0  0.7813400000000001  0.76896  0.1268  1.0000
  C   C31       1.0  0.48045  0.079  0.92235  1.0000
  C   C32       1.0  0.63691  0.25919  0.39461  1.0000
  C   C33       1.0  0.000619999999999999  0.55895  0.50557  1.0000
  C   C34       1.0  0.74012  0.23643  0.87062  1.0000
  C   C35       1.0  0.01954  0.421  0.42235  1.0000
  C   C36       1.0  0.22992  0.63237  0.72747  1.0000
  C   C37       1.0  0.5631200000000001  0.70192  0.21929999999999994  1.0000
  C   C38       1.0  0.15477  0.93347  0.24259  1.0000
  C   C39       1.0  0.50062  0.058949999999999995  0.9944299999999999  1.0000
  C   C40       1.0  0.91532  0.2644399999999999  0.07484  1.0000
  C   C41       1.0  0.04519000000000001  0.72686  0.83957  1.0000
  C   C42       1.0  0.53831  0.7743199999999998  0.40963  1.0000
  C   C43       1.0  0.49571  0.01628  0.98398  1.0000
  C   C44       1.0  0.25986999999999993  0.7635699999999997  0.12938  1.0000
  C   C45       1.0  0.025830000000000002  0.38788  0.38982  1.0000
  C   C46       1.0  0.8452200000000001  0.06653  0.75741  1.0000
  C   C47       1.0  0.96044  0.04514  0.7528199999999998  1.0000
  C   C48       1.0  0.07917  0.06706  0.75611  1.0000
  C   C49       1.0  0.72992  0.13236999999999993  0.77252  1.0000
  C   C50       1.0  0.14955  0.89079  0.23537  1.0000
  C   C51       1.0  0.57626  0.65605  0.22605  1.0000
  C   C52       1.0  0.010809999999999998  0.91459  0.72478  1.0000
  C   C53       1.0  0.47680000000000006  0.74917  0.54035  1.0000
  C   C54       1.0  0.057640000000000004  0.27888  0.13293  1.0000
  C   C55       1.0  0.5266400000000001  0.37208  0.78084  1.0000
  C   C56       1.0  0.92373  0.84395  0.72605  1.0000
  C   C57       1.0  0.36055  0.74692  0.56264  1.0000
  C   C58       1.0  0.70707  0.63366  0.7318799999999998  1.0000
  C   C59       1.0  0.86309  0.24080999999999994  0.89461  1.0000
  C   C60       1.0  0.10857000000000001  0.07051  0.26302  1.0000
  C   C61       1.0  0.006939999999999997  0.41039  0.46438  1.0000
  C   C62       1.0  0.38055000000000005  0.76064  0.46993  1.0000
  C   C63       1.0  0.59398  0.7443499999999997  0.56142  1.0000
  C   C64       1.0  0.64955  0.39079  0.26463  1.0000
  C   C65       1.0  0.9891800000000002  0.08540999999999997  0.27522  1.0000
  C   C66       1.0  0.27007  0.8676299999999998  0.22748  1.0000
  C   C67       1.0  0.24012000000000006  0.73643  0.62938  1.0000
  C   C68       1.0  0.3599  0.47417  0.75835  1.0000
  C   C69       1.0  0.5576400000000001  0.77888  0.3670699999999999  1.0000
  C   C70       1.0  0.09398  0.24435  0.93858  1.0000
  C   C71       1.0  0.02662999999999998  0.8720799999999997  0.71916  1.0000
  C   C72       1.0  0.9208200000000001  0.93294  0.24388999999999994  1.0000
  C   C73       1.0  0.85044  0.10921  0.76463  1.0000
  C   C74       1.0  0.03955  0.9548599999999998  0.24717999999999996  1.0000
  C   C75       1.0  0.46168  0.22568  0.59037  1.0000
  C   C76       1.0  0.41728  0.39022  0.26277  1.0000
  C   C77       1.0  0.46044  0.54514  0.74718  1.0000
  C   C78       1.0  0.5178  0.99375  0.05853  1.0000
  C   C79       1.0  0.4237300000000001  0.34394999999999987  0.77395  1.0000
  C   C80       1.0  0.28908  0.40099  0.75594  1.0000
  C   C81       1.0  0.44235000000000013  0.22111999999999996  0.63293  1.0000
  C   C82       1.0  0.5258299999999999  0.8878799999999998  0.11018  1.0000
  C   C83       1.0  0.52036  0.26317  0.37366  1.0000
  C   C84       1.0  0.43687  0.29808  0.7807  1.0000
  C   C85       1.0  0.9750100000000003  0.53684  0.5886899999999998  1.0000
  C   C86       1.0  0.46824  0.63101  0.73339  1.0000
  C   C87       1.0  0.017800000000000003  0.49375  0.44147  1.0000
  C   C88       1.0  0.34522  0.56653  0.74259  1.0000
  C   C89       1.0  0.69476  0.6412699999999998  0.23895  1.0000
  C   C90       1.0  0.58467  0.23556  0.57484  1.0000
  C   C91       1.0  0.35044  0.60921  0.73537  1.0000
  C   C92       1.0  0.6400900000000002  0.52583  0.24165  1.0000
  C   C93       1.0  0.08467000000000002  0.73556  0.92516  1.0000
  C   C94       1.0  0.52611  0.22169  0.70631  1.0000
  C   C95       1.0  0.59519  0.73809  0.60414  1.0000
  C   C96       1.0  0.57917  0.5670599999999998  0.74389  1.0000
  C   C97       1.0  0.21091  0.09900999999999997  0.2559399999999999  1.0000
  C   C98       1.0  0.4153200000000001  0.76444  0.42516  1.0000
  C   C99       1.0  0.18718  0.74127  0.89729  1.0000
  C   C100      1.0  0.21866  0.23104  0.8732  1.0000
  C   C101      1.0  0.20707  0.13366  0.76812  1.0000
  C   C102      1.0  0.60857  0.5705099999999997  0.23698  1.0000
  C   C103      1.0  0.47416  0.11212  0.88982  1.0000
  C   C104      1.0  0.51081  0.41459  0.77522  1.0000
  C   C105      1.0  0.47501  0.03684  0.91131  1.0000
  C   C106      1.0  0.024980000000000006  0.46316  0.41131  1.0000
  C   C107      1.0  0.96168  0.72568  0.90963  1.0000
  C   C108      1.0  0.020360000000000007  0.76317  0.12634  1.0000
  C   C109      1.0  0.83232  0.26276  0.14506  1.0000
  C   C110      1.0  0.9796300000000001  0.23682999999999996  0.87366  1.0000
  C   C111      1.0  0.4822  0.00625  0.94147  1.0000
  C   C112      1.0  0.49305  0.08961  0.96438  1.0000
  C   C113      1.0  0.06313  0.20192  0.2807  1.0000
  C   C114      1.0  0.47389  0.77831  0.29369  1.0000
  C   C115      1.0  0.8599  0.97417  0.74164  1.0000
  C   C116      1.0  0.91727  0.89022  0.23723  1.0000
  C   C117      1.0  0.47336  0.62792  0.21915999999999994  1.0000
  C   C118      1.0  0.9821900000000001  0.50625  0.55853  1.0000
  C   C119      1.0  0.47963000000000006  0.7368299999999998  0.62634  1.0000
  C   C120      1.0  0.30523  0.35873  0.76105  1.0000
  C   C121      1.0  0.97389  0.27831  0.20630999999999997  1.0000
  C   C122      1.0  0.00428  0.48372  0.48398  1.0000
  C   C123      1.0  0.5451900000000001  0.22685999999999995  0.66043  1.0000
  C   C124      1.0  0.5231900000000002  0.25083  0.4596499999999999  1.0000
  C   C125      1.0  0.97336  0.12792  0.28084  1.0000
  C   C126      1.0  0.5249800000000001  0.96316  0.08869  1.0000
  C   C127      1.0  0.16766999999999999  0.7372399999999998  0.85494  1.0000
  C   C128      1.0  0.023180000000000003  0.75083  0.04034999999999998  1.0000
  C   C129      1.0  0.14009  0.02583  0.25835  1.0000
  C   C130      1.0  0.79292  0.8663399999999998  0.23188  1.0000
  C   C131      1.0  0.9682400000000001  0.13101  0.76661  1.0000
  C   C132      1.0  0.8914200000000001  0.92949  0.73698  1.0000
  C   C133      1.0  0.99571  0.51628  0.51601  1.0000
  C   C134      1.0  0.6676700000000001  0.23724  0.64506  1.0000
  C   C135      1.0  0.78908  0.90099  0.74406  1.0000
  C   C136      1.0  0.09519000000000002  0.23809  0.89585  1.0000
  C   C137      1.0  0.28134  0.26896  0.3732  1.0000
  C   C138      1.0  0.8128100000000003  0.2587299999999999  0.10270999999999997  1.0000
  C   C139      1.0  0.49937  0.9410499999999998  0.00557  1.0000
  C   C140      1.0  0.13691  0.7591899999999998  0.10539  1.0000
  C   C141      1.0  0.31281  0.75873  0.39729  1.0000
  C   C142      1.0  0.48918000000000006  0.58541  0.22478  1.0000
  C   C143      1.0  0.88055  0.26064  0.03007  1.0000
  C   C144      1.0  0.6547700000000001  0.43347  0.25741  1.0000
  C   C145      1.0  0.9060100000000001  0.75565  0.06142  1.0000
  C   C146      1.0  0.98045  0.579  0.57765  1.0000
  C   C147      1.0  0.5827100000000001  0.60978  0.73723  1.0000
  C   C148      1.0  0.11944  0.73936  0.96993  1.0000
  C   C149      1.0  0.36308000000000007  0.74081  0.60539  1.0000
  C   C150      1.0  0.71865  0.7310399999999998  0.6268  1.0000
  C   C151      1.0  0.29292000000000007  0.36634  0.26812  1.0000
  C   C152      1.0  0.9048  0.76191  0.10415  1.0000
  C   C153      1.0  0.0261  0.72169  0.79368  1.0000
  C   C154      1.0  0.50694  0.91039  0.03561999999999999  1.0000
  C   C155      1.0  0.5317600000000001  0.3689899999999999  0.26661  1.0000
  C   C156      1.0  0.6194500000000001  0.23936  0.53007  1.0000
  N   N1        1.0  0.53652  0.49771999999999994  0.24622  1.0000
  N   N2        1.0  0.9819000000000001  0.25492  0.00257  1.0000
  N   N3        1.0  0.03652  0.99772  0.25378  1.0000
  N   N4        1.0  0.4819  0.75492  0.49742999999999993  1.0000
  N   N5        1.0  0.018089999999999995  0.74508  0.9974199999999999  1.0000
  N   N6        1.0  0.96348  0.00228  0.7462199999999998  1.0000
  N   N7        1.0  0.46347  0.50228  0.75378  1.0000
  N   N8        1.0  0.51809  0.24508  0.50257  1.0000
  O   O1        1.0  0.75165  0.51464  0.24186  1.0000
  O   O2        1.0  0.7881000000000002  0.7730499999999998  0.16558  1.0000
  O   O3        1.0  0.8201300000000002  0.72906  0.60435  1.0000
  O   O4        1.0  0.5812  0.79224  0.28085  1.0000
  O   O5        1.0  0.6934200000000001  0.88743  0.22511  1.0000
  O   O6        1.0  0.6246100000000001  0.11063  0.77271  1.0000
  O   O7        1.0  0.2507400000000001  0.73974  0.66849  1.0000
  O   O8        1.0  0.52488  0.8504399999999998  0.09731  1.0000
  O   O9        1.0  0.3201300000000001  0.22906  0.89565  1.0000
  O   O10       1.0  0.040479999999999995  0.7853999999999998  0.70422  1.0000
  O   O11       1.0  0.47511000000000003  0.14956  0.90269  1.0000
  O   O12       1.0  0.63777  0.22916999999999996  0.8914  1.0000
  O   O13       1.0  0.29981  0.3271099999999999  0.26633  1.0000
  O   O14       1.0  0.4595099999999999  0.7146  0.20422  1.0000
  O   O15       1.0  0.6798600000000001  0.77094  0.10434999999999997  1.0000
  O   O16       1.0  0.23147000000000006  0.7379799999999997  0.98153  1.0000
  O   O17       1.0  0.16189  0.22438  0.27063  1.0000
  O   O18       1.0  0.9187800000000002  0.70776  0.78085  1.0000
  O   O19       1.0  0.74925  0.26026  0.33150999999999997  1.0000
  O   O20       1.0  0.62409  0.2319  0.72853  1.0000
  O   O21       1.0  0.08121  0.29224  0.21915  1.0000
  O   O22       1.0  0.7118900000000001  0.72695  0.66558  1.0000
  O   O23       1.0  0.024880000000000006  0.35044  0.40269  1.0000
  O   O24       1.0  0.19342000000000004  0.38743  0.27489  1.0000
  O   O25       1.0  0.13776999999999998  0.7291699999999998  0.6086  1.0000
  O   O26       1.0  0.24925000000000003  0.76026  0.16849  1.0000
  O   O27       1.0  0.74323  0.17084  0.7792799999999998  1.0000
  O   O28       1.0  0.17986  0.2709399999999999  0.39565  1.0000
  O   O29       1.0  0.24322000000000005  0.67084  0.72072  1.0000
  O   O30       1.0  0.70018  0.67289  0.73366  1.0000
  O   O31       1.0  0.7507400000000001  0.23974  0.83151  1.0000
  O   O32       1.0  0.3759  0.76809  0.27147  1.0000
  O   O33       1.0  0.41879  0.20776  0.7191499999999998  1.0000
  O   O34       1.0  0.03139  0.40014  0.35228  1.0000
  O   O35       1.0  0.9685999999999999  0.59986  0.64772  1.0000
  O   O36       1.0  0.87539  0.38937  0.2727099999999999  1.0000
  O   O37       1.0  0.5313900000000001  0.9001399999999998  0.14772  1.0000
  O   O38       1.0  0.21189000000000002  0.22694999999999996  0.83442  1.0000
  O   O39       1.0  0.8622300000000003  0.27083  0.3913999999999999  1.0000
  O   O40       1.0  0.25165000000000004  0.01464  0.25814  1.0000
  O   O41       1.0  0.28811000000000003  0.27305  0.33442  1.0000
  O   O42       1.0  0.9752700000000001  0.6916  0.6874  1.0000
  O   O43       1.0  0.7998000000000001  0.82711  0.23366999999999993  1.0000
  O   O44       1.0  0.75677  0.32916  0.27928  1.0000
  O   O45       1.0  0.66189  0.72437  0.22937  1.0000
  O   O46       1.0  0.9751100000000001  0.64956  0.59731  1.0000
  O   O47       1.0  0.25677000000000005  0.8291599999999998  0.22072  1.0000
  O   O48       1.0  0.8759  0.2681  0.22853  1.0000
  O   O49       1.0  0.46860000000000007  0.09985999999999998  0.85228  1.0000
  O   O50       1.0  0.02472  0.3084  0.3126  1.0000
  O   O51       1.0  0.30657  0.11257  0.7748899999999997  1.0000
  O   O52       1.0  0.20019  0.17289  0.76633  1.0000
  O   O53       1.0  0.5247200000000001  0.8084  0.1874  1.0000
  O   O54       1.0  0.7685300000000002  0.26202  0.01847  1.0000
  O   O55       1.0  0.37539000000000006  0.88937  0.22729  1.0000
  O   O56       1.0  0.3622200000000001  0.77083  0.1086  1.0000
  O   O57       1.0  0.12460000000000002  0.6106299999999998  0.72729  1.0000
  O   O58       1.0  0.7314700000000001  0.23798  0.51847  1.0000
  O   O59       1.0  0.12409000000000002  0.7318999999999998  0.77147  1.0000
  O   O60       1.0  0.8381  0.77562  0.72937  1.0000
  O   O61       1.0  0.24835000000000002  0.48536  0.75814  1.0000
  O   O62       1.0  0.33811  0.27561999999999987  0.77063  1.0000
  O   O63       1.0  0.74834  0.9853599999999998  0.74186  1.0000
  O   O64       1.0  0.95951  0.2146  0.29577  1.0000
  O   O65       1.0  0.54049  0.2854  0.79577  1.0000
  O   O66       1.0  0.47527  0.1916  0.8125999999999998  1.0000
  O   O67       1.0  0.8065700000000002  0.6125699999999997  0.7251  1.0000
  O   O68       1.0  0.26852000000000004  0.76202  0.48153  1.0000
