data_image0
_chemical_formula_structural       Cu32H56C88S24N16O120
_chemical_formula_sum              "Cu32 H56 C88 S24 N16 O120"
_cell_length_a       13.62709
_cell_length_b       13.62731
_cell_length_c       43.27434000000001
_cell_angle_alpha    89.99551
_cell_angle_beta     90.00493
_cell_angle_gamma    90.05185999999999

_symmetry_space_group_name_H-M    'P 1'
_symmetry_Int_Tables_number       1

loop_
  _symmetry_equiv_pos_as_xyz
  'x,y,z'

loop_
  _atom_site_type_symbol
  _atom_site_label
  _atom_site_symmetry_multiplicity
  _atom_site_fract_x
  _atom_site_fract_y
  _atom_site_fract_z
  _atom_site_occupancy
  Cu  Cu1       1.0  0.5577  0.51133  0.27848  1.0000
  Cu  Cu2       1.0  0.72801  0.4267599999999999  0.23662  1.0000
  Cu  Cu3       1.0  0.3242  0.53916  0.27164  1.0000
  Cu  Cu4       1.0  0.6075099999999998  0.8406399999999999  0.25322  1.0000
  Cu  Cu5       1.0  0.44225  0.48857  0.7785199999999998  1.0000
  Cu  Cu6       1.0  0.27201999999999993  0.57305  0.73663  1.0000
  Cu  Cu7       1.0  0.6755399999999998  0.46085  0.7716699999999999  1.0000
  Cu  Cu8       1.0  0.3924899999999999  0.15931  0.75323  1.0000
  Cu  Cu9       1.0  0.98841  0.05756  0.02847  1.0000
  Cu  Cu10      1.0  0.07399  0.22823  0.9865999999999999  1.0000
  Cu  Cu11      1.0  0.9600099999999998  0.82413  0.02147  1.0000
  Cu  Cu12      1.0  0.6596399999999999  0.10642  0.00311  1.0000
  Cu  Cu13      1.0  0.011879999999999996  0.9428399999999999  0.5284999999999999  1.0000
  Cu  Cu14      1.0  0.9263899999999998  0.77195  0.4865999999999999  1.0000
  Cu  Cu15      1.0  0.04056  0.17589  0.52165  1.0000
  Cu  Cu16      1.0  0.34066999999999986  0.89356  0.5031199999999999  1.0000
  Cu  Cu17      1.0  0.93762  0.01645  0.47002999999999995  1.0000
  Cu  Cu18      1.0  0.7717099999999998  0.92515  0.51345  1.0000
  Cu  Cu19      1.0  0.17454  0.03941  0.4780399999999999  1.0000
  Cu  Cu20      1.0  0.8949699999999999  0.33988  0.49675  1.0000
  Cu  Cu21      1.0  0.06241999999999999  0.98345  0.97006  1.0000
  Cu  Cu22      1.0  0.22851999999999995  0.07489  0.01342  1.0000
  Cu  Cu23      1.0  0.8256099999999998  0.96064  0.9780399999999998  1.0000
  Cu  Cu24      1.0  0.10497999999999998  0.6600899999999998  0.9967599999999999  1.0000
  Cu  Cu25      1.0  0.51647  0.56329  0.72007  1.0000
  Cu  Cu26      1.0  0.42544  0.72845  0.76344  1.0000
  Cu  Cu27      1.0  0.53859  0.326  0.72796  1.0000
  Cu  Cu28      1.0  0.84075  0.60484  0.74656  1.0000
  Cu  Cu29      1.0  0.48320999999999986  0.43663  0.22009  1.0000
  Cu  Cu30      1.0  0.57462  0.27158  0.26345  1.0000
  Cu  Cu31      1.0  0.4612599999999999  0.67385  0.22794  1.0000
  Cu  Cu32      1.0  0.15907  0.39511  0.24655  1.0000
  H   H1        1.0  0.8975499999999997  0.5563  0.50963  1.0000
  H   H2        1.0  0.9769999999999998  0.6964  0.42789  1.0000
  H   H3        1.0  0.94576  0.38171999999999995  0.43166  1.0000
  H   H4        1.0  0.11190999999999997  0.64668  0.39856  1.0000
  H   H5        1.0  0.18110999999999994  0.62842  0.34555  1.0000
  H   H6        1.0  0.9761499999999997  0.39525  0.32687  1.0000
  H   H7        1.0  0.9056199999999999  0.41265  0.3790199999999999  1.0000
  H   H8        1.0  0.10264999999999998  0.4437299999999999  0.009629999999999998  1.0000
  H   H9        1.0  0.02335  0.30365  0.92789  1.0000
  H   H10       1.0  0.05377  0.61842  0.93169  1.0000
  H   H11       1.0  0.88814  0.35336  0.89858  1.0000
  H   H12       1.0  0.81885  0.37153  0.84557  1.0000
  H   H13       1.0  0.02383  0.60475  0.8268599999999999  1.0000
  H   H14       1.0  0.09433999999999997  0.58738  0.87902  1.0000
  H   H15       1.0  0.9431999999999999  0.39778  0.25962  1.0000
  H   H16       1.0  0.80321  0.47801  0.17798  1.0000
  H   H17       1.0  0.11775999999999998  0.44574  0.18162  1.0000
  H   H18       1.0  0.8533499999999998  0.61222  0.14846999999999996  1.0000
  H   H19       1.0  0.872  0.68093  0.09538  1.0000
  H   H20       1.0  0.10483  0.47575  0.07697  1.0000
  H   H21       1.0  0.08691999999999997  0.40548  0.12914  1.0000
  H   H22       1.0  0.05665  0.6019999999999999  0.7596499999999998  1.0000
  H   H23       1.0  0.19670999999999994  0.52195  0.6780199999999998  1.0000
  H   H24       1.0  0.8822299999999997  0.55451  0.6815899999999999  1.0000
  H   H25       1.0  0.14667  0.38793  0.6485  1.0000
  H   H26       1.0  0.12811  0.31907  0.59543  1.0000
  H   H27       1.0  0.89512  0.52421  0.5769799999999999  1.0000
  H   H28       1.0  0.9131499999999998  0.5945  0.62912  1.0000
  H   H29       1.0  0.6028099999999997  0.05665  0.24042  1.0000
  H   H30       1.0  0.52119  0.19577  0.32203999999999994  1.0000
  H   H31       1.0  0.5545799999999999  0.8812699999999999  0.31832  1.0000
  H   H32       1.0  0.38775  0.14634  0.3514399999999999  1.0000
  H   H33       1.0  0.31891999999999987  0.12835  0.40451  1.0000
  H   H34       1.0  0.52437  0.89549  0.42311  1.0000
  H   H35       1.0  0.59462  0.91312  0.37106999999999996  1.0000
  H   H36       1.0  0.3972  0.94333  0.74044  1.0000
  H   H37       1.0  0.4788099999999999  0.80426  0.82207  1.0000
  H   H38       1.0  0.4454999999999999  0.11876999999999999  0.81831  1.0000
  H   H39       1.0  0.61234  0.8537  0.8514599999999999  1.0000
  H   H40       1.0  0.6810799999999998  0.87172  0.9045399999999999  1.0000
  H   H41       1.0  0.4756  0.10451  0.9231299999999999  1.0000
  H   H42       1.0  0.4053299999999999  0.08695  0.8710599999999997  1.0000
  H   H43       1.0  0.55639  0.89682  0.49042  1.0000
  H   H44       1.0  0.69556  0.97705  0.5721999999999999  1.0000
  H   H45       1.0  0.38096999999999986  0.9454999999999999  0.56823  1.0000
  H   H46       1.0  0.64638  0.11199  0.6013699999999998  1.0000
  H   H47       1.0  0.6286499999999999  0.18124  0.65437  1.0000
  H   H48       1.0  0.39554  0.976  0.6732099999999999  1.0000
  H   H49       1.0  0.41268  0.90549  0.62119  1.0000
  H   H50       1.0  0.44392  0.10307  0.9904099999999999  1.0000
  H   H51       1.0  0.3046099999999999  0.022879999999999998  0.07213999999999998  1.0000
  H   H52       1.0  0.6192499999999999  0.05435999999999999  0.06826  1.0000
  H   H53       1.0  0.3535799999999999  0.88802  0.10136  1.0000
  H   H54       1.0  0.3712799999999999  0.8187299999999998  0.15435999999999997  1.0000
  H   H55       1.0  0.6044  0.023939999999999993  0.17323  1.0000
  H   H56       1.0  0.5873  0.0945  0.1212  1.0000
  C   C1        1.0  0.91576  0.55099  0.48523  1.0000
  C   C2        1.0  0.96244  0.62759  0.43967  1.0000
  C   C3        1.0  0.96858  0.53758  0.42434  1.0000
  C   C4        1.0  0.9416099999999998  0.45504999999999995  0.44161  1.0000
  C   C5        1.0  0.004779999999999999  0.5302  0.39243999999999996  1.0000
  C   C6        1.0  0.08119  0.5927499999999999  0.3826699999999999  1.0000
  C   C7        1.0  0.12059999999999998  0.58235  0.3532  1.0000
  C   C8        1.0  0.08358  0.51001  0.3332199999999999  1.0000
  C   C9        1.0  0.00555  0.44981  0.34263  1.0000
  C   C10       1.0  0.9665699999999998  0.45936999999999995  0.37213999999999997  1.0000
  C   C11       1.0  0.1304  0.49394  0.30256  1.0000
  C   C12       1.0  0.08429999999999999  0.44903  0.98524  1.0000
  C   C13       1.0  0.037759999999999995  0.37245  0.9396699999999999  1.0000
  C   C14       1.0  0.0314  0.46247  0.92436  1.0000
  C   C15       1.0  0.058169999999999986  0.54505  0.9416299999999997  1.0000
  C   C16       1.0  0.9951999999999998  0.46981  0.8924599999999999  1.0000
  C   C17       1.0  0.9187999999999997  0.40726  0.88268  1.0000
  C   C18       1.0  0.87937  0.41764  0.8532099999999999  1.0000
  C   C19       1.0  0.9164099999999997  0.49001  0.83324  1.0000
  C   C20       1.0  0.99447  0.5502  0.8426299999999999  1.0000
  C   C21       1.0  0.03341  0.54063  0.8721499999999998  1.0000
  C   C22       1.0  0.86956  0.50618  0.80257  1.0000
  C   C23       1.0  0.9485099999999997  0.41626  0.23523999999999998  1.0000
  C   C24       1.0  0.872  0.46316  0.18971  1.0000
  C   C25       1.0  0.96196  0.46889  0.17434  1.0000
  C   C26       1.0  0.04443  0.44189  0.19158  1.0000
  C   C27       1.0  0.9694799999999998  0.5048  0.14242999999999997  1.0000
  C   C28       1.0  0.90718  0.58124  0.13262  1.0000
  C   C29       1.0  0.9177899999999999  0.62043  0.10313  1.0000
  C   C30       1.0  0.99007  0.58326  0.0832  1.0000
  C   C31       1.0  0.05015999999999999  0.50527  0.09266  1.0000
  C   C32       1.0  0.04035  0.46642999999999996  0.12218999999999998  1.0000
  C   C33       1.0  0.006249999999999999  0.63028  0.05255  1.0000
  C   C34       1.0  0.05137999999999999  0.58361  0.73526  1.0000
  C   C35       1.0  0.12794  0.53682  0.68975  1.0000
  C   C36       1.0  0.03802  0.5312  0.67434  1.0000
  C   C37       1.0  0.9555399999999997  0.55824  0.6915699999999999  1.0000
  C   C38       1.0  0.03054  0.49523  0.64244  1.0000
  C   C39       1.0  0.09285  0.41882  0.63263  1.0000
  C   C40       1.0  0.08227999999999999  0.3796  0.6031499999999999  1.0000
  C   C41       1.0  0.00994  0.41675  0.58322  1.0000
  C   C42       1.0  0.9498399999999998  0.49473  0.59266  1.0000
  C   C43       1.0  0.9596899999999998  0.53356  0.6221899999999999  1.0000
  C   C44       1.0  0.9938599999999997  0.36978  0.55258  1.0000
  C   C45       1.0  0.58409  0.050899999999999994  0.26478  1.0000
  C   C46       1.0  0.53643  0.12713  0.3102599999999999  1.0000
  C   C47       1.0  0.53063  0.03707  0.32561  1.0000
  C   C48       1.0  0.55777  0.95464  0.30834  1.0000
  C   C49       1.0  0.49482999999999994  0.029999999999999995  0.35754  1.0000
  C   C50       1.0  0.41858  0.09254999999999998  0.36733  1.0000
  C   C51       1.0  0.37937  0.08229  0.3968399999999999  1.0000
  C   C52       1.0  0.41647  0.00996  0.41678999999999994  1.0000
  C   C53       1.0  0.4945999999999999  0.94998  0.40741  1.0000
  C   C54       1.0  0.53344  0.95956  0.37788  1.0000
  C   C55       1.0  0.36937  0.9935899999999999  0.44740999999999986  1.0000
  C   C56       1.0  0.41594999999999993  0.9490799999999998  0.76479  1.0000
  C   C57       1.0  0.4636099999999999  0.87288  0.8102699999999999  1.0000
  C   C58       1.0  0.4694  0.96296  0.82561  1.0000
  C   C59       1.0  0.4422799999999999  0.04539  0.8083399999999998  1.0000
  C   C60       1.0  0.5051499999999999  0.97004  0.8575499999999998  1.0000
  C   C61       1.0  0.58145  0.9074899999999999  0.8673499999999998  1.0000
  C   C62       1.0  0.6206499999999998  0.91776  0.8968599999999999  1.0000
  C   C63       1.0  0.58355  0.99005  0.9168199999999999  1.0000
  C   C64       1.0  0.5054099999999999  0.05004  0.90743  1.0000
  C   C65       1.0  0.4665299999999999  0.0405  0.8778899999999998  1.0000
  C   C66       1.0  0.63073  0.0065  0.9474399999999997  1.0000
  C   C67       1.0  0.5507499999999997  0.9153  0.5147999999999999  1.0000
  C   C68       1.0  0.6268999999999998  0.96243  0.56036  1.0000
  C   C69       1.0  0.5368  0.96886  0.57565  1.0000
  C   C70       1.0  0.4543899999999999  0.94188  0.5583299999999999  1.0000
  C   C71       1.0  0.5297499999999999  0.00506  0.6075399999999999  1.0000
  C   C72       1.0  0.59248  0.08137  0.61728  1.0000
  C   C73       1.0  0.5823999999999999  0.12077999999999997  0.6467699999999998  1.0000
  C   C74       1.0  0.51011  0.08384  0.6668  1.0000
  C   C75       1.0  0.4499599999999999  0.00569  0.65746  1.0000
  C   C76       1.0  0.4592799999999999  0.96669  0.62794  1.0000
  C   C77       1.0  0.494  0.13105  0.69744  1.0000
  C   C78       1.0  0.44947999999999994  0.0846  0.01478  1.0000
  C   C79       1.0  0.37327  0.03749999999999999  0.060299999999999986  1.0000
  C   C80       1.0  0.46334999999999993  0.031039999999999998  0.07562  1.0000
  C   C81       1.0  0.54584  0.05796  0.05832999999999999  1.0000
  C   C82       1.0  0.47026999999999997  0.99491  0.10753999999999998  1.0000
  C   C83       1.0  0.4074899999999999  0.91863  0.11728  1.0000
  C   C84       1.0  0.4175399999999999  0.87921  0.14677  1.0000
  C   C85       1.0  0.4898299999999999  0.91611  0.16681  1.0000
  C   C86       1.0  0.54997  0.99428  0.15747  1.0000
  C   C87       1.0  0.54069  0.0333  0.12794999999999998  1.0000
  C   C88       1.0  0.50606  0.86885  0.19744  1.0000
  S   S1        1.0  0.71591  0.38296  0.30726  1.0000
  S   S2        1.0  0.46040999999999993  0.69946  0.30029  1.0000
  S   S3        1.0  0.6913399999999998  0.64965  0.22041999999999998  1.0000
  S   S4        1.0  0.28406999999999993  0.61705  0.8072499999999998  1.0000
  S   S5        1.0  0.5396199999999999  0.30052  0.8003199999999999  1.0000
  S   S6        1.0  0.30859  0.35027  0.7204399999999999  1.0000
  S   S7        1.0  0.11706  0.21590999999999996  0.05726  1.0000
  S   S8        1.0  0.80024  0.9605  0.05037  1.0000
  S   S9        1.0  0.8523399999999998  0.18856  0.9697099999999998  1.0000
  S   S10       1.0  0.88306  0.78416  0.55721  1.0000
  S   S11       1.0  0.20045  0.04025  0.5503399999999999  1.0000
  S   S12       1.0  0.14828999999999995  0.8114799999999999  0.4696  1.0000
  S   S13       1.0  0.7808799999999998  0.88226  0.44254  1.0000
  S   S14       1.0  0.039469999999999984  0.20279  0.44922999999999996  1.0000
  S   S15       1.0  0.8123  0.14737  0.53025  1.0000
  S   S16       1.0  0.21884999999999996  0.11769  0.9425699999999999  1.0000
  S   S17       1.0  0.9602699999999997  0.7972  0.94922  1.0000
  S   S18       1.0  0.18781999999999993  0.8525999999999999  0.030209999999999997  1.0000
  S   S19       1.0  0.38206999999999997  0.71946  0.6925999999999999  1.0000
  S   S20       1.0  0.70257  0.4606  0.69923  1.0000
  S   S21       1.0  0.64982  0.69014  0.77963  1.0000
  S   S22       1.0  0.61767  0.28076  0.19258999999999998  1.0000
  S   S23       1.0  0.29733  0.53952  0.19923999999999997  1.0000
  S   S24       1.0  0.35015  0.30981  0.27960999999999997  1.0000
  N   N1        1.0  0.9364899999999998  0.6333299999999998  0.4696499999999999  1.0000
  N   N2        1.0  0.9168499999999998  0.46176  0.47176  1.0000
  N   N3        1.0  0.06367  0.3667  0.9696599999999997  1.0000
  N   N4        1.0  0.08303  0.53827  0.9717699999999998  1.0000
  N   N5        1.0  0.86627  0.43716  0.21967999999999996  1.0000
  N   N6        1.0  0.03765  0.41737  0.22174  1.0000
  N   N7        1.0  0.13365  0.56266  0.7197299999999999  1.0000
  N   N8        1.0  0.96226  0.58266  0.72174  1.0000
  N   N9        1.0  0.56281  0.13303  0.28035  1.0000
  N   N10       1.0  0.58291  0.96163  0.27822  1.0000
  N   N11       1.0  0.4372499999999999  0.86695  0.7803599999999999  1.0000
  N   N12       1.0  0.41712  0.03837  0.77822  1.0000
  N   N13       1.0  0.6328899999999997  0.93631  0.53042  1.0000
  N   N14       1.0  0.46147  0.9165299999999998  0.52823  1.0000
  N   N15       1.0  0.36728  0.06364  0.030369999999999994  1.0000
  N   N16       1.0  0.5387499999999998  0.08331  0.02822  1.0000
  O   O1        1.0  0.20102999999999996  0.55042  0.29517  1.0000
  O   O2        1.0  0.09514  0.42367  0.28603  1.0000
  O   O3        1.0  0.6520799999999998  0.47624  0.30923  1.0000
  O   O4        1.0  0.7815199999999999  0.39025  0.2791699999999999  1.0000
  O   O5        1.0  0.6473499999999998  0.29574999999999996  0.30303  1.0000
  O   O6        1.0  0.7713099999999998  0.37603  0.33583  1.0000
  O   O7        1.0  0.5268799999999999  0.61101  0.30755  1.0000
  O   O8        1.0  0.3579  0.66718  0.29371  1.0000
  O   O9        1.0  0.50013  0.74697  0.27021  1.0000
  O   O10       1.0  0.4672499999999999  0.7660799999999998  0.32647999999999994  1.0000
  O   O11       1.0  0.7048999999999997  0.57233  0.24568  1.0000
  O   O12       1.0  0.6992799999999998  0.74762  0.23764  1.0000
  O   O13       1.0  0.59071  0.63904  0.20648999999999998  1.0000
  O   O14       1.0  0.7678199999999997  0.6430499999999999  0.19694  1.0000
  O   O15       1.0  0.7987599999999999  0.44993  0.7951899999999997  1.0000
  O   O16       1.0  0.90492  0.57637  0.78603  1.0000
  O   O17       1.0  0.3479599999999999  0.5238  0.8092199999999999  1.0000
  O   O18       1.0  0.21840999999999994  0.60984  0.77918  1.0000
  O   O19       1.0  0.35263  0.70423  0.80302  1.0000
  O   O20       1.0  0.22867999999999997  0.62399  0.83581  1.0000
  O   O21       1.0  0.4731999999999999  0.3889699999999999  0.80759  1.0000
  O   O22       1.0  0.64209  0.3327  0.7936699999999999  1.0000
  O   O23       1.0  0.4999299999999999  0.25314  0.77022  1.0000
  O   O24       1.0  0.5327199999999999  0.23386  0.8265  1.0000
  O   O25       1.0  0.29508  0.42751  0.74572  1.0000
  O   O26       1.0  0.3006899999999999  0.25227  0.73764  1.0000
  O   O27       1.0  0.40924  0.3608799999999999  0.70652  1.0000
  O   O28       1.0  0.23213  0.35694  0.69695  1.0000
  O   O29       1.0  0.9502899999999997  0.70119  0.045169999999999995  1.0000
  O   O30       1.0  0.07630999999999998  0.59493  0.03601  1.0000
  O   O31       1.0  0.02370999999999999  0.15202999999999997  0.05918999999999999  1.0000
  O   O32       1.0  0.10991999999999999  0.28152  0.02915  1.0000
  O   O33       1.0  0.20427999999999993  0.14757  0.053009999999999995  1.0000
  O   O34       1.0  0.12413999999999997  0.27122  0.08583  1.0000
  O   O35       1.0  0.8882599999999998  0.02761  0.057569999999999996  1.0000
  O   O36       1.0  0.8326699999999998  0.8582  0.04372  1.0000
  O   O37       1.0  0.75271  0.99975  0.02022  1.0000
  O   O38       1.0  0.7335499999999999  0.96714  0.07652999999999999  1.0000
  O   O39       1.0  0.9276499999999998  0.20494  0.9954199999999997  1.0000
  O   O40       1.0  0.7530399999999999  0.19567999999999997  0.98614  1.0000
  O   O41       1.0  0.8657099999999999  0.08738  0.9563899999999999  1.0000
  O   O42       1.0  0.8592999999999997  0.26342  0.94571  1.0000
  O   O43       1.0  0.05012999999999999  0.29903  0.54524  1.0000
  O   O44       1.0  0.9237399999999998  0.40501  0.53602  1.0000
  O   O45       1.0  0.9764399999999998  0.8480099999999999  0.5591399999999999  1.0000
  O   O46       1.0  0.8900999999999998  0.71854  0.5291  1.0000
  O   O47       1.0  0.7958699999999999  0.85262  0.553  1.0000
  O   O48       1.0  0.8760099999999997  0.72881  0.5857799999999999  1.0000
  O   O49       1.0  0.11098  0.97525  0.5576499999999999  1.0000
  O   O50       1.0  0.16976  0.14296  0.5435799999999998  1.0000
  O   O51       1.0  0.24735  0.99983  0.52026  1.0000
  O   O52       1.0  0.26676999999999995  0.03274  0.57656  1.0000
  O   O53       1.0  0.07287  0.79465  0.49525999999999987  1.0000
  O   O54       1.0  0.24733999999999995  0.80455  0.48616999999999994  1.0000
  O   O55       1.0  0.13452  0.9127399999999998  0.4563799999999999  1.0000
  O   O56       1.0  0.14244999999999994  0.7367499999999999  0.44555  1.0000
  O   O57       1.0  0.2981899999999999  0.04911999999999999  0.45475999999999994  1.0000
  O   O58       1.0  0.40514999999999995  0.92372  0.46398999999999996  1.0000
  O   O59       1.0  0.8404699999999998  0.97578  0.43925  1.0000
  O   O60       1.0  0.7185199999999998  0.89032  0.47186  1.0000
  O   O61       1.0  0.8523099999999998  0.79692  0.4472099999999999  1.0000
  O   O62       1.0  0.71895  0.86598  0.41576999999999986  1.0000
  O   O63       1.0  0.97173  0.11898  0.4408  1.0000
  O   O64       1.0  0.14108  0.16715  0.45649999999999996  1.0000
  O   O65       1.0  0.00031999999999999997  0.24715  0.4804899999999999  1.0000
  O   O66       1.0  0.03882  0.27651  0.42497  1.0000
  O   O67       1.0  0.7956899999999999  0.07177  0.50447  1.0000
  O   O68       1.0  0.80465  0.24648  0.5139399999999998  1.0000
  O   O69       1.0  0.9134599999999998  0.134  0.54353  1.0000
  O   O70       1.0  0.7371  0.13865  0.5541  1.0000
  O   O71       1.0  0.70201  0.95112  0.9547899999999998  1.0000
  O   O72       1.0  0.5949099999999998  0.07636  0.9640099999999999  1.0000
  O   O73       1.0  0.15909  0.0243  0.9392099999999999  1.0000
  O   O74       1.0  0.28147999999999995  0.10964  0.9718299999999999  1.0000
  O   O75       1.0  0.14742999999999995  0.20298  0.9473599999999999  1.0000
  O   O76       1.0  0.28056  0.13418  0.91576  1.0000
  O   O77       1.0  0.027999999999999994  0.88097  0.94079  1.0000
  O   O78       1.0  0.85861  0.83282  0.9564799999999998  1.0000
  O   O79       1.0  0.99973  0.75279  0.9804399999999998  1.0000
  O   O80       1.0  0.9609799999999997  0.72339  0.9249999999999999  1.0000
  O   O81       1.0  0.20425  0.9282499999999998  0.00443  1.0000
  O   O82       1.0  0.19543  0.75349  0.01392  1.0000
  O   O83       1.0  0.08674999999999998  0.86606  0.043549999999999985  1.0000
  O   O84       1.0  0.26316  0.86134  0.05401999999999999  1.0000
  O   O85       1.0  0.55017  0.20183  0.70481  1.0000
  O   O86       1.0  0.42369999999999997  0.09557  0.71397  1.0000
  O   O87       1.0  0.47551999999999994  0.65991  0.6891899999999999  1.0000
  O   O88       1.0  0.39047  0.78194  0.72187  1.0000
  O   O89       1.0  0.2968599999999999  0.64789  0.69759  1.0000
  O   O90       1.0  0.3655  0.78095  0.66577  1.0000
  O   O91       1.0  0.6188299999999998  0.52831  0.6907999999999999  1.0000
  O   O92       1.0  0.6666999999999997  0.35899  0.7065  1.0000
  O   O93       1.0  0.7471  0.49978  0.73045  1.0000
  O   O94       1.0  0.7762599999999997  0.46128  0.67496  1.0000
  O   O95       1.0  0.5722099999999999  0.70422  0.7542999999999999  1.0000
  O   O96       1.0  0.7473399999999998  0.69661  0.7623699999999999  1.0000
  O   O97       1.0  0.63823  0.59001  0.7936899999999998  1.0000
  O   O98       1.0  0.64278  0.7674199999999999  0.80289  1.0000
  O   O99       1.0  0.4500099999999999  0.79798  0.2048  1.0000
  O   O100      1.0  0.5763099999999998  0.90441  0.21396999999999994  1.0000
  O   O101      1.0  0.5241599999999998  0.34024  0.18918999999999994  1.0000
  O   O102      1.0  0.60953  0.21818  0.22185  1.0000
  O   O103      1.0  0.70282  0.35243  0.19745  1.0000
  O   O104      1.0  0.63431  0.21916999999999998  0.16577999999999998  1.0000
  O   O105      1.0  0.38113  0.47185  0.19081999999999996  1.0000
  O   O106      1.0  0.33321  0.64112  0.20651999999999998  1.0000
  O   O107      1.0  0.25278  0.50034  0.23044999999999996  1.0000
  O   O108      1.0  0.22357999999999995  0.53879  0.17498999999999998  1.0000
  O   O109      1.0  0.4279499999999999  0.29593  0.25431999999999994  1.0000
  O   O110      1.0  0.25268  0.30331  0.2622999999999999  1.0000
  O   O111      1.0  0.3616799999999999  0.40991  0.29368  1.0000
  O   O112      1.0  0.35703  0.23247999999999996  0.30285999999999996  1.0000
  O   O113      1.0  0.5906  0.40964  0.25038  1.0000
  O   O114      1.0  0.45594  0.5445  0.25029  1.0000
  O   O115      1.0  0.40932999999999997  0.59038  0.7504  1.0000
  O   O116      1.0  0.5439299999999999  0.45533  0.75026  1.0000
  O   O117      1.0  0.09015  0.09052  0.00035999999999999997  1.0000
  O   O118      1.0  0.9542899999999997  0.9555999999999999  0.00027  1.0000
  O   O119      1.0  0.91007  0.90943  0.50036  1.0000
  O   O120      1.0  0.04619  0.0445  0.50029  1.0000
