data_image0
_chemical_formula_structural       Co4H144C168N24O24
_chemical_formula_sum              "Co4 H144 C168 N24 O24"
_cell_length_a       18.3926
_cell_length_b       18.42652
_cell_length_c       18.409189999999995
_cell_angle_alpha    90.01224
_cell_angle_beta     89.99094000000001
_cell_angle_gamma    90.07376

_space_group_name_H-M_alt    "P 1"
_space_group_IT_number       1

loop_
  _space_group_symop_operation_xyz
  'x, y, z'

loop_
  _atom_site_type_symbol
  _atom_site_label
  _atom_site_symmetry_multiplicity
  _atom_site_fract_x
  _atom_site_fract_y
  _atom_site_fract_z
  _atom_site_occupancy
  Co  Co1       1.0  0.49927999999999995  0.50007  7e-05  1.0000
  Co  Co2       1.0  1.0000000000000048e-05  0.49999  0.49996999999999997  1.0000
  Co  Co3       1.0  0.50013  1.000000000000002e-05  0.49988  1.0000
  Co  Co4       1.0  8e-05  4.9999999999999996e-05  0.9999099999999999  1.0000
  H   H1        1.0  0.49829  0.42597  0.34731  1.0000
  H   H2        1.0  0.43926  0.39897  0.22777999999999998  1.0000
  H   H3        1.0  0.5729399999999998  0.5678  0.13175  1.0000
  H   H4        1.0  0.62948  0.58542  0.25465  1.0000
  H   H5        1.0  0.61751  0.57988  0.37356  1.0000
  H   H6        1.0  0.6486999999999999  0.49088  0.38355  1.0000
  H   H7        1.0  0.00142  0.57344  0.84821  1.0000
  H   H8        1.0  0.06027999999999999  0.6006100000000001  0.7285  1.0000
  H   H9        1.0  0.92683  0.43142  0.63275  1.0000
  H   H10       1.0  0.87029  0.41397  0.75572  1.0000
  H   H11       1.0  0.8815899999999999  0.41998  0.8740499999999999  1.0000
  H   H12       1.0  0.85065  0.5091  0.88424  1.0000
  H   H13       1.0  0.50216  0.92602  0.15258  1.0000
  H   H14       1.0  0.56115  0.9000800000000001  0.27254  1.0000
  H   H15       1.0  0.42666  0.06856  0.36752  1.0000
  H   H16       1.0  0.3712499999999999  0.08627  0.24419  1.0000
  H   H17       1.0  0.38221  0.07789  0.12376999999999999  1.0000
  H   H18       1.0  0.3521399999999999  0.9879  0.11746999999999999  1.0000
  H   H19       1.0  0.99822  0.07398  0.65321  1.0000
  H   H20       1.0  0.9398099999999999  0.09998  0.77345  1.0000
  H   H21       1.0  0.07439  0.93116  0.8676  1.0000
  H   H22       1.0  0.13020999999999994  0.9146100000000001  0.74427  1.0000
  H   H23       1.0  0.11797999999999999  0.9208399999999999  0.62574  1.0000
  H   H24       1.0  0.14843  0.01022  0.61653  1.0000
  H   H25       1.0  0.34818999999999994  0.4969700000000001  0.42847  1.0000
  H   H26       1.0  0.22785  0.43861  0.4012  1.0000
  H   H27       1.0  0.13225  0.57458  0.56816  1.0000
  H   H28       1.0  0.25614  0.62927  0.58665  1.0000
  H   H29       1.0  0.3751899999999999  0.61775  0.57995  1.0000
  H   H30       1.0  0.38323  0.6492200000000001  0.49041  1.0000
  H   H31       1.0  0.8489  0.0026899999999999997  0.57175  1.0000
  H   H32       1.0  0.72917  0.06202  0.59884  1.0000
  H   H33       1.0  0.63261  0.9266800000000001  0.43164  1.0000
  H   H34       1.0  0.7558  0.87102  0.4136  1.0000
  H   H35       1.0  0.87484  0.88172  0.42039  1.0000
  H   H36       1.0  0.88312  0.85054  0.50999  1.0000
  H   H37       1.0  0.15127  0.50245  0.92816  1.0000
  H   H38       1.0  0.27112999999999987  0.5622  0.90176  1.0000
  H   H39       1.0  0.36738  0.42604  0.06819  1.0000
  H   H40       1.0  0.24411999999999998  0.37027  0.086  1.0000
  H   H41       1.0  0.12424  0.38173  0.07934  1.0000
  H   H42       1.0  0.11654  0.35059  0.98967  1.0000
  H   H43       1.0  0.6526599999999998  0.99852  0.07381  1.0000
  H   H44       1.0  0.7727699999999998  0.93996  0.10015  1.0000
  H   H45       1.0  0.8675699999999998  0.07429000000000001  0.93122  1.0000
  H   H46       1.0  0.7443299999999998  0.13041  0.91464  1.0000
  H   H47       1.0  0.6260299999999998  0.1178  0.9200899999999999  1.0000
  H   H48       1.0  0.6161  0.14887  0.00929  1.0000
  H   H49       1.0  0.4264  0.34681  0.49602000000000007  1.0000
  H   H50       1.0  0.39992  0.22638  0.4386  1.0000
  H   H51       1.0  0.56852  0.13275  0.57405  1.0000
  H   H52       1.0  0.58677  0.25685  0.62795  1.0000
  H   H53       1.0  0.5777  0.37626  0.61717  1.0000
  H   H54       1.0  0.48741999999999996  0.38206  0.64709  1.0000
  H   H55       1.0  0.57221  0.84827  0.00347  1.0000
  H   H56       1.0  0.5988399999999998  0.72847  0.06246999999999999  1.0000
  H   H57       1.0  0.4312599999999999  0.63293  0.9267699999999999  1.0000
  H   H58       1.0  0.41332  0.75617  0.87146  1.0000
  H   H59       1.0  0.4212  0.87504  0.88192  1.0000
  H   H60       1.0  0.51111  0.88267  0.85112  1.0000
  H   H61       1.0  0.9263199999999999  0.15258  0.50283  1.0000
  H   H62       1.0  0.9003999999999998  0.2727  0.5612  1.0000
  H   H63       1.0  0.06899999999999999  0.3672  0.42594  1.0000
  H   H64       1.0  0.08674  0.24354999999999996  0.37125  1.0000
  H   H65       1.0  0.07795  0.12345  0.38238  1.0000
  H   H66       1.0  0.9877599999999999  0.11749000000000001  0.35232  1.0000
  H   H67       1.0  0.07428  0.65351  0.9965699999999998  1.0000
  H   H68       1.0  0.09988  0.77374  0.9383599999999999  1.0000
  H   H69       1.0  0.9311  0.86725  0.07386  1.0000
  H   H70       1.0  0.91373  0.74346  0.12855  1.0000
  H   H71       1.0  0.9228399999999999  0.6239100000000001  0.11762  1.0000
  H   H72       1.0  0.01309  0.61771  0.14717  1.0000
  H   H73       1.0  0.50179  0.57369  0.65282  1.0000
  H   H74       1.0  0.55987  0.6007  0.7729  1.0000
  H   H75       1.0  0.4258599999999999  0.43155  0.86782  1.0000
  H   H76       1.0  0.3701399999999999  0.41395  0.74438  1.0000
  H   H77       1.0  0.3823  0.42005000000000003  0.62593  1.0000
  H   H78       1.0  0.35122  0.50911  0.61611  1.0000
  H   H79       1.0  0.9985999999999999  0.4266400000000001  0.15175  1.0000
  H   H80       1.0  0.93968  0.39942  0.27141  1.0000
  H   H81       1.0  0.07315999999999998  0.56855  0.36726  1.0000
  H   H82       1.0  0.12972  0.58605  0.24430999999999997  1.0000
  H   H83       1.0  0.11842999999999998  0.57997  0.1258  1.0000
  H   H84       1.0  0.1493  0.49083000000000004  0.11574  1.0000
  H   H85       1.0  0.49783  0.07379  0.84748  1.0000
  H   H86       1.0  0.43889999999999996  0.09977  0.72757  1.0000
  H   H87       1.0  0.5734199999999999  0.9313999999999999  0.63246  1.0000
  H   H88       1.0  0.62876  0.9136400000000001  0.75584  1.0000
  H   H89       1.0  0.61782  0.92197  0.87628  1.0000
  H   H90       1.0  0.64789  0.011910000000000002  0.8827299999999999  1.0000
  H   H91       1.0  0.0014400000000000003  0.9256100000000002  0.3468  1.0000
  H   H92       1.0  0.06018000000000001  0.9000000000000001  0.2266  1.0000
  H   H93       1.0  0.9258099999999999  0.06904  0.13269  1.0000
  H   H94       1.0  0.8697899999999998  0.08537  0.25589  1.0000
  H   H95       1.0  0.8821099999999998  0.07921  0.37434  1.0000
  H   H96       1.0  0.8515599999999998  0.98984  0.3837  1.0000
  H   H97       1.0  0.65177  0.50312  0.57146  1.0000
  H   H98       1.0  0.77206  0.56148  0.59878  1.0000
  H   H99       1.0  0.86778  0.42553  0.43189  1.0000
  H   H100      1.0  0.7438799999999998  0.37079  0.41336  1.0000
  H   H101      1.0  0.62492  0.38227  0.42  1.0000
  H   H102      1.0  0.61677  0.35084  0.50955  1.0000
  H   H103      1.0  0.15111  0.99723  0.42841  1.0000
  H   H104      1.0  0.27081  0.9379600000000001  0.40127  1.0000
  H   H105      1.0  0.36746  0.07319  0.5684  1.0000
  H   H106      1.0  0.24426  0.12891  0.58658  1.0000
  H   H107      1.0  0.12533  0.11828000000000001  0.57974  1.0000
  H   H108      1.0  0.11693999999999999  0.14951  0.49012999999999995  1.0000
  H   H109      1.0  0.8483899999999998  0.49753000000000003  0.07185  1.0000
  H   H110      1.0  0.72854  0.43778  0.09824  1.0000
  H   H111      1.0  0.63229  0.57392  0.9317899999999999  1.0000
  H   H112      1.0  0.75558  0.62964  0.91389  1.0000
  H   H113      1.0  0.8756499999999999  0.61817  0.92069  1.0000
  H   H114      1.0  0.88329  0.64925  0.01039  1.0000
  H   H115      1.0  0.3476899999999999  0.00168  0.9269100000000001  1.0000
  H   H116      1.0  0.22765  0.060230000000000006  0.9003  1.0000
  H   H117      1.0  0.13214  0.92559  0.0686  1.0000
  H   H118      1.0  0.25533999999999996  0.86946  0.08552  1.0000
  H   H119      1.0  0.3739999999999999  0.8818499999999999  0.08001  1.0000
  H   H120      1.0  0.38381  0.85104  0.99074  1.0000
  H   H121      1.0  0.57357  0.65315  0.504  1.0000
  H   H122      1.0  0.60005  0.7735  0.56156  1.0000
  H   H123      1.0  0.43156  0.86729  0.4261  1.0000
  H   H124      1.0  0.4132599999999999  0.74324  0.37209  1.0000
  H   H125      1.0  0.4223  0.62386  0.38281  1.0000
  H   H126      1.0  0.51254  0.61804  0.35279  1.0000
  H   H127      1.0  0.42778  0.1517  0.9964899999999999  1.0000
  H   H128      1.0  0.40107999999999994  0.27156  0.93761  1.0000
  H   H129      1.0  0.5684999999999998  0.36717  0.07343  1.0000
  H   H130      1.0  0.58665  0.24385000000000004  0.12849  1.0000
  H   H131      1.0  0.57883  0.12487999999999999  0.118  1.0000
  H   H132      1.0  0.48896999999999996  0.11741  0.14886  1.0000
  H   H133      1.0  0.07371999999999997  0.8474600000000001  0.49731  1.0000
  H   H134      1.0  0.0996  0.72737  0.43887000000000004  1.0000
  H   H135      1.0  0.9309899999999998  0.63285  0.57411  1.0000
  H   H136      1.0  0.9132899999999999  0.75644  0.62883  1.0000
  H   H137      1.0  0.9220899999999997  0.8766  0.61778  1.0000
  H   H138      1.0  0.012319999999999996  0.8825100000000001  0.64781  1.0000
  H   H139      1.0  0.92557  0.34635  0.00336  1.0000
  H   H140      1.0  0.90024  0.22616  0.06176  1.0000
  H   H141      1.0  0.06888  0.13267  0.9263  1.0000
  H   H142      1.0  0.08611  0.25632  0.8713399999999999  1.0000
  H   H143      1.0  0.0772  0.37593  0.88263  1.0000
  H   H144      1.0  0.98698  0.38215  0.85276  1.0000
  C   C1        1.0  0.51312  0.45407000000000003  0.29754  1.0000
  C   C2        1.0  0.48105  0.44057  0.23183  1.0000
  C   C3        1.0  0.5005599999999999  0.48085  0.16726  1.0000
  C   C4        1.0  0.5568399999999998  0.53461  0.17795  1.0000
  C   C5        1.0  0.5873399999999999  0.54517  0.24473000000000003  1.0000
  C   C6        1.0  0.59922  0.52329  0.37751  1.0000
  C   C7        1.0  0.54862  0.51218  0.4406399999999999  1.0000
  C   C8        1.0  0.98632  0.54563  0.79834  1.0000
  C   C9        1.0  0.01834  0.55915  0.73259  1.0000
  C   C10       1.0  0.9986699999999998  0.51889  0.66802  1.0000
  C   C11       1.0  0.94272  0.4648300000000001  0.67885  1.0000
  C   C12       1.0  0.91223  0.4544  0.74564  1.0000
  C   C13       1.0  0.9000299999999999  0.47652  0.8784  1.0000
  C   C14       1.0  0.95053  0.48745999999999995  0.9413300000000001  1.0000
  C   C15       1.0  0.4878  0.9547800000000001  0.2021  1.0000
  C   C16       1.0  0.51964  0.9417800000000001  0.26793  1.0000
  C   C17       1.0  0.49993999999999994  0.98249  0.33215  1.0000
  C   C18       1.0  0.44351  0.03587  0.32125  1.0000
  C   C19       1.0  0.41338  0.04623  0.25432  1.0000
  C   C20       1.0  0.4010199999999999  0.02137  0.12274  1.0000
  C   C21       1.0  0.45252  0.01002  0.05948  1.0000
  C   C22       1.0  0.01308  0.04543  0.7027  1.0000
  C   C23       1.0  0.9814099999999998  0.05836999999999999  0.76869  1.0000
  C   C24       1.0  0.0014799999999999998  0.01783  0.8329  1.0000
  C   C25       1.0  0.057689999999999984  0.96431  0.82166  1.0000
  C   C26       1.0  0.08779999999999998  0.95432  0.75464  1.0000
  C   C27       1.0  0.09921999999999997  0.9772500000000001  0.62231  1.0000
  C   C28       1.0  0.048399999999999985  0.98827  0.55937  1.0000
  C   C29       1.0  0.29817  0.5123  0.4559599999999999  1.0000
  C   C30       1.0  0.23211999999999997  0.48087  0.44222  1.0000
  C   C31       1.0  0.16744  0.50183  0.48156  1.0000
  C   C32       1.0  0.17855999999999994  0.55787  0.53541  1.0000
  C   C33       1.0  0.24575999999999995  0.58735  0.54634  1.0000
  C   C34       1.0  0.37885  0.5997800000000001  0.52304  1.0000
  C   C35       1.0  0.44172999999999996  0.55018  0.51142  1.0000
  C   C36       1.0  0.79875  0.98766  0.54429  1.0000
  C   C37       1.0  0.7330099999999998  0.01964  0.5579  1.0000
  C   C38       1.0  0.66818  0.9991700000000001  0.51846  1.0000
  C   C39       1.0  0.67891  0.9430499999999999  0.4646100000000001  1.0000
  C   C40       1.0  0.74582  0.913  0.45391  1.0000
  C   C41       1.0  0.8788699999999998  0.8998800000000001  0.47721  1.0000
  C   C42       1.0  0.9418099999999999  0.94953  0.48857  1.0000
  C   C43       1.0  0.20127999999999993  0.48767000000000005  0.95592  1.0000
  C   C44       1.0  0.26704  0.51994  0.9427899999999999  1.0000
  C   C45       1.0  0.33167  0.49981  0.98261  1.0000
  C   C46       1.0  0.32098  0.44292000000000004  0.03567  1.0000
  C   C47       1.0  0.25405999999999995  0.41261  0.04607  1.0000
  C   C48       1.0  0.12102999999999998  0.39991  0.02247  1.0000
  C   C49       1.0  0.05826  0.44987  0.01091  1.0000
  C   C50       1.0  0.70235  0.013520000000000003  0.04553  1.0000
  C   C51       1.0  0.76828  0.98176  0.05869  1.0000
  C   C52       1.0  0.8325899999999998  0.00155  0.01797  1.0000
  C   C53       1.0  0.82155  0.05793  0.9645599999999999  1.0000
  C   C54       1.0  0.7545899999999999  0.08811  0.95451  1.0000
  C   C55       1.0  0.62175  0.09951  0.9766900000000001  1.0000
  C   C56       1.0  0.55883  0.04918  0.98767  1.0000
  C   C57       1.0  0.45480999999999994  0.29741  0.51126  1.0000
  C   C58       1.0  0.44132999999999994  0.23121999999999998  0.48046999999999995  1.0000
  C   C59       1.0  0.48147  0.16712000000000002  0.50138  1.0000
  C   C60       1.0  0.53545  0.17871  0.55723  1.0000
  C   C61       1.0  0.54633  0.24598999999999996  0.58628  1.0000
  C   C62       1.0  0.52104  0.37719  0.59831  1.0000
  C   C63       1.0  0.5096799999999998  0.44048  0.5472  1.0000
  C   C64       1.0  0.54453  0.7983700000000001  0.9882000000000001  1.0000
  C   C65       1.0  0.5579499999999997  0.73264  0.02001  1.0000
  C   C66       1.0  0.51827  0.66806  0.9994600000000001  1.0000
  C   C67       1.0  0.46442  0.67901  0.9432500000000001  1.0000
  C   C68       1.0  0.4537899999999999  0.74589  0.91331  1.0000
  C   C69       1.0  0.4780499999999999  0.87837  0.90035  1.0000
  C   C70       1.0  0.48941  0.9413200000000002  0.9502499999999999  1.0000
  C   C71       1.0  0.9550399999999999  0.20207  0.48812999999999995  1.0000
  C   C72       1.0  0.9419499999999998  0.26804  0.51947  1.0000
  C   C73       1.0  0.98258  0.33224  0.49945  1.0000
  C   C74       1.0  0.03609  0.3211  0.44298  1.0000
  C   C75       1.0  0.04659999999999999  0.25402  0.41332  1.0000
  C   C76       1.0  0.02124  0.12255  0.40117  1.0000
  C   C77       1.0  0.00972  0.05942000000000001  0.45247999999999994  1.0000
  C   C78       1.0  0.04553999999999998  0.70284  0.01154  1.0000
  C   C79       1.0  0.05848  0.76892  0.9802699999999999  1.0000
  C   C80       1.0  0.01786  0.83289  0.00084  1.0000
  C   C81       1.0  0.96424  0.82132  0.05705  1.0000
  C   C82       1.0  0.9539299999999998  0.75418  0.0866  1.0000
  C   C83       1.0  0.9793899999999999  0.62297  0.09849  1.0000
  C   C84       1.0  0.9904599999999999  0.55971  0.04709  1.0000
  C   C85       1.0  0.48653  0.54566  0.70252  1.0000
  C   C86       1.0  0.5180099999999997  0.5592  0.7685  1.0000
  C   C87       1.0  0.4977699999999999  0.51899  0.83291  1.0000
  C   C88       1.0  0.44197999999999993  0.46488  0.82173  1.0000
  C   C89       1.0  0.41205999999999987  0.45431000000000005  0.75473  1.0000
  C   C90       1.0  0.4006599999999999  0.47664  0.62215  1.0000
  C   C91       1.0  0.45137999999999995  0.48784  0.55917  1.0000
  C   C92       1.0  0.01366  0.45443000000000006  0.20164  1.0000
  C   C93       1.0  0.98161  0.44089000000000006  0.26736  1.0000
  C   C94       1.0  0.00129  0.48113000000000006  0.33194  1.0000
  C   C95       1.0  0.05725  0.53519  0.32113  1.0000
  C   C96       1.0  0.08776  0.54563  0.25435  1.0000
  C   C97       1.0  0.09992999999999998  0.52344  0.12154999999999999  1.0000
  C   C98       1.0  0.04935  0.51243  0.05868  1.0000
  C   C99       1.0  0.5123  0.04513  0.79793  1.0000
  C   C100      1.0  0.48051  0.058170000000000006  0.73209  1.0000
  C   C101      1.0  0.50014  0.0175  0.66785  1.0000
  C   C102      1.0  0.55662  0.96415  0.67871  1.0000
  C   C103      1.0  0.58671  0.9537499999999999  0.74566  1.0000
  C   C104      1.0  0.59899  0.9784899999999999  0.87732  1.0000
  C   C105      1.0  0.54743  0.9898899999999999  0.9405499999999999  1.0000
  C   C106      1.0  0.9868399999999999  0.9544799999999999  0.29745  1.0000
  C   C107      1.0  0.01864  0.9416400000000001  0.23151  1.0000
  C   C108      1.0  0.99865  0.98224  0.16734  1.0000
  C   C109      1.0  0.94253  0.03587  0.1786  1.0000
  C   C110      1.0  0.9122999999999999  0.04576  0.24558  1.0000
  C   C111      1.0  0.90078  0.02277  0.37785  1.0000
  C   C112      1.0  0.9516499999999999  0.01176  0.44076  1.0000
  C   C113      1.0  0.7018  0.48775  0.54402  1.0000
  C   C114      1.0  0.76785  0.51916  0.5578  1.0000
  C   C115      1.0  0.8325399999999997  0.49824  0.51848  1.0000
  C   C116      1.0  0.8214499999999999  0.44217  0.46465  1.0000
  C   C117      1.0  0.75426  0.41269  0.45368  1.0000
  C   C118      1.0  0.62118  0.40026000000000006  0.4769  1.0000
  C   C119      1.0  0.5582899999999997  0.44986000000000004  0.48844000000000004  1.0000
  C   C120      1.0  0.20126999999999995  0.012430000000000002  0.45575999999999994  1.0000
  C   C121      1.0  0.26698  0.9803799999999999  0.44216  1.0000
  C   C122      1.0  0.33184  0.0007800000000000002  0.48155000000000003  1.0000
  C   C123      1.0  0.32116  0.05694  0.53539  1.0000
  C   C124      1.0  0.25427  0.08707  0.54611  1.0000
  C   C125      1.0  0.12119  0.10017000000000001  0.52291  1.0000
  C   C126      1.0  0.05822  0.05054  0.51158  1.0000
  C   C127      1.0  0.7983999999999998  0.51228  0.04402  1.0000
  C   C128      1.0  0.7326299999999999  0.48000000000000004  0.05717  1.0000
  C   C129      1.0  0.66795  0.50015  0.01739  1.0000
  C   C130      1.0  0.6787199999999999  0.55696  0.9642299999999999  1.0000
  C   C131      1.0  0.74566  0.58728  0.9538100000000002  1.0000
  C   C132      1.0  0.87878  0.59995  0.9775499999999999  1.0000
  C   C133      1.0  0.9415399999999998  0.54996  0.9891499999999999  1.0000
  C   C134      1.0  0.29785999999999996  0.9865200000000001  0.95491  1.0000
  C   C135      1.0  0.23197999999999996  0.01836  0.9416899999999999  1.0000
  C   C136      1.0  0.16749999999999995  0.9984100000000001  0.98205  1.0000
  C   C137      1.0  0.17832  0.9420600000000001  0.03551  1.0000
  C   C138      1.0  0.24524  0.91179  0.04564  1.0000
  C   C139      1.0  0.3781899999999999  0.9003100000000002  0.02346  1.0000
  C   C140      1.0  0.44112999999999997  0.9506799999999999  0.01241  1.0000
  C   C141      1.0  0.54517  0.70257  0.48879  1.0000
  C   C142      1.0  0.55868  0.76873  0.51964  1.0000
  C   C143      1.0  0.51862  0.83286  0.49868  1.0000
  C   C144      1.0  0.4646199999999999  0.82131  0.4428599999999999  1.0000
  C   C145      1.0  0.4537099999999999  0.75407  0.41377  1.0000
  C   C146      1.0  0.47898  0.62289  0.40161  1.0000
  C   C147      1.0  0.49033  0.55956  0.45266  1.0000
  C   C148      1.0  0.45552999999999993  0.20159  0.01167  1.0000
  C   C149      1.0  0.44206999999999996  0.26736  0.97996  1.0000
  C   C150      1.0  0.48162999999999995  0.33197  0.00065  1.0000
  C   C151      1.0  0.53548  0.32101  0.056839999999999995  1.0000
  C   C152      1.0  0.54623  0.25408  0.08661  1.0000
  C   C153      1.0  0.52197  0.12163  0.09958  1.0000
  C   C154      1.0  0.51049  0.05863000000000001  0.04975  1.0000
  C   C155      1.0  0.044949999999999976  0.79799  0.51196  1.0000
  C   C156      1.0  0.05801999999999999  0.73203  0.48056  1.0000
  C   C157      1.0  0.01737  0.66782  0.5005  1.0000
  C   C158      1.0  0.9638799999999998  0.6789300000000001  0.55701  1.0000
  C   C159      1.0  0.9533999999999999  0.746  0.58673  1.0000
  C   C160      1.0  0.9788  0.8774900000000001  0.59897  1.0000
  C   C161      1.0  0.9903099999999998  0.94063  0.54766  1.0000
  C   C162      1.0  0.9543399999999999  0.29704  0.9884000000000001  1.0000
  C   C163      1.0  0.9415699999999999  0.23099000000000003  0.01982  1.0000
  C   C164      1.0  0.98223  0.16705  0.99933  1.0000
  C   C165      1.0  0.03575  0.1786  0.9430599999999999  1.0000
  C   C166      1.0  0.04594  0.24569  0.91334  1.0000
  C   C167      1.0  0.02056  0.37691  0.90152  1.0000
  C   C168      1.0  0.00939  0.44015  0.95294  1.0000
  N   N1        1.0  0.5663  0.5060100000000001  0.30507  1.0000
  N   N2        1.0  0.9330999999999999  0.49380999999999997  0.80582  1.0000
  N   N3        1.0  0.43500999999999995  0.00702  0.19417  1.0000
  N   N4        1.0  0.06614  0.9935800000000001  0.69467  1.0000
  N   N5        1.0  0.30596  0.56564  0.50743  1.0000
  N   N6        1.0  0.8060699999999997  0.9341499999999999  0.49301999999999996  1.0000
  N   N7        1.0  0.19372999999999996  0.43411  0.0072  1.0000
  N   N8        1.0  0.69451  0.06659  0.99375  1.0000
  N   N9        1.0  0.50704  0.30581  0.56411  1.0000
  N   N10       1.0  0.4930599999999999  0.80601  0.93475  1.0000
  N   N11       1.0  0.00729  0.19397  0.43527  1.0000
  N   N12       1.0  0.9935399999999999  0.69444  0.06465  1.0000
  N   N13       1.0  0.43342999999999987  0.49368  0.69463  1.0000
  N   N14       1.0  0.06689  0.50623  0.19417  1.0000
  N   N15       1.0  0.5651299999999999  0.99295  0.80583  1.0000
  N   N16       1.0  0.93381  0.00635  0.30549  1.0000
  N   N17       1.0  0.69405  0.43438999999999994  0.49257  1.0000
  N   N18       1.0  0.194  0.06594000000000001  0.50702  1.0000
  N   N19       1.0  0.80598  0.56579  0.9927100000000001  1.0000
  N   N20       1.0  0.30545  0.9332800000000001  0.00654  1.0000
  N   N21       1.0  0.49301999999999996  0.69423  0.43587  1.0000
  N   N22       1.0  0.50702  0.19395  0.06511  1.0000
  N   N23       1.0  0.99269  0.80607  0.56482  1.0000
  N   N24       1.0  0.00632  0.30543  0.9352700000000002  1.0000
  O   O1        1.0  0.46947  0.46911  0.1064  1.0000
  O   O2        1.0  0.029359999999999997  0.53095  0.60711  1.0000
  O   O3        1.0  0.53084  0.97101  0.39303  1.0000
  O   O4        1.0  0.97089  0.02945  0.89397  1.0000
  O   O5        1.0  0.10605999999999997  0.47209  0.46903  1.0000
  O   O6        1.0  0.6071099999999999  0.02934  0.53094  1.0000
  O   O7        1.0  0.39262  0.5308  0.97101  1.0000
  O   O8        1.0  0.89352  0.9706000000000001  0.02915  1.0000
  O   O9        1.0  0.46913  0.10574000000000001  0.47181  1.0000
  O   O10       1.0  0.53063  0.60703  0.02962  1.0000
  O   O11       1.0  0.9710499999999999  0.39302  0.53049  1.0000
  O   O12       1.0  0.029439999999999997  0.8941  0.9706799999999999  1.0000
  O   O13       1.0  0.52788  0.53107  0.8941500000000001  1.0000
  O   O14       1.0  0.9706299999999999  0.46905  0.39286  1.0000
  O   O15       1.0  0.46907999999999994  0.02894  0.60705  1.0000
  O   O16       1.0  0.029119999999999997  0.97045  0.10627  1.0000
  O   O17       1.0  0.8939  0.52802  0.53097  1.0000
  O   O18       1.0  0.39283999999999997  0.9704800000000001  0.4691  1.0000
  O   O19       1.0  0.607  0.46927  0.02906  1.0000
  O   O20       1.0  0.10654  0.02926  0.97059  1.0000
  O   O21       1.0  0.53097  0.89427  0.52816  1.0000
  O   O22       1.0  0.46912  0.39301  0.97062  1.0000
  O   O23       1.0  0.028899999999999995  0.60706  0.46941000000000005  1.0000
  O   O24       1.0  0.97072  0.10586000000000001  0.02956  1.0000
