data_image0
_chemical_formula_structural       Cd12H72C96S12N16O54
_chemical_formula_sum              "Cd12 H72 C96 S12 N16 O54"
_cell_length_a       14.74854
_cell_length_b       14.66115
_cell_length_c       21.29822
_cell_angle_alpha    71.12244
_cell_angle_beta     70.36425
_cell_angle_gamma    60.146539999999995

_symmetry_space_group_name_H-M    'P 1'
_symmetry_Int_Tables_number       1

loop_
  _symmetry_equiv_pos_as_xyz
  'x,y,z'

loop_
  _atom_site_type_symbol
  _atom_site_label
  _atom_site_symmetry_multiplicity
  _atom_site_fract_x
  _atom_site_fract_y
  _atom_site_fract_z
  _atom_site_occupancy
  Cd  Cd1       1.0  0.6414199999999997  0.9915000000000003  0.22754  1.0000
  Cd  Cd2       1.0  0.13101999999999994  0.66512  0.22702  1.0000
  Cd  Cd3       1.0  0.9741299999999999  0.14678  0.22209999999999996  1.0000
  Cd  Cd4       1.0  0.35245999999999994  0.51828  0.27514  1.0000
  Cd  Cd5       1.0  0.51435  0.85459  0.26600999999999997  1.0000
  Cd  Cd6       1.0  0.8268299999999996  0.36802  0.27426999999999996  1.0000
  Cd  Cd7       1.0  0.3583399999999999  0.008710000000000011  0.77241  1.0000
  Cd  Cd8       1.0  0.86891  0.33498000000000017  0.7730999999999998  1.0000
  Cd  Cd9       1.0  0.025720000000000152  0.85339  0.7781099999999999  1.0000
  Cd  Cd10      1.0  0.64759  0.4819600000000001  0.72482  1.0000
  Cd  Cd11      1.0  0.48561000000000004  0.14563  0.73391  1.0000
  Cd  Cd12      1.0  0.17339000000000002  0.6319099999999999  0.7258  1.0000
  H   H1        1.0  0.7588399999999997  0.6008700000000002  0.10198  1.0000
  H   H2        1.0  0.87369  0.58238  0.977  1.0000
  H   H3        1.0  0.79561  0.06906  0.08698  1.0000
  H   H4        1.0  0.8390899999999997  0.9312200000000003  0.08809  1.0000
  H   H5        1.0  0.7879299999999998  0.12244  0.18488999999999994  1.0000
  H   H6        1.0  0.8253399999999997  0.023490000000000004  0.25912  1.0000
  H   H7        1.0  0.53389  0.74675  0.10646  1.0000
  H   H8        1.0  0.5770399999999998  0.8505200000000003  0.9818699999999999  1.0000
  H   H9        1.0  0.023309999999999848  0.8065700000000002  0.08581  1.0000
  H   H10       1.0  0.1176300000000001  0.85121  0.08349999999999999  1.0000
  H   H11       1.0  0.8884299999999998  0.79953  0.18675999999999998  1.0000
  H   H12       1.0  0.8826699999999996  0.83779  0.26054  1.0000
  H   H13       1.0  0.59561  0.54565  0.1012  1.0000
  H   H14       1.0  0.59206  0.5884000000000003  0.97156  1.0000
  H   H15       1.0  0.058940000000000006  0.03729  0.08217  1.0000
  H   H16       1.0  0.92165  0.12977  0.08356  1.0000
  H   H17       1.0  0.10981000000000005  0.90432  0.18114  1.0000
  H   H18       1.0  0.009870000000000016  0.89869  0.25723  1.0000
  H   H19       1.0  0.9527699999999999  0.90295  0.40232  1.0000
  H   H20       1.0  0.9179200000000003  0.9097400000000001  0.5312499999999999  1.0000
  H   H21       1.0  0.44802999999999993  0.44794  0.41747  1.0000
  H   H22       1.0  0.3561999999999999  0.5863700000000001  0.41362999999999994  1.0000
  H   H23       1.0  0.58728  0.38976  0.32089  1.0000
  H   H24       1.0  0.5989099999999998  0.48531  0.2442  1.0000
  H   H25       1.0  0.8854299999999999  0.7512  0.3940399999999999  1.0000
  H   H26       1.0  0.9089600000000001  0.6370700000000001  0.5173799999999998  1.0000
  H   H27       1.0  0.41489000000000015  0.71354  0.41051  1.0000
  H   H28       1.0  0.5507999999999998  0.6711500000000002  0.41191999999999995  1.0000
  H   H29       1.0  0.3708499999999999  0.7140000000000001  0.31166999999999995  1.0000
  H   H30       1.0  0.47443  0.67148  0.23884  1.0000
  H   H31       1.0  0.7469399999999994  0.9617500000000003  0.39469999999999994  1.0000
  H   H32       1.0  0.6580099999999997  0.9106700000000002  0.52254  1.0000
  H   H33       1.0  0.6749800000000001  0.48447999999999997  0.41764  1.0000
  H   H34       1.0  0.63106  0.3893700000000001  0.41988  1.0000
  H   H35       1.0  0.68991  0.61353  0.31535  1.0000
  H   H36       1.0  0.6583199999999998  0.6134300000000001  0.24092  1.0000
  H   H37       1.0  0.24202000000000007  0.39847  0.8983599999999999  1.0000
  H   H38       1.0  0.12687  0.41696000000000005  0.023399999999999997  1.0000
  H   H39       1.0  0.20429999999999982  0.9311500000000001  0.91309  1.0000
  H   H40       1.0  0.16063999999999995  0.06904  0.91195  1.0000
  H   H41       1.0  0.21194999999999986  0.8776900000000001  0.8152099999999999  1.0000
  H   H42       1.0  0.17458999999999997  0.97657  0.74094  1.0000
  H   H43       1.0  0.4661  0.25334  0.89344  1.0000
  H   H44       1.0  0.42246  0.15006  0.018079999999999995  1.0000
  H   H45       1.0  0.9763599999999999  0.19349000000000008  0.9143199999999999  1.0000
  H   H46       1.0  0.8821900000000003  0.14870000000000003  0.9165499999999999  1.0000
  H   H47       1.0  0.11135000000000006  0.20061000000000007  0.8133199999999999  1.0000
  H   H48       1.0  0.11712000000000003  0.16237  0.73954  1.0000
  H   H49       1.0  0.40490999999999977  0.4543800000000001  0.89883  1.0000
  H   H50       1.0  0.40804  0.4112  0.02855999999999999  1.0000
  H   H51       1.0  0.9410399999999998  0.9626100000000001  0.9179199999999998  1.0000
  H   H52       1.0  0.07838999999999995  0.8702700000000001  0.91644  1.0000
  H   H53       1.0  0.8900499999999998  0.09576000000000007  0.8189099999999998  1.0000
  H   H54       1.0  0.9900299999999999  0.10140999999999999  0.74283  1.0000
  H   H55       1.0  0.047120000000000016  0.09706000000000002  0.5979999999999999  1.0000
  H   H56       1.0  0.08205999999999997  0.08996000000000003  0.46919999999999995  1.0000
  H   H57       1.0  0.5521400000000002  0.5520199999999998  0.58242  1.0000
  H   H58       1.0  0.6438899999999997  0.41358000000000017  0.58625  1.0000
  H   H59       1.0  0.4130199999999997  0.6103100000000002  0.6789699999999999  1.0000
  H   H60       1.0  0.40136000000000005  0.51485  0.75573  1.0000
  H   H61       1.0  0.11442000000000004  0.24896000000000001  0.6058799999999999  1.0000
  H   H62       1.0  0.09088999999999992  0.36311  0.48254  1.0000
  H   H63       1.0  0.5850700000000001  0.28650999999999993  0.58951  1.0000
  H   H64       1.0  0.44915999999999995  0.3289  0.5880999999999998  1.0000
  H   H65       1.0  0.62918  0.28598000000000007  0.6883299999999999  1.0000
  H   H66       1.0  0.52563  0.32866000000000006  0.76112  1.0000
  H   H67       1.0  0.25313000000000024  0.03834000000000001  0.60528  1.0000
  H   H68       1.0  0.34186  0.08949000000000001  0.47733  1.0000
  H   H69       1.0  0.3250199999999999  0.5156000000000001  0.58241  1.0000
  H   H70       1.0  0.36900999999999967  0.61071  0.58006  1.0000
  H   H71       1.0  0.31004000000000004  0.38672  0.6846999999999999  1.0000
  H   H72       1.0  0.34173999999999977  0.38677000000000017  0.7591099999999998  1.0000
  C   C1        1.0  0.90991  0.76712  0.89153  1.0000
  C   C2        1.0  0.8508300000000001  0.7456000000000003  0.9618599999999999  1.0000
  C   C3        1.0  0.8388100000000001  0.65367  0.99841  1.0000
  C   C4        1.0  0.7767999999999999  0.66412  0.06506999999999999  1.0000
  C   C5        1.0  0.74488  0.76304  0.07932  1.0000
  C   C6        1.0  0.6829599999999999  0.8019300000000005  0.14382  1.0000
  C   C7        1.0  0.8512499999999997  0.98684  0.10472999999999999  1.0000
  C   C8        1.0  0.8418  0.03972  0.20359999999999998  1.0000
  C   C9        1.0  0.4475600000000001  0.8941400000000002  0.8883199999999999  1.0000
  C   C10       1.0  0.4507599999999999  0.83772  0.95987  1.0000
  C   C11       1.0  0.51547  0.82218  0.00044  1.0000
  C   C12       1.0  0.49267000000000005  0.76554  0.06692  1.0000
  C   C13       1.0  0.4088399999999999  0.74064  0.07697999999999999  1.0000
  C   C14       1.0  0.35892999999999997  0.68561  0.13929  1.0000
  C   C15       1.0  0.03438999999999991  0.8629700000000001  0.10250999999999999  1.0000
  C   C16       1.0  0.9002899999999999  0.8539600000000002  0.20495  1.0000
  C   C17       1.0  0.7863199999999998  0.4497900000000002  0.8859  1.0000
  C   C18       1.0  0.7520299999999995  0.45528  0.95757  1.0000
  C   C19       1.0  0.6582099999999996  0.5238500000000001  0.9942499999999999  1.0000
  C   C20       1.0  0.66082  0.50192  0.06343999999999998  1.0000
  C   C21       1.0  0.7553699999999998  0.41611  0.07872999999999998  1.0000
  C   C22       1.0  0.7877799999999999  0.37145000000000006  0.14529999999999998  1.0000
  C   C23       1.0  0.9764399999999999  0.04698000000000001  0.1013  1.0000
  C   C24       1.0  0.02681000000000006  0.91538  0.20161999999999994  1.0000
  C   C25       1.0  0.061409999999999874  0.7165100000000002  0.61193  1.0000
  C   C26       1.0  0.051539999999999975  0.7498400000000002  0.5414899999999999  1.0000
  C   C27       1.0  0.98071  0.84291  0.5072  1.0000
  C   C28       1.0  0.9983999999999998  0.8387400000000002  0.43852  1.0000
  C   C29       1.0  0.08288000000000015  0.74357  0.42128999999999994  1.0000
  C   C30       1.0  0.12529999999999988  0.7092500000000002  0.35459999999999997  1.0000
  C   C31       1.0  0.43946999999999986  0.53004  0.39753  1.0000
  C   C32       1.0  0.5776099999999997  0.4722100000000001  0.29974  1.0000
  C   C33       1.0  0.72714  0.59893  0.60786  1.0000
  C   C34       1.0  0.7455299999999997  0.65894  0.5376399999999999  1.0000
  C   C35       1.0  0.8364199999999998  0.6715200000000004  0.49847  1.0000
  C   C36       1.0  0.8232599999999995  0.73311  0.43269999999999986  1.0000
  C   C37       1.0  0.7233200000000001  0.76439  0.42177  1.0000
  C   C38       1.0  0.68085  0.8244600000000001  0.35922999999999994  1.0000
  C   C39       1.0  0.49795  0.65679  0.39446  1.0000
  C   C40       1.0  0.4541799999999998  0.6586300000000003  0.29436  1.0000
  C   C41       1.0  0.6258899999999998  0.04159  0.61555  1.0000
  C   C42       1.0  0.6686  0.04136000000000003  0.5431999999999999  1.0000
  C   C43       1.0  0.6813500000000001  0.9760099999999999  0.50292  1.0000
  C   C44       1.0  0.7306099999999998  0.0024900000000000156  0.43460999999999994  1.0000
  C   C45       1.0  0.7534900000000001  0.08828999999999998  0.42347  1.0000
  C   C46       1.0  0.8055  0.13986000000000004  0.35952999999999996  1.0000
  C   C47       1.0  0.62095  0.47204000000000007  0.39995  1.0000
  C   C48       1.0  0.6377899999999999  0.59997  0.29648  1.0000
  C   C49       1.0  0.09006999999999998  0.23254000000000002  0.10852999999999999  1.0000
  C   C50       1.0  0.14934000000000003  0.25394  0.03824999999999999  1.0000
  C   C51       1.0  0.16159999999999997  0.34581  0.0018699999999999995  1.0000
  C   C52       1.0  0.22385000000000005  0.3353600000000001  0.9352699999999999  1.0000
  C   C53       1.0  0.2556000000000001  0.23657999999999998  0.9209  1.0000
  C   C54       1.0  0.31709  0.19797000000000003  0.8562899999999999  1.0000
  C   C55       1.0  0.14857999999999996  0.013329999999999982  0.89533  1.0000
  C   C56       1.0  0.15809  0.9604  0.79647  1.0000
  C   C57       1.0  0.55198  0.10628  0.11169999999999997  1.0000
  C   C58       1.0  0.54887  0.16261  0.04012  1.0000
  C   C59       1.0  0.4842  0.17817000000000008  0.9995099999999999  1.0000
  C   C60       1.0  0.5071999999999999  0.23465  0.93302  1.0000
  C   C61       1.0  0.59108  0.25947000000000003  0.9229799999999999  1.0000
  C   C62       1.0  0.6410599999999999  0.3144300000000001  0.86068  1.0000
  C   C63       1.0  0.9654000000000001  0.13705000000000003  0.8975799999999999  1.0000
  C   C64       1.0  0.09951000000000007  0.1461700000000001  0.7951299999999998  1.0000
  C   C65       1.0  0.21386  0.5503  0.11414  1.0000
  C   C66       1.0  0.24834999999999985  0.5447800000000002  0.04244  1.0000
  C   C67       1.0  0.34209999999999996  0.47607  0.00579  1.0000
  C   C68       1.0  0.3396699999999998  0.4981800000000002  0.93655  1.0000
  C   C69       1.0  0.2452199999999998  0.58418  0.9212  1.0000
  C   C70       1.0  0.21239000000000002  0.6287700000000002  0.8547599999999999  1.0000
  C   C71       1.0  0.023490000000000053  0.95304  0.89876  1.0000
  C   C72       1.0  0.9730499999999999  0.08470999999999998  0.79844  1.0000
  C   C73       1.0  0.9391499999999999  0.28344000000000014  0.3881499999999999  1.0000
  C   C74       1.0  0.9487199999999999  0.25005  0.45867  1.0000
  C   C75       1.0  0.01932999999999996  0.15696000000000004  0.49309  1.0000
  C   C76       1.0  0.0015700000000000239  0.16124999999999998  0.56175  1.0000
  C   C77       1.0  0.91716  0.25650999999999996  0.57887  1.0000
  C   C78       1.0  0.8748000000000005  0.29087  0.64552  1.0000
  C   C79       1.0  0.5606499999999998  0.46995000000000003  0.60238  1.0000
  C   C80       1.0  0.42261  0.52789  0.70018  1.0000
  C   C81       1.0  0.2726499999999998  0.40134  0.39209  1.0000
  C   C82       1.0  0.25430000000000014  0.3412899999999999  0.4623  1.0000
  C   C83       1.0  0.16342000000000004  0.32866000000000006  0.50146  1.0000
  C   C84       1.0  0.17660999999999993  0.26705000000000007  0.56723  1.0000
  C   C85       1.0  0.27654  0.23578000000000002  0.57816  1.0000
  C   C86       1.0  0.31900999999999985  0.17571  0.64071  1.0000
  C   C87       1.0  0.5020199999999999  0.34329000000000004  0.60554  1.0000
  C   C88       1.0  0.54589  0.3414400000000001  0.7056  1.0000
  C   C89       1.0  0.37388999999999994  0.95859  0.38439  1.0000
  C   C90       1.0  0.3312199999999999  0.9588100000000003  0.45675  1.0000
  C   C91       1.0  0.31847  0.024180000000000035  0.49700999999999995  1.0000
  C   C92       1.0  0.26944  0.9975800000000002  0.56537  1.0000
  C   C93       1.0  0.24663999999999991  0.91171  0.57655  1.0000
  C   C94       1.0  0.19467999999999996  0.86018  0.64055  1.0000
  C   C95       1.0  0.3790999999999999  0.5280500000000001  0.60003  1.0000
  C   C96       1.0  0.36225000000000007  0.4002  0.70355  1.0000
  S   S1        1.0  0.7882699999999999  0.84432  0.010139999999999996  1.0000
  S   S2        1.0  0.35962999999999967  0.7851400000000002  0.00405  1.0000
  S   S3        1.0  0.84227  0.36235  0.008539999999999999  1.0000
  S   S4        1.0  0.14074999999999996  0.65838  0.48894  1.0000
  S   S5        1.0  0.6446099999999999  0.7203600000000002  0.49292  1.0000
  S   S6        1.0  0.71479  0.13702000000000003  0.4965399999999999  1.0000
  S   S7        1.0  0.21196000000000007  0.15531  0.9898999999999999  1.0000
  S   S8        1.0  0.64014  0.21505000000000002  0.9959699999999999  1.0000
  S   S9        1.0  0.15837999999999997  0.6380300000000001  0.9913799999999999  1.0000
  S   S10       1.0  0.8594500000000003  0.34164  0.5111499999999999  1.0000
  S   S11       1.0  0.35522999999999977  0.27985  0.50701  1.0000
  S   S12       1.0  0.28510999999999953  0.8631000000000003  0.5034399999999999  1.0000
  N   N1        1.0  0.82533  0.96518  0.18075  1.0000
  N   N2        1.0  0.013169999999999982  0.83776  0.17889  1.0000
  N   N3        1.0  0.9535299999999998  0.02706000000000002  0.17746999999999993  1.0000
  N   N4        1.0  0.4654199999999998  0.54761  0.32163  1.0000
  N   N5        1.0  0.52554  0.6777400000000001  0.31836  1.0000
  N   N6        1.0  0.6521000000000005  0.48791  0.32372  1.0000
  N   N7        1.0  0.17449  0.034980000000000004  0.81932  1.0000
  N   N8        1.0  0.9866499999999998  0.16232000000000002  0.8211999999999999  1.0000
  N   N9        1.0  0.04635999999999999  0.97303  0.82259  1.0000
  N   N10       1.0  0.5347700000000001  0.4524200000000001  0.67829  1.0000
  N   N11       1.0  0.4744499999999998  0.3223900000000001  0.68164  1.0000
  N   N12       1.0  0.34802999999999995  0.5122200000000001  0.6762699999999998  1.0000
  N   N13       1.0  0.9613799999999998  0.9725900000000001  0.07863  1.0000
  N   N14       1.0  0.5102899999999999  0.5474000000000001  0.42168999999999995  1.0000
  N   N15       1.0  0.03849000000000003  0.02747000000000003  0.9214499999999999  1.0000
  N   N16       1.0  0.4897299999999999  0.45265000000000016  0.5782799999999999  1.0000
  O   O1        1.0  0.89086  0.86733  0.86737  1.0000
  O   O2        1.0  0.9763099999999999  0.6913599999999999  0.86071  1.0000
  O   O3        1.0  0.71421  0.85053  0.16525  1.0000
  O   O4        1.0  0.60118  0.7820100000000001  0.17444  1.0000
  O   O5        1.0  0.39314  0.87583  0.8605099999999999  1.0000
  O   O6        1.0  0.49062999999999984  0.9567100000000002  0.86053  1.0000
  O   O7        1.0  0.25843000000000005  0.71765  0.14898999999999998  1.0000
  O   O8        1.0  0.42050999999999994  0.61019  0.17828999999999998  1.0000
  O   O9        1.0  0.88036  0.39164  0.8603799999999998  1.0000
  O   O10       1.0  0.7066500000000001  0.5090000000000001  0.8516399999999998  1.0000
  O   O11       1.0  0.83059  0.27082  0.16480999999999998  1.0000
  O   O12       1.0  0.76797  0.44125  0.17825  1.0000
  O   O13       1.0  0.12242999999999994  0.62321  0.63516  1.0000
  O   O14       1.0  0.001829999999999914  0.79613  0.6475  1.0000
  O   O15       1.0  0.22563999999999992  0.6666700000000001  0.33309  1.0000
  O   O16       1.0  0.05490000000000001  0.72709  0.3239  1.0000
  O   O17       1.0  0.62769  0.61725  0.6352399999999998  1.0000
  O   O18       1.0  0.8049399999999997  0.5326100000000001  0.63528  1.0000
  O   O19       1.0  0.62177  0.79596  0.34602  1.0000
  O   O20       1.0  0.707  0.9003900000000001  0.32352  1.0000
  O   O21       1.0  0.6367799999999999  0.09604000000000006  0.6446599999999998  1.0000
  O   O22       1.0  0.5715000000000005  0.98211  0.64611  1.0000
  O   O23       1.0  0.7685999999999997  0.24116  0.34972  1.0000
  O   O24       1.0  0.8828799999999998  0.07742  0.32088  1.0000
  O   O25       1.0  0.10907  0.13239  0.13282  1.0000
  O   O26       1.0  0.023539999999999946  0.3084400000000001  0.13922999999999996  1.0000
  O   O27       1.0  0.28548  0.14969000000000007  0.8348499999999999  1.0000
  O   O28       1.0  0.3988799999999999  0.21783000000000008  0.82558  1.0000
  O   O29       1.0  0.60629  0.12468000000000001  0.13954  1.0000
  O   O30       1.0  0.5090599999999997  0.04358000000000001  0.13943  1.0000
  O   O31       1.0  0.7415799999999998  0.2823000000000001  0.85099  1.0000
  O   O32       1.0  0.5795500000000001  0.38991000000000003  0.8216599999999998  1.0000
  O   O33       1.0  0.11985  0.60838  0.13958  1.0000
  O   O34       1.0  0.2934800000000001  0.49109  0.14846  1.0000
  O   O35       1.0  0.16948000000000002  0.7294000000000003  0.8352399999999999  1.0000
  O   O36       1.0  0.23181999999999986  0.5589200000000002  0.82195  1.0000
  O   O37       1.0  0.8777399999999996  0.37661000000000006  0.365  1.0000
  O   O38       1.0  0.9994  0.20413000000000003  0.35235  1.0000
  O   O39       1.0  0.7744699999999999  0.33359  0.667  1.0000
  O   O40       1.0  0.9452599999999999  0.27292000000000016  0.6762099999999999  1.0000
  O   O41       1.0  0.3720899999999999  0.3830200000000001  0.3647  1.0000
  O   O42       1.0  0.19480000000000003  0.46768  0.36473  1.0000
  O   O43       1.0  0.37812  0.20414999999999997  0.65393  1.0000
  O   O44       1.0  0.29280999999999996  0.09979999999999999  0.67644  1.0000
  O   O45       1.0  0.3630899999999999  0.9041200000000003  0.35525999999999996  1.0000
  O   O46       1.0  0.42828  0.018080000000000002  0.35387  1.0000
  O   O47       1.0  0.23151999999999995  0.75888  0.65034  1.0000
  O   O48       1.0  0.11748000000000008  0.9226100000000002  0.67928  1.0000
  O   O49       1.0  0.4635499999999999  0.02146000000000001  0.28032  1.0000
  O   O50       1.0  0.25475999999999993  0.49345  0.22123  1.0000
  O   O51       1.0  0.99645  0.24241000000000007  0.27998  1.0000
  O   O52       1.0  0.53619  0.9788200000000001  0.71966  1.0000
  O   O53       1.0  0.74516  0.50671  0.77886  1.0000
  O   O54       1.0  0.00401999999999981  0.7579100000000002  0.71996  1.0000
