data_image0
_chemical_formula_structural       Ag4P8H152C160N16
_chemical_formula_sum              "Ag4 P8 H152 C160 N16"
_cell_length_a       13.92169
_cell_length_b       15.14493
_cell_length_c       22.95229
_cell_angle_alpha    73.09564
_cell_angle_beta     72.21267999999999
_cell_angle_gamma    62.48490999999999

_space_group_name_H-M_alt    "P 1"
_space_group_IT_number       1

loop_
  _space_group_symop_operation_xyz
  'x, y, z'

loop_
  _atom_site_type_symbol
  _atom_site_label
  _atom_site_symmetry_multiplicity
  _atom_site_fract_x
  _atom_site_fract_y
  _atom_site_fract_z
  _atom_site_occupancy
  Ag  Ag1       1.0  0.46982000000000007  0.7136  0.78679  1.0000
  Ag  Ag2       1.0  0.9707500000000007  0.7859899999999999  0.71326  1.0000
  Ag  Ag3       1.0  0.53018  0.28639999999999993  0.21321  1.0000
  Ag  Ag4       1.0  0.02925  0.214  0.28674  1.0000
  P   P1        1.0  0.6271600000000005  0.6671999999999999  0.8312000000000002  1.0000
  P   P2        1.0  0.30505000000000015  0.68131  0.8264  1.0000
  P   P3        1.0  0.126  0.8325299999999998  0.6686100000000001  1.0000
  P   P4        1.0  0.8131300000000001  0.81849  0.67382  1.0000
  P   P5        1.0  0.37285  0.3328  0.1688  1.0000
  P   P6        1.0  0.69496  0.31869  0.17360000000000003  1.0000
  P   P7        1.0  0.8740000000000002  0.16746999999999995  0.33139  1.0000
  P   P8        1.0  0.18687000000000004  0.18151  0.32617  1.0000
  H   H1        1.0  0.81421  0.6653  0.78793  1.0000
  H   H2        1.0  0.7673400000000004  0.6320699999999999  0.73746  1.0000
  H   H3        1.0  0.28474000000000005  0.6531399999999999  0.7331400000000001  1.0000
  H   H4        1.0  0.15608  0.68843  0.786  1.0000
  H   H5        1.0  0.42487  0.7891  0.9048100000000001  1.0000
  H   H6        1.0  0.3817999999999999  0.9008299999999999  0.9780100000000002  1.0000
  H   H7        1.0  0.5361100000000002  0.91737  0.0027300000000000002  1.0000
  H   H8        1.0  0.7316899999999998  0.81842  0.95463  1.0000
  H   H9        1.0  0.7737400000000001  0.7084199999999999  0.88164  1.0000
  H   H10       1.0  0.64802  0.5641  0.96101  1.0000
  H   H11       1.0  0.71281  0.38329999999999986  0.010320000000000001  1.0000
  H   H12       1.0  0.78705  0.24987999999999996  0.9464600000000001  1.0000
  H   H13       1.0  0.7966699999999994  0.29926  0.8317000000000001  1.0000
  H   H14       1.0  0.73452  0.47919  0.78163  1.0000
  H   H15       1.0  0.2585200000000001  0.86382  0.86518  1.0000
  H   H16       1.0  0.11705999999999997  0.9582899999999999  0.94718  1.0000
  H   H17       1.0  0.9771200000000003  0.89322  0.01703  1.0000
  H   H18       1.0  0.9809800000000001  0.7343  0.00253  1.0000
  H   H19       1.0  0.12379000000000014  0.6382099999999998  0.92322  1.0000
  H   H20       1.0  0.24718000000000023  0.5208299999999998  0.81065  1.0000
  H   H21       1.0  0.31948  0.33711  0.8482500000000001  1.0000
  H   H22       1.0  0.4526899999999999  0.25546  0.9197  1.0000
  H   H23       1.0  0.5196799999999999  0.35942999999999997  0.9493000000000003  1.0000
  H   H24       1.0  0.4539800000000003  0.54325  0.90827  1.0000
  H   H25       1.0  0.4697500000000002  0.52131  0.73827  1.0000
  H   H26       1.0  0.6736900000000002  0.6755099999999999  0.63806  1.0000
  H   H27       1.0  0.7197700000000004  0.52241  0.57759  1.0000
  H   H28       1.0  0.65258  0.38595  0.60104  1.0000
  H   H29       1.0  0.5069700000000005  0.43676000000000004  0.62661  1.0000
  H   H30       1.0  0.75215  0.31947  0.70447  1.0000
  H   H31       1.0  0.44325000000000037  0.3201  0.70381  1.0000
  H   H32       1.0  0.505  0.11536999999999999  0.55574  1.0000
  H   H33       1.0  0.3371200000000001  0.9572899999999998  0.52747  1.0000
  H   H34       1.0  0.3006100000000002  0.15759999999999993  0.60275  1.0000
  H   H35       1.0  0.24177000000000004  0.07758999999999999  0.59931  1.0000
  H   H36       1.0  0.4463099999999999  0.87042  0.63645  1.0000
  H   H37       1.0  0.27588000000000007  0.13176  0.71919  1.0000
  H   H38       1.0  0.3699500000000002  0.9635699999999999  0.80693  1.0000
  H   H39       1.0  0.26820000000000005  0.8336900000000002  0.71159  1.0000
  H   H40       1.0  0.13714999999999997  0.86779  0.7620700000000002  1.0000
  H   H41       1.0  0.67087  0.8462499999999998  0.7671900000000003  1.0000
  H   H42       1.0  0.63055  0.8117  0.7141000000000001  1.0000
  H   H43       1.0  0.12007999999999994  0.71003  0.5952800000000001  1.0000
  H   H44       1.0  0.26295  0.59867  0.5219  1.0000
  H   H45       1.0  0.4585900000000001  0.5828200000000001  0.49664  1.0000
  H   H46       1.0  0.5063300000000002  0.6815799999999997  0.54486  1.0000
  H   H47       1.0  0.36435  0.79138  0.61799  1.0000
  H   H48       1.0  0.17388000000000003  0.93601  0.5387  1.0000
  H   H49       1.0  0.10600000000000002  0.11687  0.48957  1.0000
  H   H50       1.0  0.9812800000000005  0.24993999999999994  0.5536400000000001  1.0000
  H   H51       1.0  0.9274800000000001  0.20026999999999998  0.66859  1.0000
  H   H52       1.0  0.9971999999999999  0.020360000000000003  0.71851  1.0000
  H   H53       1.0  0.9883900000000001  0.6355399999999999  0.63495  1.0000
  H   H54       1.0  0.023709999999999926  0.54146  0.55292  1.0000
  H   H55       1.0  0.88881  0.6075599999999999  0.4829500000000001  1.0000
  H   H56       1.0  0.71871  0.76673  0.49764  1.0000
  H   H57       1.0  0.6855000000000001  0.8621799999999997  0.57719  1.0000
  H   H58       1.0  0.5782300000000004  0.9795  0.6900500000000002  1.0000
  H   H59       1.0  0.50407  0.16301000000000002  0.6517  1.0000
  H   H60       1.0  0.6274800000000003  0.24387  0.57966  1.0000
  H   H61       1.0  0.8290500000000001  0.13980999999999993  0.55105  1.0000
  H   H62       1.0  0.9063400000000001  0.95624  0.59283  1.0000
  H   H63       1.0  0.7269800000000004  0.97868  0.76233  1.0000
  H   H64       1.0  0.9862500000000004  0.82314  0.8616300000000001  1.0000
  H   H65       1.0  0.8194200000000003  0.9772299999999999  0.9219800000000001  1.0000
  H   H66       1.0  0.6387800000000002  0.1148  0.89873  1.0000
  H   H67       1.0  0.56856  0.06485999999999992  0.8736200000000001  1.0000
  H   H68       1.0  0.77452  0.18189999999999998  0.7964100000000001  1.0000
  H   H69       1.0  0.46676999999999996  0.18059  0.7953200000000001  1.0000
  H   H70       1.0  0.17661000000000002  0.38356  0.94456  1.0000
  H   H71       1.0  0.8216400000000003  0.54441  0.97218  1.0000
  H   H72       1.0  0.061139999999999965  0.34245000000000003  0.89748  1.0000
  H   H73       1.0  0.9184700000000001  0.4232399999999999  0.9009500000000001  1.0000
  H   H74       1.0  0.9536000000000004  0.62954  0.86337  1.0000
  H   H75       1.0  0.12783999999999995  0.3678600000000001  0.78095  1.0000
  H   H76       1.0  0.14236  0.5355400000000001  0.69307  1.0000
  H   H77       1.0  0.18579999999999997  0.3347  0.21207  1.0000
  H   H78       1.0  0.23267000000000004  0.36793  0.26254  1.0000
  H   H79       1.0  0.7152600000000001  0.3468599999999999  0.26686  1.0000
  H   H80       1.0  0.8439200000000001  0.31157  0.214  1.0000
  H   H81       1.0  0.5751300000000001  0.2109  0.09519  1.0000
  H   H82       1.0  0.6182100000000003  0.09917  0.02199  1.0000
  H   H83       1.0  0.46388999999999997  0.08262999999999997  0.9972700000000001  1.0000
  H   H84       1.0  0.2683100000000001  0.18156999999999998  0.04537  1.0000
  H   H85       1.0  0.22626000000000007  0.29158  0.11836  1.0000
  H   H86       1.0  0.3519800000000002  0.43589999999999995  0.03899  1.0000
  H   H87       1.0  0.2871899999999999  0.6167  0.98968  1.0000
  H   H88       1.0  0.21295000000000008  0.7501199999999999  0.05354  1.0000
  H   H89       1.0  0.2033300000000001  0.7007399999999999  0.1683  1.0000
  H   H90       1.0  0.26549000000000006  0.52081  0.21837000000000004  1.0000
  H   H91       1.0  0.7414800000000001  0.13618  0.13482  1.0000
  H   H92       1.0  0.88294  0.04171  0.052820000000000006  1.0000
  H   H93       1.0  0.022879999999999918  0.10678000000000001  0.9829700000000001  1.0000
  H   H94       1.0  0.019019999999999954  0.2657  0.9974700000000001  1.0000
  H   H95       1.0  0.8762100000000003  0.3617899999999999  0.07678  1.0000
  H   H96       1.0  0.75282  0.47917  0.18935000000000002  1.0000
  H   H97       1.0  0.68052  0.66289  0.15175  1.0000
  H   H98       1.0  0.54731  0.74454  0.0803  1.0000
  H   H99       1.0  0.4803299999999999  0.64057  0.05070000000000001  1.0000
  H   H100      1.0  0.54602  0.45675  0.09173  1.0000
  H   H101      1.0  0.53025  0.47868999999999995  0.26173  1.0000
  H   H102      1.0  0.32631  0.32448999999999995  0.36194  1.0000
  H   H103      1.0  0.2802300000000002  0.47758999999999996  0.42241000000000006  1.0000
  H   H104      1.0  0.34743000000000007  0.61405  0.39896000000000004  1.0000
  H   H105      1.0  0.49303000000000013  0.5632399999999997  0.37339  1.0000
  H   H106      1.0  0.24786000000000002  0.68053  0.29553  1.0000
  H   H107      1.0  0.5567600000000003  0.6798999999999996  0.29619000000000006  1.0000
  H   H108      1.0  0.49499999999999994  0.8846299999999999  0.4442600000000001  1.0000
  H   H109      1.0  0.66288  0.042709999999999984  0.47253000000000006  1.0000
  H   H110      1.0  0.6993899999999998  0.84239  0.39725  1.0000
  H   H111      1.0  0.7582400000000001  0.92241  0.4006900000000001  1.0000
  H   H112      1.0  0.5537000000000001  0.12957  0.36355  1.0000
  H   H113      1.0  0.72413  0.86824  0.28081  1.0000
  H   H114      1.0  0.6300600000000002  0.03642999999999999  0.19307000000000002  1.0000
  H   H115      1.0  0.7318100000000002  0.16630999999999993  0.28841000000000006  1.0000
  H   H116      1.0  0.8628500000000002  0.13220999999999997  0.23792000000000002  1.0000
  H   H117      1.0  0.32913  0.15375  0.23281  1.0000
  H   H118      1.0  0.3694600000000001  0.18829999999999994  0.28590000000000004  1.0000
  H   H119      1.0  0.8799200000000006  0.28996  0.40472  1.0000
  H   H120      1.0  0.7370600000000002  0.40132  0.47810000000000014  1.0000
  H   H121      1.0  0.54141  0.4171799999999999  0.5033600000000001  1.0000
  H   H122      1.0  0.4936700000000001  0.3184199999999999  0.45514000000000004  1.0000
  H   H123      1.0  0.63565  0.20861999999999997  0.38201  1.0000
  H   H124      1.0  0.8261300000000004  0.06398999999999999  0.46130000000000004  1.0000
  H   H125      1.0  0.8940000000000005  0.88313  0.51043  1.0000
  H   H126      1.0  0.018729999999999997  0.75005  0.44636  1.0000
  H   H127      1.0  0.07253000000000015  0.7997299999999998  0.33141  1.0000
  H   H128      1.0  0.0028000000000000455  0.9796399999999998  0.28148000000000006  1.0000
  H   H129      1.0  0.01160999999999998  0.36446  0.36505  1.0000
  H   H130      1.0  0.97629  0.45854  0.44708  1.0000
  H   H131      1.0  0.11119000000000012  0.3924399999999998  0.51705  1.0000
  H   H132      1.0  0.28129999999999994  0.23326999999999998  0.50236  1.0000
  H   H133      1.0  0.31449999999999995  0.13782  0.42281  1.0000
  H   H134      1.0  0.42177000000000014  0.02049000000000001  0.30995  1.0000
  H   H135      1.0  0.49593  0.83699  0.3483  1.0000
  H   H136      1.0  0.37253000000000003  0.75613  0.42034000000000005  1.0000
  H   H137      1.0  0.17095000000000005  0.86019  0.44895  1.0000
  H   H138      1.0  0.09365999999999998  0.04374999999999997  0.4071600000000001  1.0000
  H   H139      1.0  0.27302  0.02132  0.23767  1.0000
  H   H140      1.0  0.013750000000000002  0.17686  0.13837  1.0000
  H   H141      1.0  0.18058000000000002  0.02277  0.07802  1.0000
  H   H142      1.0  0.36123  0.8851999999999999  0.10127  1.0000
  H   H143      1.0  0.4314400000000001  0.9351399999999999  0.12638000000000002  1.0000
  H   H144      1.0  0.22548000000000012  0.8180999999999999  0.20359000000000002  1.0000
  H   H145      1.0  0.53324  0.81941  0.20467  1.0000
  H   H146      1.0  0.8233899999999998  0.61644  0.05544  1.0000
  H   H147      1.0  0.17836000000000005  0.45558  0.027820000000000004  1.0000
  H   H148      1.0  0.9388599999999998  0.65755  0.10252000000000001  1.0000
  H   H149      1.0  0.08153000000000002  0.57676  0.09905000000000003  1.0000
  H   H150      1.0  0.04641000000000006  0.37045999999999996  0.13663  1.0000
  H   H151      1.0  0.87217  0.63214  0.21905000000000005  1.0000
  H   H152      1.0  0.8576400000000005  0.4644599999999999  0.30693  1.0000
  C   C1        1.0  0.7419899999999995  0.68495  0.7689500000000001  1.0000
  C   C2        1.0  0.22937000000000005  0.70534  0.76579  1.0000
  C   C3        1.0  0.6017800000000003  0.74187  0.88718  1.0000
  C   C4        1.0  0.49151999999999996  0.79659  0.9156500000000001  1.0000
  C   C5        1.0  0.4675399999999999  0.85912  0.9569000000000001  1.0000
  C   C6        1.0  0.5542000000000006  0.8684199999999997  0.97076  1.0000
  C   C7        1.0  0.6640299999999999  0.8125699999999998  0.9440200000000002  1.0000
  C   C8        1.0  0.6882200000000003  0.7498999999999999  0.90275  1.0000
  C   C9        1.0  0.68974  0.53487  0.86765  1.0000
  C   C10       1.0  0.6822699999999999  0.50622  0.93235  1.0000
  C   C11       1.0  0.71749  0.40428  0.9604  1.0000
  C   C12       1.0  0.75966  0.32900999999999997  0.92424  1.0000
  C   C13       1.0  0.7659800000000003  0.35703  0.85994  1.0000
  C   C14       1.0  0.7313900000000002  0.45873999999999976  0.83156  1.0000
  C   C15       1.0  0.20089000000000004  0.74552  0.88746  1.0000
  C   C16       1.0  0.1975599999999999  0.83587  0.89579  1.0000
  C   C17       1.0  0.11806000000000004  0.88888  0.94163  1.0000
  C   C18       1.0  0.03885999999999989  0.85255  0.9807800000000002  1.0000
  C   C19       1.0  0.04189000000000005  0.7628399999999997  0.9730600000000003  1.0000
  C   C20       1.0  0.12167  0.7089099999999999  0.92745  1.0000
  C   C21       1.0  0.34455  0.54625  0.85712  1.0000
  C   C22       1.0  0.3071  0.48677999999999993  0.84066  1.0000
  C   C23       1.0  0.34722000000000003  0.38248999999999994  0.86254  1.0000
  C   C24       1.0  0.42272000000000004  0.33633  0.9020800000000001  1.0000
  C   C25       1.0  0.45968000000000014  0.39499999999999996  0.9192200000000001  1.0000
  C   C26       1.0  0.42197000000000023  0.49871  0.89637  1.0000
  C   C27       1.0  0.5283300000000004  0.54631  0.7027000000000001  1.0000
  C   C28       1.0  0.6363300000000003  0.62211  0.65007  1.0000
  C   C29       1.0  0.66077  0.54618  0.61933  1.0000
  C   C30       1.0  0.58549  0.41129999999999994  0.64092  1.0000
  C   C31       1.0  0.5970599999999999  0.32781  0.69699  1.0000
  C   C32       1.0  0.68999  0.28855  0.72419  1.0000
  C   C33       1.0  0.51628  0.28922  0.72385  1.0000
  C   C34       1.0  0.50198  0.06552999999999995  0.53114  1.0000
  C   C35       1.0  0.40826999999999986  0.97594  0.5156200000000001  1.0000
  C   C36       1.0  0.41001000000000004  0.04146  0.54737  1.0000
  C   C37       1.0  0.3185000000000002  0.07956  0.60149  1.0000
  C   C38       1.0  0.41218000000000027  0.91636  0.6722  1.0000
  C   C39       1.0  0.32444000000000006  0.05272000000000002  0.71597  1.0000
  C   C40       1.0  0.37066999999999983  0.9687  0.7587800000000002  1.0000
  C   C41       1.0  0.19633000000000017  0.8144999999999998  0.7307700000000001  1.0000
  C   C42       1.0  0.7005900000000003  0.7943999999999999  0.73433  1.0000
  C   C43       1.0  0.23170999999999997  0.75767  0.61264  1.0000
  C   C44       1.0  0.2051199999999999  0.70278  0.5843100000000001  1.0000
  C   C45       1.0  0.2854800000000002  0.6404699999999999  0.54294  1.0000
  C   C46       1.0  0.39539000000000035  0.6315  0.52878  1.0000
  C   C47       1.0  0.4221300000000003  0.6873599999999999  0.5555200000000001  1.0000
  C   C48       1.0  0.34185  0.74981  0.5969  1.0000
  C   C49       1.0  0.09294999999999999  0.96486  0.6322  1.0000
  C   C50       1.0  0.12129000000000018  0.9937299999999998  0.56748  1.0000
  C   C51       1.0  0.08193  0.09572999999999995  0.5395300000000001  1.0000
  C   C52       1.0  0.012000000000000037  0.17081999999999994  0.57582  1.0000
  C   C53       1.0  0.98293  0.14263999999999996  0.6402000000000001  1.0000
  C   C54       1.0  0.022669999999999982  0.0409  0.66848  1.0000
  C   C55       1.0  0.8345099999999999  0.75452  0.61274  1.0000
  C   C56       1.0  0.9301000000000001  0.66394  0.60434  1.0000
  C   C57       1.0  0.94966  0.61114  0.5584700000000001  1.0000
  C   C58       1.0  0.8733600000000002  0.6479899999999996  0.51928  1.0000
  C   C59       1.0  0.7786900000000003  0.73784  0.5271  1.0000
  C   C60       1.0  0.75862  0.79146  0.57281  1.0000
  C   C61       1.0  0.7480500000000004  0.9536499999999999  0.64345  1.0000
  C   C62       1.0  0.6342800000000002  0.013280000000000016  0.65982  1.0000
  C   C63       1.0  0.59182  0.11745  0.63757  1.0000
  C   C64       1.0  0.6609800000000001  0.16322  0.5978400000000001  1.0000
  C   C65       1.0  0.7742700000000002  0.10447  0.5811  1.0000
  C   C66       1.0  0.8175399999999999  0.0009099999999999622  0.6043100000000001  1.0000
  C   C67       1.0  0.7754600000000004  0.9534299999999998  0.79763  1.0000
  C   C68       1.0  0.9072900000000002  0.87697  0.8497900000000003  1.0000
  C   C69       1.0  0.82543  0.9534399999999997  0.88044  1.0000
  C   C70       1.0  0.6365700000000001  0.0895  0.85905  1.0000
  C   C71       1.0  0.62115  0.17284000000000002  0.80288  1.0000
  C   C72       1.0  0.7017899999999999  0.2123899999999999  0.7761700000000002  1.0000
  C   C73       1.0  0.52907  0.21135  0.77561  1.0000
  C   C74       1.0  0.09890999999999996  0.43385999999999997  0.9690200000000001  1.0000
  C   C75       1.0  0.89972  0.52496  0.98419  1.0000
  C   C76       1.0  0.99895  0.45876  0.9526300000000001  1.0000
  C   C77       1.0  0.9997200000000003  0.42067  0.89865  1.0000
  C   C78       1.0  0.0014299999999999745  0.58341  0.8277300000000001  1.0000
  C   C79       1.0  0.09423000000000002  0.4468599999999999  0.78412  1.0000
  C   C80       1.0  0.09956999999999991  0.53067  0.7412100000000001  1.0000
  C   C81       1.0  0.25801000000000013  0.31504  0.23104  1.0000
  C   C82       1.0  0.7706300000000001  0.29465  0.23420000000000002  1.0000
  C   C83       1.0  0.39823  0.25812  0.11282000000000002  1.0000
  C   C84       1.0  0.5084900000000002  0.20341  0.08435  1.0000
  C   C85       1.0  0.5324700000000001  0.14087999999999995  0.0431  1.0000
  C   C86       1.0  0.44580000000000014  0.13158  0.02924  1.0000
  C   C87       1.0  0.33596999999999994  0.18743  0.055980000000000016  1.0000
  C   C88       1.0  0.31179000000000007  0.2501  0.09725  1.0000
  C   C89       1.0  0.31026000000000004  0.46512999999999993  0.13235  1.0000
  C   C90       1.0  0.31773  0.49377  0.06765  1.0000
  C   C91       1.0  0.28252000000000005  0.59572  0.0396  1.0000
  C   C92       1.0  0.24034000000000008  0.67099  0.07576  1.0000
  C   C93       1.0  0.23403000000000007  0.6429699999999999  0.14006  1.0000
  C   C94       1.0  0.26860999999999996  0.54126  0.16843000000000002  1.0000
  C   C95       1.0  0.7991200000000003  0.25448  0.11254000000000002  1.0000
  C   C96       1.0  0.80244  0.16413  0.10421000000000001  1.0000
  C   C97       1.0  0.88194  0.11111999999999997  0.05837  1.0000
  C   C98       1.0  0.9611400000000001  0.14744999999999994  0.019220000000000004  1.0000
  C   C99       1.0  0.95811  0.23715999999999998  0.026940000000000002  1.0000
  C   C100      1.0  0.87834  0.29109  0.07255000000000002  1.0000
  C   C101      1.0  0.6554599999999999  0.45374999999999993  0.14288  1.0000
  C   C102      1.0  0.6929000000000002  0.51322  0.15934  1.0000
  C   C103      1.0  0.65278  0.61751  0.13746  1.0000
  C   C104      1.0  0.5772899999999996  0.66367  0.09792000000000002  1.0000
  C   C105      1.0  0.5403200000000001  0.6049999999999999  0.08078000000000002  1.0000
  C   C106      1.0  0.5780300000000002  0.5012899999999999  0.10363000000000001  1.0000
  C   C107      1.0  0.47168  0.45369  0.29730000000000006  1.0000
  C   C108      1.0  0.36367  0.37789  0.3499300000000001  1.0000
  C   C109      1.0  0.33923  0.45382  0.3806700000000001  1.0000
  C   C110      1.0  0.41452000000000033  0.5887  0.35908000000000007  1.0000
  C   C111      1.0  0.4029500000000001  0.67219  0.30301  1.0000
  C   C112      1.0  0.31002  0.71145  0.27581  1.0000
  C   C113      1.0  0.48373000000000016  0.71078  0.27615  1.0000
  C   C114      1.0  0.49802000000000063  0.9344699999999998  0.46886  1.0000
  C   C115      1.0  0.59174  0.02404999999999997  0.48438000000000003  1.0000
  C   C116      1.0  0.5899900000000003  0.9585399999999997  0.45263000000000003  1.0000
  C   C117      1.0  0.6815000000000003  0.92044  0.39851  1.0000
  C   C118      1.0  0.58782  0.08363999999999999  0.32780000000000004  1.0000
  C   C119      1.0  0.6755600000000004  0.94727  0.28403  1.0000
  C   C120      1.0  0.62934  0.03130000000000001  0.24122  1.0000
  C   C121      1.0  0.8036800000000002  0.1855  0.26923  1.0000
  C   C122      1.0  0.29942  0.2056  0.26567  1.0000
  C   C123      1.0  0.7683  0.24232999999999996  0.3873500000000001  1.0000
  C   C124      1.0  0.7948799999999999  0.29722  0.41569  1.0000
  C   C125      1.0  0.7145200000000002  0.35952999999999996  0.45706  1.0000
  C   C126      1.0  0.6046100000000002  0.3685  0.47122  1.0000
  C   C127      1.0  0.57787  0.3126399999999999  0.44448  1.0000
  C   C128      1.0  0.6581600000000004  0.25019  0.4031  1.0000
  C   C129      1.0  0.9070500000000001  0.035139999999999984  0.36779  1.0000
  C   C130      1.0  0.87872  0.006259999999999989  0.43251000000000006  1.0000
  C   C131      1.0  0.9180700000000003  0.9042699999999999  0.46047000000000005  1.0000
  C   C132      1.0  0.98801  0.82918  0.42418000000000006  1.0000
  C   C133      1.0  0.0170699999999999  0.85735  0.3598  1.0000
  C   C134      1.0  0.9773300000000001  0.9590999999999997  0.33152000000000004  1.0000
  C   C135      1.0  0.16549000000000008  0.24547999999999992  0.38726  1.0000
  C   C136      1.0  0.0699  0.33605999999999997  0.39565000000000006  1.0000
  C   C137      1.0  0.050340000000000086  0.3888599999999998  0.44153  1.0000
  C   C138      1.0  0.12664000000000006  0.35200999999999993  0.48072000000000004  1.0000
  C   C139      1.0  0.22131  0.26216  0.4729  1.0000
  C   C140      1.0  0.24137999999999998  0.20852999999999994  0.4271900000000001  1.0000
  C   C141      1.0  0.25195000000000006  0.04634999999999998  0.35655  1.0000
  C   C142      1.0  0.36573000000000017  0.98672  0.34018  1.0000
  C   C143      1.0  0.40817999999999993  0.88255  0.36243  1.0000
  C   C144      1.0  0.33902000000000004  0.83678  0.40216  1.0000
  C   C145      1.0  0.2257400000000002  0.8955299999999998  0.4189  1.0000
  C   C146      1.0  0.18246000000000007  0.99909  0.39569  1.0000
  C   C147      1.0  0.22454000000000002  0.04656999999999999  0.20237  1.0000
  C   C148      1.0  0.09272000000000004  0.12303000000000001  0.15021000000000004  1.0000
  C   C149      1.0  0.17457  0.046560000000000004  0.11956  1.0000
  C   C150      1.0  0.36344  0.9105  0.14094  1.0000
  C   C151      1.0  0.3788500000000002  0.82716  0.19712000000000005  1.0000
  C   C152      1.0  0.29821000000000003  0.7875999999999997  0.22382  1.0000
  C   C153      1.0  0.47093000000000007  0.78865  0.22439000000000006  1.0000
  C   C154      1.0  0.9010899999999998  0.56614  0.03097  1.0000
  C   C155      1.0  0.10028000000000002  0.47504  0.015810000000000005  1.0000
  C   C156      1.0  0.0010499999999999691  0.54124  0.04737  1.0000
  C   C157      1.0  0.0002799999999999535  0.57933  0.10135  1.0000
  C   C158      1.0  0.9985700000000001  0.41659  0.17227000000000003  1.0000
  C   C159      1.0  0.9057700000000001  0.5531399999999997  0.21588  1.0000
  C   C160      1.0  0.9004300000000004  0.4693299999999999  0.25879  1.0000
  N   N1        1.0  0.5533199999999999  0.62162  0.7018900000000001  1.0000
  N   N2        1.0  0.59119  0.4987  0.6532900000000001  1.0000
  N   N3        1.0  0.3514900000000002  0.018289999999999983  0.6610600000000001  1.0000
  N   N4        1.0  0.42471  0.88404  0.73102  1.0000
  N   N5        1.0  0.8750000000000001  0.87753  0.79832  1.0000
  N   N6        1.0  0.7419100000000001  0.0013799999999999787  0.8467500000000001  1.0000
  N   N7        1.0  0.031459999999999946  0.4815400000000001  0.83898  1.0000
  N   N8        1.0  0.040959999999999955  0.61543  0.76888  1.0000
  N   N9        1.0  0.4466800000000001  0.37838  0.29811  1.0000
  N   N10       1.0  0.40881000000000034  0.5013  0.34671  1.0000
  N   N11       1.0  0.64851  0.98171  0.3389400000000001  1.0000
  N   N12       1.0  0.57529  0.11595999999999997  0.26898  1.0000
  N   N13       1.0  0.12500000000000006  0.12246999999999998  0.20168  1.0000
  N   N14       1.0  0.25809000000000004  0.9986199999999998  0.15325000000000003  1.0000
  N   N15       1.0  0.9685400000000004  0.51846  0.16102  1.0000
  N   N16       1.0  0.9590400000000003  0.38456  0.23112000000000002  1.0000
