data_image0
_chemical_formula_structural       Cd4H112C116N16O16
_chemical_formula_sum              "Cd4 H112 C116 N16 O16"
_cell_length_a       10.89516
_cell_length_b       10.897460000000002
_cell_length_c       24.24224
_cell_angle_alpha    92.0865
_cell_angle_beta     92.03781
_cell_angle_gamma    99.19658999999999

_symmetry_space_group_name_H-M    'P 1'
_symmetry_Int_Tables_number       1

loop_
  _symmetry_equiv_pos_as_xyz
  'x,y,z'

loop_
  _atom_site_type_symbol
  _atom_site_label
  _atom_site_symmetry_multiplicity
  _atom_site_fract_x
  _atom_site_fract_y
  _atom_site_fract_z
  _atom_site_occupancy
  Cd  Cd1       1.0  0.94626  0.05371999999999999  0.24996  1.0000
  Cd  Cd2       1.0  0.5  0.5  0.0  1.0000
  Cd  Cd3       1.0  0.5  0.5  0.5  1.0000
  Cd  Cd4       1.0  0.05375000000000002  0.9462899999999999  0.75005  1.0000
  H   H1        1.0  0.3062  0.67992  0.45055  1.0000
  H   H2        1.0  0.95126  0.82552  0.56856  1.0000
  H   H3        1.0  0.08486999999999997  0.025569999999999985  0.5970999999999999  1.0000
  H   H4        1.0  0.14553  0.26028  0.13319  1.0000
  H   H5        1.0  0.30262999999999995  0.8959499999999999  0.6797399999999998  1.0000
  H   H6        1.0  0.5815  0.22261  0.03723  1.0000
  H   H7        1.0  0.63775  0.19972  0.59397  1.0000
  H   H8        1.0  0.38121000000000005  0.2894999999999999  0.712  1.0000
  H   H9        1.0  0.62659  0.73844  0.18624999999999997  1.0000
  H   H10       1.0  0.68767  0.3162  0.11071999999999999  1.0000
  H   H11       1.0  0.31233  0.6838  0.8892799999999997  1.0000
  H   H12       1.0  0.37436  0.45006999999999997  0.72226  1.0000
  H   H13       1.0  0.26158  0.37340999999999996  0.3138  1.0000
  H   H14       1.0  0.82542  0.95128  0.06849  1.0000
  H   H15       1.0  0.46243  0.93745  0.15153  1.0000
  H   H16       1.0  0.9151299999999998  0.97443  0.4029  1.0000
  H   H17       1.0  0.53757  0.06255  0.84847  1.0000
  H   H18       1.0  0.94804  0.67439  0.66569  1.0000
  H   H19       1.0  0.36347  0.54084  0.82034  1.0000
  H   H20       1.0  0.84222  0.5187  0.1394  1.0000
  H   H21       1.0  0.6743  0.94808  0.16561999999999996  1.0000
  H   H22       1.0  0.91291  0.20896999999999996  0.8512799999999999  1.0000
  H   H23       1.0  0.45911  0.63657  0.67969  1.0000
  H   H24       1.0  0.70967  0.34835  0.6217899999999998  1.0000
  H   H25       1.0  0.37172  0.4130499999999999  0.12444999999999998  1.0000
  H   H26       1.0  0.80032  0.36220999999999987  0.9060899999999997  1.0000
  H   H27       1.0  0.34833  0.70971  0.12171  1.0000
  H   H28       1.0  0.22259  0.58148  0.53717  1.0000
  H   H29       1.0  0.6187900000000001  0.71051  0.288  1.0000
  H   H30       1.0  0.0005199999999999938  0.30408999999999997  0.9533799999999999  1.0000
  H   H31       1.0  0.32154000000000005  0.16885  0.35009  1.0000
  H   H32       1.0  0.04123000000000001  0.38438  0.77368  1.0000
  H   H33       1.0  0.3327300000000001  0.21149999999999997  0.46434  1.0000
  H   H34       1.0  0.66727  0.7885099999999999  0.53567  1.0000
  H   H35       1.0  0.86219  0.04665  0.85469  1.0000
  H   H36       1.0  0.05196  0.32562  0.33431  1.0000
  H   H37       1.0  0.50284  0.62104  0.20043  1.0000
  H   H38       1.0  0.15948999999999997  0.51012  0.7598199999999998  1.0000
  H   H39       1.0  0.048740000000000006  0.17449  0.43143999999999993  1.0000
  H   H40       1.0  0.26032  0.14563  0.6332  1.0000
  H   H41       1.0  0.62098  0.5029  0.7003899999999997  1.0000
  H   H42       1.0  0.7666800000000001  0.14021  0.8207999999999998  1.0000
  H   H43       1.0  0.8544700000000001  0.73973  0.8668099999999997  1.0000
  H   H44       1.0  0.5187699999999998  0.8422099999999999  0.63947  1.0000
  H   H45       1.0  0.73842  0.6266  0.6862  1.0000
  H   H46       1.0  0.63653  0.45916999999999997  0.17967  1.0000
  H   H47       1.0  0.6784699999999999  0.8311499999999999  0.64991  1.0000
  H   H48       1.0  0.78847  0.66724  0.03566  1.0000
  H   H49       1.0  0.20903999999999995  0.9127999999999998  0.35127  1.0000
  H   H50       1.0  0.16987  0.34484  0.69174  1.0000
  H   H51       1.0  0.6156499999999999  0.9587599999999998  0.7263899999999999  1.0000
  H   H52       1.0  0.9587700000000001  0.6156199999999998  0.22632  1.0000
  H   H53       1.0  0.21153000000000002  0.33275999999999994  0.96435  1.0000
  H   H54       1.0  0.6938  0.3200799999999999  0.54945  1.0000
  H   H55       1.0  0.15822  0.39011999999999997  0.4786099999999999  1.0000
  H   H56       1.0  0.3843500000000001  0.04124  0.27361  1.0000
  H   H57       1.0  0.4185  0.77739  0.9627799999999997  1.0000
  H   H58       1.0  0.34493  0.16982  0.19169  1.0000
  H   H59       1.0  0.49716  0.37895999999999996  0.7995699999999998  1.0000
  H   H60       1.0  0.97452  0.91514  0.9029699999999999  1.0000
  H   H61       1.0  0.28956  0.38114  0.21204  1.0000
  H   H62       1.0  0.60983  0.8417999999999999  0.02132  1.0000
  H   H63       1.0  0.23333  0.85979  0.1792  1.0000
  H   H64       1.0  0.37341  0.26156  0.81375  1.0000
  H   H65       1.0  0.39017  0.1582  0.9786799999999999  1.0000
  H   H66       1.0  0.48123  0.15779  0.36053  1.0000
  H   H67       1.0  0.13782000000000003  0.95335  0.14531  1.0000
  H   H68       1.0  0.62564  0.54994  0.27774  1.0000
  H   H69       1.0  0.5409  0.36343  0.32031  1.0000
  H   H70       1.0  0.79096  0.08721  0.64873  1.0000
  H   H71       1.0  0.04669  0.86209  0.35469  1.0000
  H   H72       1.0  0.6550699999999999  0.83018  0.80832  1.0000
  H   H73       1.0  0.30408  0.0005099999999999965  0.45332999999999996  1.0000
  H   H74       1.0  0.16878  0.32160999999999995  0.85013  1.0000
  H   H75       1.0  0.93746  0.4624599999999999  0.65158  1.0000
  H   H76       1.0  0.54984  0.62572  0.7777599999999999  1.0000
  H   H77       1.0  0.45016000000000006  0.37428999999999996  0.22223999999999994  1.0000
  H   H78       1.0  0.89596  0.30256  0.17974999999999994  1.0000
  H   H79       1.0  0.32009  0.69381  0.04936999999999999  1.0000
  H   H80       1.0  0.0871  0.79104  0.14872  1.0000
  H   H81       1.0  0.99949  0.69592  0.046629999999999984  1.0000
  H   H82       1.0  0.8405200000000002  0.48988999999999994  0.24018  1.0000
  H   H83       1.0  0.8597  0.23343999999999998  0.6792199999999999  1.0000
  H   H84       1.0  0.19969000000000003  0.6378  0.09391  1.0000
  H   H85       1.0  0.62828  0.58695  0.8755499999999999  1.0000
  H   H86       1.0  0.83122  0.6783899999999999  0.14987999999999999  1.0000
  H   H87       1.0  0.8417800000000001  0.60988  0.52139  1.0000
  H   H88       1.0  0.71045  0.61886  0.7879699999999998  1.0000
  H   H89       1.0  0.69738  0.10406  0.32026  1.0000
  H   H90       1.0  0.17458  0.04873  0.93151  1.0000
  H   H91       1.0  0.9533100000000001  0.13791  0.64531  1.0000
  H   H92       1.0  0.02548  0.08487  0.09704  1.0000
  H   H93       1.0  0.15778  0.4812999999999999  0.8606  1.0000
  H   H94       1.0  0.37902  0.49711  0.29961  1.0000
  H   H95       1.0  0.48986  0.84057  0.7402599999999999  1.0000
  H   H96       1.0  0.51015  0.15944  0.25974  1.0000
  H   H97       1.0  0.67992  0.3061900000000001  0.95063  1.0000
  H   H98       1.0  0.69592  0.99949  0.54667  1.0000
  H   H99       1.0  0.29034  0.6516499999999998  0.37821  1.0000
  H   H100      1.0  0.06255  0.53754  0.34842  1.0000
  H   H101      1.0  0.10405000000000003  0.69744  0.82025  1.0000
  H   H102      1.0  0.14031  0.76656  0.32078  1.0000
  H   H103      1.0  0.6516700000000001  0.2903  0.8782999999999999  1.0000
  H   H104      1.0  0.4131000000000001  0.37179  0.62444  1.0000
  H   H105      1.0  0.31624000000000013  0.68761  0.61068  1.0000
  H   H106      1.0  0.73968  0.85437  0.3668  1.0000
  H   H107      1.0  0.58691  0.62821  0.37556  1.0000
  H   H108      1.0  0.36226000000000014  0.8002799999999999  0.40603  1.0000
  H   H109      1.0  0.83014  0.6551599999999999  0.30827  1.0000
  H   H110      1.0  0.68376  0.31239  0.38931999999999994  1.0000
  H   H111      1.0  0.32571  0.05192  0.83438  1.0000
  H   H112      1.0  0.77742  0.41852  0.4628399999999999  1.0000
  C   C1        1.0  0.30371  0.37417  0.09241999999999999  1.0000
  C   C2        1.0  0.9463099999999998  0.33926999999999996  0.58044  1.0000
  C   C3        1.0  0.39507  0.35553  0.7979199999999999  1.0000
  C   C4        1.0  0.19132  0.15416  0.24251999999999999  1.0000
  C   C5        1.0  0.7740800000000001  0.03721  0.52231  1.0000
  C   C6        1.0  0.64248  0.65631  0.7616199999999999  1.0000
  C   C7        1.0  0.016280000000000006  0.55371  0.38643  1.0000
  C   C8        1.0  0.19621000000000002  0.41442999999999997  0.8338699999999999  1.0000
  C   C9        1.0  0.6826  0.9909999999999999  0.96808  1.0000
  C   C10       1.0  0.7761400000000002  0.6628  0.9912  1.0000
  C   C11       1.0  0.54772  0.6087299999999999  0.60492  1.0000
  C   C12       1.0  0.46683  0.9162799999999999  0.9028299999999998  1.0000
  C   C13       1.0  0.64444  0.6049599999999999  0.7020599999999998  1.0000
  C   C14       1.0  0.9909800000000001  0.6826299999999998  0.4681  1.0000
  C   C15       1.0  0.33719  0.22386999999999999  0.5088  1.0000
  C   C16       1.0  0.8085300000000001  0.70167  0.90292  1.0000
  C   C17       1.0  0.6049300000000001  0.64448  0.20208  1.0000
  C   C18       1.0  0.14244  0.41468  0.77445  1.0000
  C   C19       1.0  0.28708  0.72211  0.4114  1.0000
  C   C20       1.0  0.7686600000000001  0.18161  0.33345  1.0000
  C   C21       1.0  0.76072  0.28269999999999995  0.36774999999999997  1.0000
  C   C22       1.0  0.44638  0.33964  0.3356899999999999  1.0000
  C   C23       1.0  0.8972200000000001  0.02463  0.44053  1.0000
  C   C24       1.0  0.027730000000000005  0.86303  0.54328  1.0000
  C   C25       1.0  0.34374  0.35744999999999993  0.7383799999999998  1.0000
  C   C26       1.0  0.60871  0.54764  0.10490999999999998  1.0000
  C   C27       1.0  0.20012  0.32936  0.7345  1.0000
  C   C28       1.0  0.98372  0.44629  0.61357  1.0000
  C   C29       1.0  0.16874  0.86231  0.14357  1.0000
  C   C30       1.0  0.29836  0.19155999999999998  0.59708  1.0000
  C   C31       1.0  0.67059  0.7999099999999999  0.7655399999999999  1.0000
  C   C32       1.0  0.35752  0.34369  0.23838999999999994  1.0000
  C   C33       1.0  0.037229999999999985  0.77407  0.02229  1.0000
  C   C34       1.0  0.86226  0.16882999999999998  0.6435799999999999  1.0000
  C   C35       1.0  0.44628  0.98372  0.11354999999999998  1.0000
  C   C36       1.0  0.28269  0.76074  0.8677299999999998  1.0000
  C   C37       1.0  0.8038000000000001  0.58557  0.16613  1.0000
  C   C38       1.0  0.32941  0.20009  0.23445999999999995  1.0000
  C   C39       1.0  0.89039  0.59622  0.48376999999999987  1.0000
  C   C40       1.0  0.4144  0.19622  0.33382  1.0000
  C   C41       1.0  0.66281  0.77613  0.49120999999999987  1.0000
  C   C42       1.0  0.86295  0.02774  0.04324  1.0000
  C   C43       1.0  0.3174  0.009009999999999997  0.03192  1.0000
  C   C44       1.0  0.40382  0.1096  0.01628  1.0000
  C   C45       1.0  0.9753  0.10279  0.05942999999999998  1.0000
  C   C46       1.0  0.76706  0.15967  0.9108699999999997  1.0000
  C   C47       1.0  0.23294  0.84034  0.08913  1.0000
  C   C48       1.0  0.58533  0.85758  0.72561  1.0000
  C   C49       1.0  0.29331999999999997  0.9537199999999999  0.83875  1.0000
  C   C50       1.0  0.55372  0.01627999999999997  0.8864499999999997  1.0000
  C   C51       1.0  0.85367  0.48798  0.45092999999999994  1.0000
  C   C52       1.0  0.62581  0.69623  0.4075899999999999  1.0000
  C   C53       1.0  0.33927  0.9463  0.08043  1.0000
  C   C54       1.0  0.5856000000000001  0.80378  0.66618  1.0000
  C   C55       1.0  0.41468  0.14243  0.27439  1.0000
  C   C56       1.0  0.7221200000000001  0.2870499999999999  0.9114699999999998  1.0000
  C   C57       1.0  0.59618  0.8904  0.9837199999999998  1.0000
  C   C58       1.0  0.009019999999999995  0.31738  0.5319  1.0000
  C   C59       1.0  0.05153000000000004  0.80078  0.49433  1.0000
  C   C60       1.0  0.15419  0.19129999999999997  0.74257  1.0000
  C   C61       1.0  0.14634000000000003  0.5120200000000001  0.54907  1.0000
  C   C62       1.0  0.10278  0.97537  0.5594699999999999  1.0000
  C   C63       1.0  0.15967  0.76704  0.41083999999999987  1.0000
  C   C64       1.0  0.7016400000000002  0.80845  0.40292  1.0000
  C   C65       1.0  0.23928  0.7173  0.63225  1.0000
  C   C66       1.0  0.70669  0.04628  0.16126  1.0000
  C   C67       1.0  0.71732  0.23925999999999997  0.13226999999999997  1.0000
  C   C68       1.0  0.97536  0.7991  0.97318  1.0000
  C   C69       1.0  0.84033  0.23296  0.58916  1.0000
  C   C70       1.0  0.69629  0.62584  0.9075799999999999  1.0000
  C   C71       1.0  0.2009  0.02469000000000001  0.52683  1.0000
  C   C72       1.0  0.91629  0.46681999999999996  0.4028399999999999  1.0000
  C   C73       1.0  0.48797  0.85366  0.95089  1.0000
  C   C74       1.0  0.84986  0.14842  0.5384899999999999  1.0000
  C   C75       1.0  0.94847  0.19922999999999996  0.50567  1.0000
  C   C76       1.0  0.4522899999999999  0.39127  0.3950799999999999  1.0000
  C   C77       1.0  0.96278  0.22593  0.97771  1.0000
  C   C78       1.0  0.80869  0.84584  0.7574799999999999  1.0000
  C   C79       1.0  0.18162000000000003  0.76869  0.83345  1.0000
  C   C80       1.0  0.71292  0.27790000000000004  0.5886  1.0000
  C   C81       1.0  0.53317  0.08372  0.09717  1.0000
  C   C82       1.0  0.51204  0.14635  0.049109999999999994  1.0000
  C   C83       1.0  0.13705000000000003  0.97227  0.9567699999999999  1.0000
  C   C84       1.0  0.024709999999999933  0.8972099999999998  0.9405799999999999  1.0000
  C   C85       1.0  0.10961000000000001  0.40379  0.51623  1.0000
  C   C86       1.0  0.66073  0.0537  0.9195699999999999  1.0000
  C   C87       1.0  0.8575600000000001  0.58533  0.22554999999999997  1.0000
  C   C88       1.0  0.85157  0.15016  0.96152  1.0000
  C   C89       1.0  0.23133999999999993  0.8183899999999998  0.6665499999999999  1.0000
  C   C90       1.0  0.27788  0.71295  0.08853  1.0000
  C   C91       1.0  0.80073  0.051549999999999985  0.9943099999999999  1.0000
  C   C92       1.0  0.55363  0.66037  0.6643199999999999  1.0000
  C   C93       1.0  0.33965  0.4463599999999999  0.8356999999999998  1.0000
  C   C94       1.0  0.35557  0.39504  0.29794  1.0000
  C   C95       1.0  0.97228  0.13698  0.4567199999999999  1.0000
  C   C96       1.0  0.19147  0.29833  0.09708  1.0000
  C   C97       1.0  0.37419  0.30377  0.59242  1.0000
  C   C98       1.0  0.15015  0.85158  0.46151  1.0000
  C   C99       1.0  0.22386  0.3372  0.008799999999999999  1.0000
  C   C100      1.0  0.66035  0.55365  0.1643  1.0000
  C   C101      1.0  0.19927  0.94845  0.005689999999999999  1.0000
  C   C102      1.0  0.7991  0.97531  0.47317  1.0000
  C   C103      1.0  0.8312599999999998  0.13768999999999998  0.8564299999999998  1.0000
  C   C104      1.0  0.95374  0.29326  0.33870999999999996  1.0000
  C   C105      1.0  0.05368999999999995  0.6607299999999999  0.41956  1.0000
  C   C106      1.0  0.84581  0.8087099999999999  0.25743  1.0000
  C   C107      1.0  0.13774  0.83118  0.35641999999999996  1.0000
  C   C108      1.0  0.08371  0.53318  0.59716  1.0000
  C   C109      1.0  0.8183900000000001  0.23131  0.16656  1.0000
  C   C110      1.0  0.39129  0.45235999999999993  0.89509  1.0000
  C   C111      1.0  0.046269999999999964  0.70674  0.66129  1.0000
  C   C112      1.0  0.22593000000000002  0.96279  0.4776899999999999  1.0000
  C   C113      1.0  0.024639999999999995  0.2009  0.02682  1.0000
  C   C114      1.0  0.7998900000000001  0.67064  0.2655  1.0000
  C   C115      1.0  0.14844  0.84985  0.03848  1.0000
  C   C116      1.0  0.65626  0.64255  0.26162  1.0000
  N   N1        1.0  0.8889  0.18906999999999996  0.31579  1.0000
  N   N2        1.0  0.39776  0.32271  0.5375  1.0000
  N   N3        1.0  0.64612  0.12102  0.12933  1.0000
  N   N4        1.0  0.11111000000000003  0.81093  0.68421  1.0000
  N   N5        1.0  0.60224  0.67729  0.4625  1.0000
  N   N6        1.0  0.8592300000000002  0.7244199999999998  0.95661  1.0000
  N   N7        1.0  0.67731  0.60225  0.96249  1.0000
  N   N8        1.0  0.81088  0.11109  0.18418  1.0000
  N   N9        1.0  0.35389  0.87898  0.87068  1.0000
  N   N10       1.0  0.87899  0.35387  0.3706699999999999  1.0000
  N   N11       1.0  0.72442  0.85919  0.45660999999999996  1.0000
  N   N12       1.0  0.2755800000000001  0.14082  0.5434  1.0000
  N   N13       1.0  0.32269  0.39776  0.03751  1.0000
  N   N14       1.0  0.18911999999999998  0.8889099999999999  0.8158199999999999  1.0000
  N   N15       1.0  0.14077  0.27558  0.04339  1.0000
  N   N16       1.0  0.12101  0.64613  0.62933  1.0000
  O   O1        1.0  0.11166  0.19382  0.21041  1.0000
  O   O2        1.0  0.55067  0.38137  0.42473999999999995  1.0000
  O   O3        1.0  0.61866  0.4492499999999999  0.07524  1.0000
  O   O4        1.0  0.84181  0.92327  0.72046  1.0000
  O   O5        1.0  0.19381000000000004  0.11163  0.71041  1.0000
  O   O6        1.0  0.44933  0.61864  0.57526  1.0000
  O   O7        1.0  0.44155  0.36415  0.91382  1.0000
  O   O8        1.0  0.92313  0.8418099999999998  0.22033999999999998  1.0000
  O   O9        1.0  0.07687  0.1582  0.77966  1.0000
  O   O10       1.0  0.63597  0.5585  0.58616  1.0000
  O   O11       1.0  0.36403  0.4415  0.4138399999999999  1.0000
  O   O12       1.0  0.38135  0.55075  0.9247599999999998  1.0000
  O   O13       1.0  0.80619  0.88837  0.28959  1.0000
  O   O14       1.0  0.8883399999999999  0.8061799999999999  0.78959  1.0000
  O   O15       1.0  0.55845  0.63586  0.08618  1.0000
  O   O16       1.0  0.15819  0.07674  0.27954  1.0000
