data_image0
_chemical_formula_structural       Eu8H112C192N16O48
_chemical_formula_sum              "Eu8 H112 C192 N16 O48"
_cell_length_a       11.42027
_cell_length_b       21.04243
_cell_length_c       20.65443
_cell_angle_alpha    111.86938
_cell_angle_beta     89.99186
_cell_angle_gamma    90.11755

_space_group_name_H-M_alt    "P 1"
_space_group_IT_number       1

loop_
  _space_group_symop_operation_xyz
  'x, y, z'

loop_
  _atom_site_type_symbol
  _atom_site_label
  _atom_site_symmetry_multiplicity
  _atom_site_fract_x
  _atom_site_fract_y
  _atom_site_fract_z
  _atom_site_occupancy
  Eu  Eu1       1.0  0.42484999999999995  0.44988  0.059419999999999994  1.0000
  Eu  Eu2       1.0  0.8227499999999999  0.47241  0.39861  1.0000
  Eu  Eu3       1.0  0.92511  0.05054000000000001  0.94069  1.0000
  Eu  Eu4       1.0  0.32089  0.02576999999999999  0.60084  1.0000
  Eu  Eu5       1.0  0.5764699999999999  0.55145  0.9425500000000001  1.0000
  Eu  Eu6       1.0  0.18133  0.5271800000000001  0.60284  1.0000
  Eu  Eu7       1.0  0.0763  0.94752  0.05747  1.0000
  Eu  Eu8       1.0  0.68384  0.9725500000000002  0.39802  1.0000
  H   H1        1.0  0.11867999999999998  0.42591  0.29265  1.0000
  H   H2        1.0  0.29151  0.36655  0.22147  1.0000
  H   H3        1.0  0.4897099999999999  0.388  0.27381  1.0000
  H   H4        1.0  0.34543  0.52625  0.46744  1.0000
  H   H5        1.0  0.4975599999999999  0.27646  0.17031  1.0000
  H   H6        1.0  0.46099999999999997  0.16744000000000003  0.19017  1.0000
  H   H7        1.0  0.30296999999999996  0.08799  0.12222999999999999  1.0000
  H   H8        1.0  0.21928  0.22502  0.0193  1.0000
  H   H9        1.0  0.85636  0.73579  0.3576  1.0000
  H   H10       1.0  0.8504299999999999  0.77363  0.25691  1.0000
  H   H11       1.0  0.7575  0.69837  0.14455  1.0000
  H   H12       1.0  0.67508  0.5507600000000001  0.23528999999999997  1.0000
  H   H13       1.0  0.49691  0.55503  0.23229  1.0000
  H   H14       1.0  0.41973999999999995  0.61956  0.35242  1.0000
  H   H15       1.0  0.2014  0.62399  0.37119  1.0000
  H   H16       1.0  0.00289  0.58673  0.32189  1.0000
  H   H17       1.0  0.87772  0.5186  0.22247  1.0000
  H   H18       1.0  0.85813  0.44368  0.09563  1.0000
  H   H19       1.0  0.95815  0.37588000000000005  0.98281  1.0000
  H   H20       1.0  0.17645  0.38079  0.97611  1.0000
  H   H21       1.0  0.01588  0.3818  0.46172  1.0000
  H   H22       1.0  0.17809  0.29622000000000004  0.42689000000000005  1.0000
  H   H23       1.0  0.20324  0.22324  0.29884  1.0000
  H   H24       1.0  0.13084  0.19045000000000004  0.17739  1.0000
  H   H25       1.0  0.00016  0.21258  0.09177  1.0000
  H   H26       1.0  0.8356099999999999  0.27603000000000005  0.06813  1.0000
  H   H27       1.0  0.6776  0.36572  0.11459999999999998  1.0000
  H   H28       1.0  0.6748099999999999  0.4360800000000001  0.24301  1.0000
  H   H29       1.0  0.61724  0.07457000000000004  0.70805  1.0000
  H   H30       1.0  0.78701  0.13648000000000002  0.78034  1.0000
  H   H31       1.0  0.9870099999999999  0.11680999999999996  0.73065  1.0000
  H   H32       1.0  0.84972  0.9763500000000002  0.53572  1.0000
  H   H33       1.0  0.0007  0.22654  0.82988  1.0000
  H   H34       1.0  0.96228  0.33506  0.80996  1.0000
  H   H35       1.0  0.80301  0.41319  0.8772699999999999  1.0000
  H   H36       1.0  0.7190199999999999  0.27472  0.97847  1.0000
  H   H37       1.0  0.3581599999999999  0.76387  0.64416  1.0000
  H   H38       1.0  0.35129  0.72755  0.74588  1.0000
  H   H39       1.0  0.25675  0.80356  0.85747  1.0000
  H   H40       1.0  0.173  0.94774  0.76297  1.0000
  H   H41       1.0  0.9951199999999998  0.9451700000000001  0.76628  1.0000
  H   H42       1.0  0.91555  0.8805100000000001  0.64673  1.0000
  H   H43       1.0  0.69668  0.87562  0.62956  1.0000
  H   H44       1.0  0.49944999999999995  0.9125700000000001  0.68015  1.0000
  H   H45       1.0  0.37617999999999996  0.98167  0.78002  1.0000
  H   H46       1.0  0.35932  0.05862999999999998  0.9062299999999999  1.0000
  H   H47       1.0  0.46148  0.12668  0.01835  1.0000
  H   H48       1.0  0.6796299999999998  0.12034000000000003  0.02419  1.0000
  H   H49       1.0  0.51342  0.11650999999999996  0.53753  1.0000
  H   H50       1.0  0.67304  0.20402  0.57193  1.0000
  H   H51       1.0  0.69869  0.27707  0.69997  1.0000
  H   H52       1.0  0.62759  0.30898  0.82178  1.0000
  H   H53       1.0  0.49762999999999996  0.28625000000000006  0.9073300000000001  1.0000
  H   H54       1.0  0.33299999999999996  0.22216000000000002  0.93072  1.0000
  H   H55       1.0  0.17473  0.13242000000000004  0.884  1.0000
  H   H56       1.0  0.17345  0.061239999999999975  0.75581  1.0000
  H   H57       1.0  0.88273  0.57361  0.70639  1.0000
  H   H58       1.0  0.71254  0.63389  0.77961  1.0000
  H   H59       1.0  0.51232  0.61392  0.7296  1.0000
  H   H60       1.0  0.64933  0.4722  0.53555  1.0000
  H   H61       1.0  0.4951499999999999  0.72589  0.83154  1.0000
  H   H62       1.0  0.53355  0.8341600000000001  0.81099  1.0000
  H   H63       1.0  0.69707  0.9112100000000001  0.8752  1.0000
  H   H64       1.0  0.7790199999999998  0.77469  0.97893  1.0000
  H   H65       1.0  0.1471  0.26381  0.6449  1.0000
  H   H66       1.0  0.15152  0.22709000000000001  0.74659  1.0000
  H   H67       1.0  0.24274999999999997  0.3033  0.85899  1.0000
  H   H68       1.0  0.32501  0.44998  0.76732  1.0000
  H   H69       1.0  0.50164  0.44731000000000004  0.76967  1.0000
  H   H70       1.0  0.57741  0.38246000000000013  0.64929  1.0000
  H   H71       1.0  0.79572  0.37559  0.63026  1.0000
  H   H72       1.0  0.99517  0.41196  0.67919  1.0000
  H   H73       1.0  0.12104  0.48019000000000006  0.7779  1.0000
  H   H74       1.0  0.14174999999999996  0.55637  0.9045700000000001  1.0000
  H   H75       1.0  0.04245  0.62489  0.01738  1.0000
  H   H76       1.0  0.8241399999999998  0.6203000000000001  0.02473  1.0000
  H   H77       1.0  0.9866599999999999  0.61494  0.53847  1.0000
  H   H78       1.0  0.8263999999999999  0.70166  0.57175  1.0000
  H   H79       1.0  0.80006  0.7754000000000001  0.69956  1.0000
  H   H80       1.0  0.87129  0.80876  0.82166  1.0000
  H   H81       1.0  0.0013800000000000006  0.7873300000000001  0.9078599999999999  1.0000
  H   H82       1.0  0.16676  0.7244000000000002  0.9322899999999998  1.0000
  H   H83       1.0  0.32408  0.6342899999999999  0.8864399999999999  1.0000
  H   H84       1.0  0.32539  0.5622  0.75851  1.0000
  H   H85       1.0  0.3858599999999999  0.92608  0.29159  1.0000
  H   H86       1.0  0.21517  0.8648  0.21915999999999997  1.0000
  H   H87       1.0  0.01571  0.88379  0.27033  1.0000
  H   H88       1.0  0.15533  0.02255  0.46522  1.0000
  H   H89       1.0  0.9983399999999999  0.77265  0.17028  1.0000
  H   H90       1.0  0.03798  0.66401  0.18987  1.0000
  H   H91       1.0  0.19879  0.5869300000000001  0.12305999999999999  1.0000
  H   H92       1.0  0.28124  0.7262  0.0225  1.0000
  H   H93       1.0  0.64454  0.23689  0.35217  1.0000
  H   H94       1.0  0.65353  0.27035  0.24814  1.0000
  H   H95       1.0  0.7464499999999997  0.19128000000000003  0.1378  1.0000
  H   H96       1.0  0.8252  0.050219999999999994  0.23707  1.0000
  H   H97       1.0  0.00283  0.05297000000000002  0.22988  1.0000
  H   H98       1.0  0.07904  0.11866  0.35012  1.0000
  H   H99       1.0  0.29714  0.12375  0.36976  1.0000
  H   H100      1.0  0.49601  0.08684000000000003  0.32115  1.0000
  H   H101      1.0  0.62165  0.018469999999999993  0.22247  1.0000
  H   H102      1.0  0.64232  0.94283  0.09588  1.0000
  H   H103      1.0  0.54316  0.8762  0.98233  1.0000
  H   H104      1.0  0.32527999999999996  0.8818200000000002  0.9744  1.0000
  H   H105      1.0  0.48950999999999995  0.8835600000000001  0.46176999999999996  1.0000
  H   H106      1.0  0.3285  0.79694  0.42789000000000005  1.0000
  H   H107      1.0  0.30251999999999996  0.72335  0.29999  1.0000
  H   H108      1.0  0.37381999999999993  0.6905700000000001  0.17803  1.0000
  H   H109      1.0  0.50378  0.71288  0.09213  1.0000
  H   H110      1.0  0.66891  0.77619  0.06829  1.0000
  H   H111      1.0  0.8275199999999998  0.86593  0.11453999999999999  1.0000
  H   H112      1.0  0.82968  0.9371200000000001  0.24253  1.0000
  C   C1        1.0  0.11736  0.50979  0.42864  1.0000
  C   C2        1.0  0.22098  0.4776  0.38479  1.0000
  C   C3        1.0  0.20607  0.43363  0.31509  1.0000
  C   C4        1.0  0.30247  0.4010600000000001  0.27531  1.0000
  C   C5        1.0  0.41426  0.41331  0.30466  1.0000
  C   C6        1.0  0.4307  0.45897000000000004  0.37374  1.0000
  C   C7        1.0  0.33343  0.4909700000000001  0.41393  1.0000
  C   C8        1.0  0.55169  0.4727  0.40291  1.0000
  C   C9        1.0  0.38537  0.32078000000000007  0.07992  1.0000
  C   C10       1.0  0.36261  0.25671  0.09298  1.0000
  C   C11       1.0  0.42916999999999994  0.24084  0.14203  1.0000
  C   C12       1.0  0.4081199999999999  0.18013  0.15284  1.0000
  C   C13       1.0  0.31998  0.13558  0.11500999999999999  1.0000
  C   C14       1.0  0.25184  0.15146000000000004  0.06666  1.0000
  C   C15       1.0  0.27353  0.21223  0.05595  1.0000
  C   C16       1.0  0.15323  0.1058  0.028060000000000005  1.0000
  C   C17       1.0  0.7809999999999999  0.61213  0.35907  1.0000
  C   C18       1.0  0.7670199999999999  0.6403800000000001  0.30247  1.0000
  C   C19       1.0  0.8149999999999998  0.70389  0.30878  1.0000
  C   C20       1.0  0.8121999999999999  0.72447  0.25174  1.0000
  C   C21       1.0  0.7597  0.68272  0.18906  1.0000
  C   C22       1.0  0.70564  0.62086  0.18328  1.0000
  C   C23       1.0  0.71158  0.60003  0.24012999999999998  1.0000
  C   C24       1.0  0.63889  0.57808  0.11838  1.0000
  C   C25       1.0  0.40356999999999993  0.556  0.24294  1.0000
  C   C26       1.0  0.35944999999999994  0.59337  0.31002  1.0000
  C   C27       1.0  0.23968  0.5956  0.32026  1.0000
  C   C28       1.0  0.16535  0.55911  0.26385  1.0000
  C   C29       1.0  0.04088  0.55793  0.27115  1.0000
  C   C30       1.0  0.9719599999999999  0.52001  0.21615  1.0000
  C   C31       1.0  0.021849999999999998  0.48153000000000007  0.14955  1.0000
  C   C32       1.0  0.95311  0.44342  0.09095  1.0000
  C   C33       1.0  0.007809999999999999  0.40633  0.028620000000000003  1.0000
  C   C34       1.0  0.13037  0.40886  0.0245  1.0000
  C   C35       1.0  0.14543  0.48119  0.14049  1.0000
  C   C36       1.0  0.21852999999999997  0.5208  0.19863  1.0000
  C   C37       1.0  0.030709999999999994  0.3503  0.40698  1.0000
  C   C38       1.0  0.12105999999999999  0.30138  0.38689  1.0000
  C   C39       1.0  0.13462  0.26171  0.31693  1.0000
  C   C40       1.0  0.058279999999999985  0.2713  0.26744  1.0000
  C   C41       1.0  0.06648  0.23128  0.19444  1.0000
  C   C42       1.0  0.99522  0.24355  0.14726  1.0000
  C   C43       1.0  0.90894  0.29652000000000006  0.17020999999999997  1.0000
  C   C44       1.0  0.82902  0.30788  0.12346  1.0000
  C   C45       1.0  0.74234  0.35682  0.14907  1.0000
  C   C46       1.0  0.7400199999999999  0.3960600000000001  0.2211  1.0000
  C   C47       1.0  0.8974599999999998  0.33719  0.24247  1.0000
  C   C48       1.0  0.9725099999999999  0.32378999999999997  0.29225  1.0000
  C   C49       1.0  0.61739  0.9900400000000001  0.57307  1.0000
  C   C50       1.0  0.7215399999999998  0.023150000000000004  0.617  1.0000
  C   C51       1.0  0.70529  0.06738000000000002  0.68654  1.0000
  C   C52       1.0  0.8002899999999998  0.10174999999999997  0.7268  1.0000
  C   C53       1.0  0.9129399999999998  0.09081  0.6986  1.0000
  C   C54       1.0  0.9312399999999997  0.04486  0.62974  1.0000
  C   C55       1.0  0.83489  0.011389999999999994  0.589  1.0000
  C   C56       1.0  0.05270999999999999  0.03135  0.60154  1.0000
  C   C57       1.0  0.8868599999999999  0.18045999999999998  0.91949  1.0000
  C   C58       1.0  0.8638399999999998  0.24431  0.90589  1.0000
  C   C59       1.0  0.9309699999999999  0.2611299999999999  0.8575999999999999  1.0000
  C   C60       1.0  0.9091999999999999  0.32178  0.84682  1.0000
  C   C61       1.0  0.82037  0.36558999999999997  0.8843299999999998  1.0000
  C   C62       1.0  0.75223  0.34894000000000003  0.9321600000000001  1.0000
  C   C63       1.0  0.77366  0.2879500000000001  0.94229  1.0000
  C   C64       1.0  0.6550499999999999  0.39476  0.97169  1.0000
  C   C65       1.0  0.28137  0.88681  0.6409  1.0000
  C   C66       1.0  0.26643999999999995  0.85858  0.69728  1.0000
  C   C67       1.0  0.31567  0.7958700000000001  0.69238  1.0000
  C   C68       1.0  0.31215  0.77608  0.74997  1.0000
  C   C69       1.0  0.25911  0.81812  0.8122  1.0000
  C   C70       1.0  0.20466  0.8793400000000001  0.81648  1.0000
  C   C71       1.0  0.21020999999999998  0.89895  0.75895  1.0000
  C   C72       1.0  0.13868  0.92323  0.8810899999999999  1.0000
  C   C73       1.0  0.9015599999999999  0.94409  0.75632  1.0000
  C   C74       1.0  0.85606  0.90655  0.68954  1.0000
  C   C75       1.0  0.7360799999999998  0.9041100000000001  0.68018  1.0000
  C   C76       1.0  0.66292  0.94065  0.73706  1.0000
  C   C77       1.0  0.53832  0.94179  0.73058  1.0000
  C   C78       1.0  0.47055  0.9801800000000002  0.78575  1.0000
  C   C79       1.0  0.52181  0.019180000000000016  0.85187  1.0000
  C   C80       1.0  0.4543099999999999  0.05825000000000002  0.91055  1.0000
  C   C81       1.0  0.51015  0.09552  0.97248  1.0000
  C   C82       1.0  0.63265  0.09228  0.9761  1.0000
  C   C83       1.0  0.6455099999999999  0.01915  0.8603  1.0000
  C   C84       1.0  0.71746  0.97922  0.80186  1.0000
  C   C85       1.0  0.52837  0.14819  0.59218  1.0000
  C   C86       1.0  0.61733  0.19814  0.61213  1.0000
  C   C87       1.0  0.63101  0.23786  0.68207  1.0000
  C   C88       1.0  0.55605  0.2274  0.73172  1.0000
  C   C89       1.0  0.56401  0.26756000000000013  0.8047199999999999  1.0000
  C   C90       1.0  0.49323  0.25490000000000007  0.8518900000000001  1.0000
  C   C91       1.0  0.40762  0.20133  0.82894  1.0000
  C   C92       1.0  0.32704  0.19005000000000005  0.87545  1.0000
  C   C93       1.0  0.24023999999999998  0.14098000000000008  0.8497200000000001  1.0000
  C   C94       1.0  0.23888999999999996  0.10132000000000005  0.7778  1.0000
  C   C95       1.0  0.39683999999999997  0.16029  0.75676  1.0000
  C   C96       1.0  0.47142  0.17408000000000004  0.70698  1.0000
  C   C97       1.0  0.8816299999999998  0.4883000000000001  0.57244  1.0000
  C   C98       1.0  0.77752  0.52086  0.61611  1.0000
  C   C99       1.0  0.79441  0.56589  0.68531  1.0000
  C   C100      1.0  0.69966  0.5994  0.72603  1.0000
  C   C101      1.0  0.58684  0.5882  0.69808  1.0000
  C   C102      1.0  0.56809  0.5425  0.62911  1.0000
  C   C103      1.0  0.66392  0.50828  0.58851  1.0000
  C   C104      1.0  0.44550999999999996  0.5316500000000001  0.60205  1.0000
  C   C105      1.0  0.61456  0.6794799999999999  0.9198499999999998  1.0000
  C   C106      1.0  0.63436  0.7436900000000001  0.9065299999999998  1.0000
  C   C107      1.0  0.56578  0.7603300000000001  0.85868  1.0000
  C   C108      1.0  0.58783  0.8207500000000001  0.8473299999999999  1.0000
  C   C109      1.0  0.6785  0.8642900000000001  0.88351  1.0000
  C   C110      1.0  0.74693  0.84818  0.9316499999999999  1.0000
  C   C111      1.0  0.7245  0.7877  0.94261  1.0000
  C   C112      1.0  0.8462699999999999  0.89323  0.9703399999999999  1.0000
  C   C113      1.0  0.21661  0.38838  0.64406  1.0000
  C   C114      1.0  0.23387  0.35997  0.70011  1.0000
  C   C115      1.0  0.18706  0.2962  0.69393  1.0000
  C   C116      1.0  0.18973  0.27611  0.75125  1.0000
  C   C117      1.0  0.24138  0.31827  0.81401  1.0000
  C   C118      1.0  0.29545999999999994  0.37999  0.81911  1.0000
  C   C119      1.0  0.28915  0.40050000000000013  0.76224  1.0000
  C   C120      1.0  0.36241  0.42348  0.8834299999999999  1.0000
  C   C121      1.0  0.59493  0.44546  0.75882  1.0000
  C   C122      1.0  0.6383  0.40783  0.69163  1.0000
  C   C123      1.0  0.7580399999999999  0.40436000000000005  0.68125  1.0000
  C   C124      1.0  0.8330699999999998  0.44032  0.73752  1.0000
  C   C125      1.0  0.95749  0.44096  0.72997  1.0000
  C   C126      1.0  0.026959999999999998  0.47893000000000013  0.78469  1.0000
  C   C127      1.0  0.97769  0.5180399999999998  0.8512699999999999  1.0000
  C   C128      1.0  0.04681  0.55659  0.90951  1.0000
  C   C129      1.0  0.99252  0.59412  0.9718500000000001  1.0000
  C   C130      1.0  0.86999  0.59192  0.9763199999999999  1.0000
  C   C131      1.0  0.8541899999999999  0.51882  0.86063  1.0000
  C   C132      1.0  0.78056  0.4791700000000001  0.80279  1.0000
  C   C133      1.0  0.97158  0.6470300000000001  0.59298  1.0000
  C   C134      1.0  0.8820799999999999  0.6964200000000002  0.61228  1.0000
  C   C135      1.0  0.86803  0.7365000000000002  0.68211  1.0000
  C   C136      1.0  0.94307  0.72687  0.73217  1.0000
  C   C137      1.0  0.93497  0.76754  0.8050199999999998  1.0000
  C   C138      1.0  0.006019999999999999  0.7556400000000001  0.8525499999999999  1.0000
  C   C139      1.0  0.092  0.70247  0.83022  1.0000
  C   C140      1.0  0.17248  0.69182  0.87712  1.0000
  C   C141      1.0  0.2589699999999999  0.64267  0.85188  1.0000
  C   C142      1.0  0.26056  0.60255  0.78007  1.0000
  C   C143      1.0  0.10322  0.66114  0.75814  1.0000
  C   C144      1.0  0.02845  0.6741500000000001  0.708  1.0000
  C   C145      1.0  0.38546  0.009929999999999963  0.42718999999999996  1.0000
  C   C146      1.0  0.28175  0.97623  0.38329  1.0000
  C   C147      1.0  0.29805  0.93261  0.31345  1.0000
  C   C148      1.0  0.20273  0.8988100000000001  0.27314  1.0000
  C   C149      1.0  0.09043999999999999  0.90936  0.30191  1.0000
  C   C150      1.0  0.07217999999999998  0.95442  0.37109  1.0000
  C   C151      1.0  0.16865  0.98771  0.41167  1.0000
  C   C152      1.0  0.9504899999999997  0.96701  0.39921  1.0000
  C   C153      1.0  0.11199999999999997  0.81984  0.08181  1.0000
  C   C154      1.0  0.13559  0.75567  0.0946  1.0000
  C   C155      1.0  0.06836  0.7383100000000001  0.14251  1.0000
  C   C156      1.0  0.09089  0.67776  0.15325  1.0000
  C   C157      1.0  0.18055  0.6344800000000002  0.11605000000000001  1.0000
  C   C158      1.0  0.24869999999999998  0.65162  0.06853  1.0000
  C   C159      1.0  0.22647999999999993  0.71252  0.05835  1.0000
  C   C160      1.0  0.34715  0.60651  0.029669999999999995  1.0000
  C   C161      1.0  0.7143599999999999  0.11419000000000001  0.35791  1.0000
  C   C162      1.0  0.73241  0.14055  0.3004  1.0000
  C   C163      1.0  0.6857599999999999  0.20351  0.30408  1.0000
  C   C164      1.0  0.69029  0.22173  0.24557  1.0000
  C   C165      1.0  0.74323  0.17828  0.18401  1.0000
  C   C166      1.0  0.7968799999999999  0.11738  0.18124  1.0000
  C   C167      1.0  0.78909  0.09872  0.23936  1.0000
  C   C168      1.0  0.86462  0.07429  0.11728  1.0000
  C   C169      1.0  0.09604999999999997  0.05452000000000001  0.24092  1.0000
  C   C170      1.0  0.13967  0.09242  0.30804  1.0000
  C   C171      1.0  0.25935  0.09512  0.3187  1.0000
  C   C172      1.0  0.33407  0.058889999999999984  0.26255  1.0000
  C   C173      1.0  0.4584  0.05797  0.27028  1.0000
  C   C174      1.0  0.52761  0.019939999999999996  0.21565  1.0000
  C   C175      1.0  0.4783099999999999  0.98137  0.14887  1.0000
  C   C176      1.0  0.54745  0.94312  0.09066  1.0000
  C   C177      1.0  0.49326  0.90658  0.02794  1.0000
  C   C178      1.0  0.37086  0.9093900000000001  0.02315  1.0000
  C   C179      1.0  0.35488  0.9810800000000001  0.13926  1.0000
  C   C180      1.0  0.28138  0.02026  0.19718  1.0000
  C   C181      1.0  0.4746  0.85157  0.40721  1.0000
  C   C182      1.0  0.3847  0.8021800000000001  0.38757  1.0000
  C   C183      1.0  0.3708199999999999  0.7622  0.31769  1.0000
  C   C184      1.0  0.44613999999999987  0.7720500000000001  0.26787  1.0000
  C   C185      1.0  0.4377799999999999  0.7318  0.1949  1.0000
  C   C186      1.0  0.50851  0.7442  0.14754  1.0000
  C   C187      1.0  0.59466  0.79746  0.17020999999999997  1.0000
  C   C188      1.0  0.67507  0.80854  0.12348  1.0000
  C   C189      1.0  0.7620099999999999  0.8575300000000001  0.14891  1.0000
  C   C190      1.0  0.76394  0.8972  0.22081  1.0000
  C   C191      1.0  0.6061599999999999  0.83839  0.24236  1.0000
  C   C192      1.0  0.53166  0.8249100000000001  0.29234  1.0000
  N   N1        1.0  0.3364  0.52083  0.18848  1.0000
  N   N2        1.0  0.19764  0.44566000000000006  0.0783  1.0000
  N   N3        1.0  0.8157799999999998  0.38763  0.26666  1.0000
  N   N4        1.0  0.9589199999999998  0.362  0.36146  1.0000
  N   N5        1.0  0.8355399999999998  0.9793  0.81123  1.0000
  N   N6        1.0  0.69877  0.054859999999999985  0.92215  1.0000
  N   N7        1.0  0.31545999999999996  0.10946999999999996  0.73255  1.0000
  N   N8        1.0  0.45769  0.13575000000000007  0.63784  1.0000
  N   N9        1.0  0.66277  0.47991000000000006  0.81319  1.0000
  N   N10       1.0  0.8024299999999999  0.5550100000000002  0.9227600000000001  1.0000
  N   N11       1.0  0.18467999999999996  0.61055  0.73442  1.0000
  N   N12       1.0  0.04263999999999999  0.63561  0.63898  1.0000
  N   N13       1.0  0.16355999999999998  0.019410000000000004  0.18675  1.0000
  N   N14       1.0  0.30324999999999996  0.9458800000000002  0.07676  1.0000
  N   N15       1.0  0.68779  0.8890600000000001  0.26631  1.0000
  N   N16       1.0  0.54599  0.86322  0.36144  1.0000
  O   O1        1.0  0.0205  0.51105  0.39827  1.0000
  O   O2        1.0  0.13137  0.53483  0.49457  1.0000
  O   O3        1.0  0.58102  0.52905  0.44981  1.0000
  O   O4        1.0  0.62838  0.42441000000000006  0.3768  1.0000
  O   O5        1.0  0.4391899999999999  0.37088  0.12605  1.0000
  O   O6        1.0  0.34935  0.3247  0.02315  1.0000
  O   O7        1.0  0.09826  0.12355  0.98388  1.0000
  O   O8        1.0  0.12693  0.05356  0.04231  1.0000
  O   O9        1.0  0.7589  0.54761  0.3415  1.0000
  O   O10       1.0  0.81733  0.64918  0.41872  1.0000
  O   O11       1.0  0.58271  0.52653  0.12106  1.0000
  O   O12       1.0  0.64083  0.59673  0.06654  1.0000
  O   O13       1.0  0.52116  0.9876400000000001  0.60354  1.0000
  O   O14       1.0  0.62974  0.96592  0.5068  1.0000
  O   O15       1.0  0.08346  0.97363  0.55731  1.0000
  O   O16       1.0  0.12909  0.08006000000000005  0.62533  1.0000
  O   O17       1.0  0.9396699999999998  0.13013  0.87362  1.0000
  O   O18       1.0  0.8514999999999999  0.17684000000000005  0.97657  1.0000
  O   O19       1.0  0.59587  0.37535  0.01316  1.0000
  O   O20       1.0  0.6350599999999998  0.44966  0.9609  1.0000
  O   O21       1.0  0.25794  0.95155  0.65892  1.0000
  O   O22       1.0  0.31985  0.8506400000000001  0.58178  1.0000
  O   O23       1.0  0.08008  0.97329  0.87691  1.0000
  O   O24       1.0  0.14409  0.90736  0.93459  1.0000
  O   O25       1.0  0.97882  0.48932  0.6031  1.0000
  O   O26       1.0  0.86753  0.46138000000000007  0.50625  1.0000
  O   O27       1.0  0.40929  0.47397  0.55946  1.0000
  O   O28       1.0  0.37317  0.58247  0.62508  1.0000
  O   O29       1.0  0.56445  0.62833  0.8733299999999999  1.0000
  O   O30       1.0  0.65071  0.6761499999999999  0.9769099999999998  1.0000
  O   O31       1.0  0.90187  0.87522  0.01408  1.0000
  O   O32       1.0  0.87235  0.94587  0.95679  1.0000
  O   O33       1.0  0.23310999999999998  0.45365000000000005  0.66246  1.0000
  O   O34       1.0  0.18243  0.3514  0.5842  1.0000
  O   O35       1.0  0.41844999999999993  0.47480000000000006  0.8800899999999999  1.0000
  O   O36       1.0  0.36028  0.40579  0.93584  1.0000
  O   O37       1.0  0.4822699999999999  0.00984999999999999  0.39651  1.0000
  O   O38       1.0  0.37157999999999997  0.03694000000000001  0.49331  1.0000
  O   O39       1.0  0.91973  0.023999999999999997  0.44473  1.0000
  O   O40       1.0  0.87488  0.91821  0.37302  1.0000
  O   O41       1.0  0.05256  0.8681  0.12596  1.0000
  O   O42       1.0  0.15355999999999997  0.8257800000000001  0.026939999999999995  1.0000
  O   O43       1.0  0.40437  0.62527  0.98701  1.0000
  O   O44       1.0  0.37056  0.55285  0.04214  1.0000
  O   O45       1.0  0.73123  0.04928999999999999  0.34188  1.0000
  O   O46       1.0  0.67957  0.15281  0.41714  1.0000
  O   O47       1.0  0.9204599999999997  0.022920000000000003  0.12045  1.0000
  O   O48       1.0  0.8630599999999999  0.09217000000000002  0.06503  1.0000
