data_image0
_chemical_formula_structural       Cu16H80C148O80
_chemical_formula_sum              "Cu16 H80 C148 O80"
_cell_length_a       12.4162
_cell_length_b       26.23178
_cell_length_c       26.28815
_cell_angle_alpha    90.00090999999999
_cell_angle_beta     90.0
_cell_angle_gamma    89.98993

_symmetry_space_group_name_H-M    'P 1'
_symmetry_Int_Tables_number       1

loop_
  _symmetry_equiv_pos_as_xyz
  'x,y,z'

loop_
  _atom_site_type_symbol
  _atom_site_label
  _atom_site_symmetry_multiplicity
  _atom_site_fract_x
  _atom_site_fract_y
  _atom_site_fract_z
  _atom_site_occupancy
  Cu  Cu1       1.0  0.06805  0.50555  0.9667800000000002  1.0000
  Cu  Cu2       1.0  0.93194  0.49447  0.46678000000000003  1.0000
  Cu  Cu3       1.0  0.9319999999999998  0.00566  0.53324  1.0000
  Cu  Cu4       1.0  0.068  0.99435  0.033240000000000006  1.0000
  Cu  Cu5       1.0  0.9319499999999997  0.49445  0.033220000000000006  1.0000
  Cu  Cu6       1.0  0.06805999999999998  0.50553  0.5332100000000001  1.0000
  Cu  Cu7       1.0  0.068  0.99434  0.4667600000000001  1.0000
  Cu  Cu8       1.0  0.9319999999999998  0.00566  0.9667600000000002  1.0000
  Cu  Cu9       1.0  0.85972  0.77306  0.7499900000000003  1.0000
  Cu  Cu10      1.0  0.9978099999999999  0.70658  0.7500300000000002  1.0000
  Cu  Cu11      1.0  0.14026999999999998  0.22694  0.25001000000000007  1.0000
  Cu  Cu12      1.0  0.00219  0.29343  0.24996  1.0000
  Cu  Cu13      1.0  0.13925999999999997  0.27304  0.74995  1.0000
  Cu  Cu14      1.0  0.0025199999999999992  0.20607  0.7500000000000001  1.0000
  Cu  Cu15      1.0  0.8607399999999997  0.72696  0.25005  1.0000
  Cu  Cu16      1.0  0.99748  0.79393  0.25  1.0000
  H   H1        1.0  0.20959  0.7504100000000001  0.8646400000000002  1.0000
  H   H2        1.0  0.24980999999999995  0.87011  0.97597  1.0000
  H   H3        1.0  0.9897999999999998  0.87772  0.86784  1.0000
  H   H4        1.0  0.4337499999999999  0.8280400000000002  0.9724300000000002  1.0000
  H   H5        1.0  0.32992  0.80504  0.013890000000000003  1.0000
  H   H6        1.0  0.5836  0.7370700000000001  0.054820000000000015  1.0000
  H   H7        1.0  0.47752  0.7773100000000002  0.07786  1.0000
  H   H8        1.0  0.6576199999999998  0.77637  0.12119000000000002  1.0000
  H   H9        1.0  0.9127199999999998  0.88697  0.13001  1.0000
  H   H10       1.0  0.6971099999999999  0.88839  0.0016200000000000001  1.0000
  H   H11       1.0  0.7904399999999998  0.24960000000000002  0.36466000000000004  1.0000
  H   H12       1.0  0.75019  0.1299  0.4759800000000001  1.0000
  H   H13       1.0  0.01023  0.12227  0.36787  1.0000
  H   H14       1.0  0.56626  0.17197000000000007  0.4724200000000001  1.0000
  H   H15       1.0  0.67004  0.19495000000000004  0.5139100000000001  1.0000
  H   H16       1.0  0.4165  0.26298  0.5548700000000002  1.0000
  H   H17       1.0  0.5224099999999999  0.22260000000000005  0.57783  1.0000
  H   H18       1.0  0.34241  0.22362  0.62119  1.0000
  H   H19       1.0  0.08731999999999997  0.11303  0.6300600000000002  1.0000
  H   H20       1.0  0.30277  0.11164000000000002  0.5016  1.0000
  H   H21       1.0  0.79056  0.25033  0.63532  1.0000
  H   H22       1.0  0.75029  0.37005  0.52401  1.0000
  H   H23       1.0  0.01015  0.3776800000000001  0.6322100000000003  1.0000
  H   H24       1.0  0.56628  0.32794000000000006  0.52763  1.0000
  H   H25       1.0  0.6699299999999999  0.3049900000000001  0.48603  1.0000
  H   H26       1.0  0.41665999999999986  0.23685  0.44505  1.0000
  H   H27       1.0  0.52237  0.27738  0.4221700000000001  1.0000
  H   H28       1.0  0.34241  0.27631  0.37875  1.0000
  H   H29       1.0  0.08721  0.38691  0.36983000000000005  1.0000
  H   H30       1.0  0.30260999999999993  0.38827  0.4983300000000001  1.0000
  H   H31       1.0  0.20943999999999996  0.74967  0.13533  1.0000
  H   H32       1.0  0.2497  0.62994  0.024020000000000007  1.0000
  H   H33       1.0  0.9898599999999997  0.62231  0.13224  1.0000
  H   H34       1.0  0.43366999999999994  0.6720600000000002  0.02763  1.0000
  H   H35       1.0  0.33004  0.69501  0.9860300000000002  1.0000
  H   H36       1.0  0.58349  0.76306  0.9451200000000002  1.0000
  H   H37       1.0  0.47761  0.72268  0.9221600000000002  1.0000
  H   H38       1.0  0.6576  0.72369  0.8787900000000002  1.0000
  H   H39       1.0  0.9128299999999998  0.6131200000000001  0.86987  1.0000
  H   H40       1.0  0.6973499999999999  0.61168  0.9983300000000003  1.0000
  H   H41       1.0  0.7904099999999998  0.24960000000000002  0.13536  1.0000
  H   H42       1.0  0.75018  0.1299  0.024020000000000007  1.0000
  H   H43       1.0  0.0102  0.12228  0.13216  1.0000
  H   H44       1.0  0.56625  0.17197000000000007  0.027570000000000004  1.0000
  H   H45       1.0  0.67008  0.19497000000000003  0.9861000000000001  1.0000
  H   H46       1.0  0.4163999999999999  0.26293  0.9451800000000002  1.0000
  H   H47       1.0  0.52247  0.22269000000000003  0.92214  1.0000
  H   H48       1.0  0.34236999999999995  0.22363  0.8788100000000002  1.0000
  H   H49       1.0  0.08728  0.11303  0.86999  1.0000
  H   H50       1.0  0.30288999999999994  0.11161000000000003  0.9983800000000003  1.0000
  H   H51       1.0  0.20955999999999994  0.7504000000000001  0.63534  1.0000
  H   H52       1.0  0.24979999999999994  0.8701  0.52401  1.0000
  H   H53       1.0  0.9897699999999999  0.87773  0.6321300000000001  1.0000
  H   H54       1.0  0.43373999999999996  0.8280300000000003  0.52758  1.0000
  H   H55       1.0  0.32995999999999986  0.80505  0.48608000000000007  1.0000
  H   H56       1.0  0.5834999999999999  0.7370200000000001  0.44513000000000014  1.0000
  H   H57       1.0  0.47759  0.7774000000000001  0.42216  1.0000
  H   H58       1.0  0.6575899999999998  0.77638  0.37881  1.0000
  H   H59       1.0  0.91268  0.88698  0.3699400000000001  1.0000
  H   H60       1.0  0.69723  0.88837  0.49840000000000007  1.0000
  H   H61       1.0  0.20942999999999995  0.74968  0.36468  1.0000
  H   H62       1.0  0.24970999999999993  0.62995  0.4759900000000001  1.0000
  H   H63       1.0  0.9898399999999999  0.62232  0.36779  1.0000
  H   H64       1.0  0.43371  0.6720600000000002  0.4723700000000001  1.0000
  H   H65       1.0  0.3300699999999999  0.69501  0.5139700000000001  1.0000
  H   H66       1.0  0.5833399999999999  0.76315  0.55495  1.0000
  H   H67       1.0  0.47761999999999993  0.72262  0.57782  1.0000
  H   H68       1.0  0.6575899999999998  0.72369  0.62124  1.0000
  H   H69       1.0  0.9127899999999998  0.6130900000000001  0.63017  1.0000
  H   H70       1.0  0.69739  0.61173  0.50167  1.0000
  H   H71       1.0  0.79056  0.25033  0.8646700000000003  1.0000
  H   H72       1.0  0.7502999999999997  0.37006  0.9759800000000002  1.0000
  H   H73       1.0  0.010139999999999998  0.3776900000000001  0.8677600000000002  1.0000
  H   H74       1.0  0.56633  0.32794000000000006  0.97237  1.0000
  H   H75       1.0  0.6699599999999998  0.3049900000000001  0.013970000000000002  1.0000
  H   H76       1.0  0.41650999999999994  0.23694  0.05488000000000001  1.0000
  H   H77       1.0  0.5223899999999999  0.27732  0.07784  1.0000
  H   H78       1.0  0.34239999999999987  0.27631  0.12121  1.0000
  H   H79       1.0  0.08717  0.38688  0.13013000000000002  1.0000
  H   H80       1.0  0.30265  0.38833  0.0016600000000000005  1.0000
  C   C1        1.0  0.03387  0.78691  0.8191300000000002  1.0000
  C   C2        1.0  0.09436  0.8119100000000002  0.86141  1.0000
  C   C3        1.0  0.1842  0.78652  0.88097  1.0000
  C   C4        1.0  0.24042999999999995  0.8069200000000002  0.9223400000000002  1.0000
  C   C5        1.0  0.20818999999999993  0.8531700000000001  0.9438200000000002  1.0000
  C   C6        1.0  0.11757999999999998  0.87846  0.9238300000000003  1.0000
  C   C7        1.0  0.060379999999999996  0.8582500000000001  0.88264  1.0000
  C   C8        1.0  0.07899999999999999  0.92595  0.9493100000000001  1.0000
  C   C9        1.0  0.38474  0.79474  0.9826800000000002  1.0000
  C   C10       1.0  0.52724  0.76776  0.04463000000000002  1.0000
  C   C11       1.0  0.66719  0.83029  0.058110000000000016  1.0000
  C   C12       1.0  0.6985999999999998  0.80902  0.10470000000000003  1.0000
  C   C13       1.0  0.78761  0.83  0.13045000000000004  1.0000
  C   C14       1.0  0.8430399999999998  0.8717000000000001  0.11034000000000002  1.0000
  C   C15       1.0  0.81  0.8928400000000002  0.06402  1.0000
  C   C16       1.0  0.7219399999999998  0.87249  0.03798000000000001  1.0000
  C   C17       1.0  0.83143  0.80615  0.17779  1.0000
  C   C18       1.0  0.8742099999999999  0.93494  0.04083  1.0000
  C   C19       1.0  0.96616  0.21310000000000007  0.31914000000000003  1.0000
  C   C20       1.0  0.90571  0.1881  0.36144  1.0000
  C   C21       1.0  0.81585  0.21349  0.381  1.0000
  C   C22       1.0  0.7596  0.19308  0.4223600000000001  1.0000
  C   C23       1.0  0.7918299999999998  0.14684  0.4438300000000001  1.0000
  C   C24       1.0  0.8824199999999998  0.12154  0.4238400000000001  1.0000
  C   C25       1.0  0.9396599999999998  0.14176  0.38267  1.0000
  C   C26       1.0  0.9209899999999999  0.07404  0.4493200000000001  1.0000
  C   C27       1.0  0.6152599999999999  0.20526  0.4826900000000001  1.0000
  C   C28       1.0  0.47270999999999996  0.23226  0.54463  1.0000
  C   C29       1.0  0.33274  0.16974  0.5580700000000001  1.0000
  C   C30       1.0  0.30149  0.19096000000000002  0.6046900000000001  1.0000
  C   C31       1.0  0.21258999999999995  0.16998  0.63048  1.0000
  C   C32       1.0  0.15701999999999997  0.12829  0.6103800000000001  1.0000
  C   C33       1.0  0.18995  0.10718  0.5640400000000001  1.0000
  C   C34       1.0  0.27796999999999994  0.12754  0.53796  1.0000
  C   C35       1.0  0.16922  0.19389  0.6778600000000002  1.0000
  C   C36       1.0  0.12571999999999997  0.0651  0.54083  1.0000
  C   C37       1.0  0.96619  0.28683  0.68087  1.0000
  C   C38       1.0  0.90567  0.31185000000000007  0.6385900000000001  1.0000
  C   C39       1.0  0.8159099999999998  0.28645  0.619  1.0000
  C   C40       1.0  0.75972  0.30685  0.5776100000000001  1.0000
  C   C41       1.0  0.79192  0.35311  0.55616  1.0000
  C   C42       1.0  0.8824099999999998  0.37843  0.57619  1.0000
  C   C43       1.0  0.9396399999999999  0.3582  0.61737  1.0000
  C   C44       1.0  0.9209999999999999  0.42592  0.5507000000000002  1.0000
  C   C45       1.0  0.6152899999999999  0.29465  0.51729  1.0000
  C   C46       1.0  0.47266999999999987  0.26763  0.4553500000000001  1.0000
  C   C47       1.0  0.3326099999999999  0.33015  0.4419000000000001  1.0000
  C   C48       1.0  0.30149  0.30898  0.39526  1.0000
  C   C49       1.0  0.21257  0.3299  0.36945000000000006  1.0000
  C   C50       1.0  0.15690999999999997  0.37161  0.3894900000000001  1.0000
  C   C51       1.0  0.18983999999999995  0.39275000000000004  0.43585  1.0000
  C   C52       1.0  0.27782  0.3723700000000001  0.4619600000000001  1.0000
  C   C53       1.0  0.16964  0.30568  0.32214  1.0000
  C   C54       1.0  0.12568999999999997  0.43486  0.4591000000000001  1.0000
  C   C55       1.0  0.03385  0.71316  0.1809  1.0000
  C   C56       1.0  0.09434999999999998  0.6881400000000002  0.13861000000000004  1.0000
  C   C57       1.0  0.18408999999999995  0.71355  0.11901000000000003  1.0000
  C   C58       1.0  0.24026  0.6931500000000003  0.07762000000000002  1.0000
  C   C59       1.0  0.20807999999999996  0.64689  0.05617  1.0000
  C   C60       1.0  0.11759  0.62157  0.07621  1.0000
  C   C61       1.0  0.060379999999999996  0.64179  0.11740000000000003  1.0000
  C   C62       1.0  0.07901  0.57407  0.05071000000000001  1.0000
  C   C63       1.0  0.38467  0.70535  0.0173  1.0000
  C   C64       1.0  0.5272999999999999  0.73233  0.9553700000000003  1.0000
  C   C65       1.0  0.6673  0.6698000000000001  0.9419000000000001  1.0000
  C   C66       1.0  0.69855  0.6910400000000001  0.8953000000000002  1.0000
  C   C67       1.0  0.78753  0.67013  0.86951  1.0000
  C   C68       1.0  0.8431499999999997  0.62841  0.8895600000000002  1.0000
  C   C69       1.0  0.8101599999999998  0.60724  0.93587  1.0000
  C   C70       1.0  0.7221199999999999  0.62759  0.9619700000000002  1.0000
  C   C71       1.0  0.8306199999999999  0.69423  0.8221800000000002  1.0000
  C   C72       1.0  0.87435  0.56515  0.9591100000000002  1.0000
  C   C73       1.0  0.96612  0.21309000000000006  0.18087  1.0000
  C   C74       1.0  0.90564  0.18809  0.13859  1.0000
  C   C75       1.0  0.81579  0.21348  0.11902000000000003  1.0000
  C   C76       1.0  0.7595699999999997  0.19308  0.07766  1.0000
  C   C77       1.0  0.79181  0.14684  0.056180000000000015  1.0000
  C   C78       1.0  0.8824199999999998  0.12155  0.07617000000000003  1.0000
  C   C79       1.0  0.9396199999999998  0.14176  0.11735  1.0000
  C   C80       1.0  0.9209999999999999  0.07405  0.05068000000000001  1.0000
  C   C81       1.0  0.6152599999999999  0.20527  0.01732  1.0000
  C   C82       1.0  0.4727599999999999  0.23225  0.9553700000000003  1.0000
  C   C83       1.0  0.33281  0.16971  0.9418900000000002  1.0000
  C   C84       1.0  0.30139999999999995  0.19098000000000004  0.8953000000000002  1.0000
  C   C85       1.0  0.21238999999999994  0.17000000000000004  0.8695400000000001  1.0000
  C   C86       1.0  0.15696  0.1283  0.8896600000000002  1.0000
  C   C87       1.0  0.19  0.10716  0.9359800000000003  1.0000
  C   C88       1.0  0.27806  0.12752  0.9620200000000002  1.0000
  C   C89       1.0  0.16856999999999994  0.19385  0.82221  1.0000
  C   C90       1.0  0.12578999999999999  0.06507  0.9591600000000002  1.0000
  C   C91       1.0  0.03384  0.7869  0.6808600000000001  1.0000
  C   C92       1.0  0.09429  0.8119  0.63856  1.0000
  C   C93       1.0  0.18415  0.78651  0.619  1.0000
  C   C94       1.0  0.24039  0.8069200000000002  0.57764  1.0000
  C   C95       1.0  0.20817  0.85316  0.55616  1.0000
  C   C96       1.0  0.11756999999999997  0.87846  0.5761600000000001  1.0000
  C   C97       1.0  0.060339999999999984  0.8582400000000001  0.61733  1.0000
  C   C98       1.0  0.07901  0.92596  0.55068  1.0000
  C   C99       1.0  0.38474  0.79474  0.5173  1.0000
  C   C100      1.0  0.52728  0.76775  0.4553700000000001  1.0000
  C   C101      1.0  0.66726  0.83027  0.44193000000000005  1.0000
  C   C102      1.0  0.69851  0.8090500000000003  0.39531  1.0000
  C   C103      1.0  0.7874099999999998  0.83002  0.36952  1.0000
  C   C104      1.0  0.8429799999999998  0.8717100000000001  0.3896100000000001  1.0000
  C   C105      1.0  0.8100499999999998  0.89282  0.43596  1.0000
  C   C106      1.0  0.72203  0.87246  0.4620300000000001  1.0000
  C   C107      1.0  0.8307799999999997  0.80611  0.32214  1.0000
  C   C108      1.0  0.87428  0.93491  0.4591600000000001  1.0000
  C   C109      1.0  0.03380999999999999  0.71317  0.3191200000000001  1.0000
  C   C110      1.0  0.09431999999999999  0.6881500000000002  0.3614000000000001  1.0000
  C   C111      1.0  0.18408  0.71355  0.381  1.0000
  C   C112      1.0  0.24026999999999996  0.6931500000000003  0.42238000000000003  1.0000
  C   C113      1.0  0.20807999999999996  0.6469  0.4438400000000001  1.0000
  C   C114      1.0  0.11757999999999998  0.62158  0.4238100000000001  1.0000
  C   C115      1.0  0.06035999999999999  0.64181  0.38263000000000014  1.0000
  C   C116      1.0  0.07899999999999999  0.57408  0.4493  1.0000
  C   C117      1.0  0.38471  0.70535  0.48270000000000013  1.0000
  C   C118      1.0  0.5273199999999999  0.73237  0.54464  1.0000
  C   C119      1.0  0.6673899999999999  0.6698500000000001  0.5581000000000002  1.0000
  C   C120      1.0  0.6984999999999999  0.6910200000000002  0.6047400000000002  1.0000
  C   C121      1.0  0.78742  0.6701  0.63055  1.0000
  C   C122      1.0  0.8430799999999998  0.62839  0.6105000000000002  1.0000
  C   C123      1.0  0.81015  0.60725  0.5641500000000002  1.0000
  C   C124      1.0  0.72218  0.62763  0.53803  1.0000
  C   C125      1.0  0.8303599999999998  0.69432  0.6778600000000002  1.0000
  C   C126      1.0  0.8743099999999999  0.56514  0.54089  1.0000
  C   C127      1.0  0.96615  0.28685  0.8191000000000002  1.0000
  C   C128      1.0  0.9056499999999997  0.3118600000000001  0.8613900000000001  1.0000
  C   C129      1.0  0.8158999999999997  0.28646  0.8809900000000003  1.0000
  C   C130      1.0  0.7597399999999997  0.30685  0.92238  1.0000
  C   C131      1.0  0.79192  0.35312  0.9438300000000001  1.0000
  C   C132      1.0  0.8824099999999998  0.37844  0.92379  1.0000
  C   C133      1.0  0.9396199999999998  0.35821  0.8826000000000002  1.0000
  C   C134      1.0  0.9209899999999999  0.42594  0.94928  1.0000
  C   C135      1.0  0.6153299999999999  0.29466  0.9827000000000002  1.0000
  C   C136      1.0  0.4726999999999999  0.26767  0.04463000000000002  1.0000
  C   C137      1.0  0.33269  0.3302  0.0581  1.0000
  C   C138      1.0  0.30145  0.3089600000000001  0.10470000000000003  1.0000
  C   C139      1.0  0.21246999999999996  0.32987  0.13048000000000004  1.0000
  C   C140      1.0  0.15684999999999996  0.37159  0.11044  1.0000
  C   C141      1.0  0.18983999999999995  0.39276000000000005  0.06412  1.0000
  C   C142      1.0  0.27788  0.3724100000000001  0.03803000000000001  1.0000
  C   C143      1.0  0.16937999999999995  0.30577  0.17781000000000005  1.0000
  C   C144      1.0  0.12565  0.43485  0.040880000000000014  1.0000
  C   C145      1.0  0.45625  0.7500400000000002  0.0  1.0000
  C   C146      1.0  0.54372  0.24996  0.5  1.0000
  C   C147      1.0  0.54374  0.24996  0.0  1.0000
  C   C148      1.0  0.4562799999999999  0.7500400000000002  0.5  1.0000
  O   O1        1.0  0.9471999999999999  0.80806  0.80318  1.0000
  O   O2        1.0  0.07393999999999999  0.7449700000000001  0.80277  1.0000
  O   O3        1.0  0.9991699999999999  0.94916  0.9290000000000003  1.0000
  O   O4        1.0  0.1272  0.9391900000000001  0.9903900000000002  1.0000
  O   O5        1.0  0.32454  0.7775700000000001  0.9392000000000003  1.0000
  O   O6        1.0  0.5853799999999999  0.8122400000000002  0.027920000000000004  1.0000
  O   O7        1.0  0.78722  0.76529  0.19455000000000006  1.0000
  O   O8        1.0  0.914  0.8281900000000002  0.19705000000000006  1.0000
  O   O9        1.0  0.9629299999999997  0.94641  0.06297000000000001  1.0000
  O   O10       1.0  0.83701  0.95542  0.00022000000000000006  1.0000
  O   O11       1.0  0.05285999999999998  0.19196  0.3032  1.0000
  O   O12       1.0  0.92602  0.25501  0.3027500000000001  1.0000
  O   O13       1.0  0.00079  0.05083  0.429  1.0000
  O   O14       1.0  0.8727999999999998  0.06082  0.4904000000000001  1.0000
  O   O15       1.0  0.6755099999999999  0.22244  0.4392300000000001  1.0000
  O   O16       1.0  0.41436  0.18787  0.52784  1.0000
  O   O17       1.0  0.21403999999999998  0.23461000000000007  0.69467  1.0000
  O   O18       1.0  0.08644  0.17199000000000006  0.69708  1.0000
  O   O19       1.0  0.03699999999999999  0.053620000000000015  0.5629700000000001  1.0000
  O   O20       1.0  0.16293  0.04461  0.50022  1.0000
  O   O21       1.0  0.052709999999999986  0.30811  0.69679  1.0000
  O   O22       1.0  0.9263899999999998  0.24485000000000004  0.6972700000000001  1.0000
  O   O23       1.0  0.0008  0.44912000000000013  0.5710200000000001  1.0000
  O   O24       1.0  0.8728099999999999  0.43923  0.50963  1.0000
  O   O25       1.0  0.6757099999999998  0.27748  0.5607100000000003  1.0000
  O   O26       1.0  0.4139999999999999  0.31189000000000006  0.47219000000000005  1.0000
  O   O27       1.0  0.21588  0.26533  0.30521  1.0000
  O   O28       1.0  0.08596  0.32695  0.3030900000000001  1.0000
  O   O29       1.0  0.03711999999999999  0.4465700000000001  0.43695000000000006  1.0000
  O   O30       1.0  0.16282999999999995  0.45513  0.49984000000000006  1.0000
  O   O31       1.0  0.9473899999999997  0.69186  0.19684000000000001  1.0000
  O   O32       1.0  0.07361999999999998  0.7551600000000003  0.19726000000000005  1.0000
  O   O33       1.0  0.9992099999999999  0.55087  0.07103  1.0000
  O   O34       1.0  0.1272  0.56077  0.009640000000000003  1.0000
  O   O35       1.0  0.3242499999999999  0.72253  0.060710000000000014  1.0000
  O   O36       1.0  0.5857  0.68795  0.9721400000000002  1.0000
  O   O37       1.0  0.78471  0.73468  0.8052900000000002  1.0000
  O   O38       1.0  0.9139199999999998  0.6727  0.8030400000000001  1.0000
  O   O39       1.0  0.96292  0.55346  0.9369600000000002  1.0000
  O   O40       1.0  0.8372199999999997  0.54488  0.99984  1.0000
  O   O41       1.0  0.05279999999999999  0.19194  0.19682  1.0000
  O   O42       1.0  0.9260499999999999  0.25503  0.19722  1.0000
  O   O43       1.0  0.00082  0.05084  0.071  1.0000
  O   O44       1.0  0.8727999999999998  0.06082  0.0096  1.0000
  O   O45       1.0  0.6754599999999997  0.22243  0.06079000000000001  1.0000
  O   O46       1.0  0.41462  0.18776  0.9720800000000003  1.0000
  O   O47       1.0  0.21278  0.23471000000000003  0.8054500000000002  1.0000
  O   O48       1.0  0.08599999999999997  0.17182  0.80294  1.0000
  O   O49       1.0  0.03707  0.05359  0.9370200000000002  1.0000
  O   O50       1.0  0.16299  0.04458  0.9997800000000001  1.0000
  O   O51       1.0  0.9471399999999998  0.80804  0.6968000000000002  1.0000
  O   O52       1.0  0.07397  0.7449900000000002  0.6972500000000001  1.0000
  O   O53       1.0  0.9992099999999999  0.9491800000000002  0.5710000000000002  1.0000
  O   O54       1.0  0.1272  0.9391900000000001  0.5096000000000002  1.0000
  O   O55       1.0  0.3244899999999999  0.77756  0.56077  1.0000
  O   O56       1.0  0.58564  0.8121300000000001  0.47216000000000014  1.0000
  O   O57       1.0  0.78596  0.76539  0.30532000000000004  1.0000
  O   O58       1.0  0.9135599999999998  0.8280100000000002  0.30292  1.0000
  O   O59       1.0  0.9629999999999997  0.94638  0.43703  1.0000
  O   O60       1.0  0.83707  0.9554000000000001  0.4997700000000001  1.0000
  O   O61       1.0  0.9472899999999997  0.6919  0.30321  1.0000
  O   O62       1.0  0.07360999999999998  0.75515  0.30273  1.0000
  O   O63       1.0  0.9991999999999999  0.55088  0.42898000000000003  1.0000
  O   O64       1.0  0.12719  0.56078  0.4903700000000001  1.0000
  O   O65       1.0  0.32428999999999997  0.72252  0.4392800000000001  1.0000
  O   O66       1.0  0.5859899999999999  0.6881100000000002  0.52781  1.0000
  O   O67       1.0  0.78412  0.73467  0.6947800000000002  1.0000
  O   O68       1.0  0.91404  0.67305  0.69691  1.0000
  O   O69       1.0  0.96288  0.55343  0.56305  1.0000
  O   O70       1.0  0.8371599999999998  0.54488  0.50016  1.0000
  O   O71       1.0  0.05260999999999999  0.30814  0.8031600000000001  1.0000
  O   O72       1.0  0.9263799999999998  0.24484000000000003  0.8027400000000002  1.0000
  O   O73       1.0  0.00079  0.4491300000000001  0.92896  1.0000
  O   O74       1.0  0.8727999999999998  0.43923  0.99036  1.0000
  O   O75       1.0  0.6757499999999999  0.27748  0.9392800000000001  1.0000
  O   O76       1.0  0.4142899999999999  0.31205  0.027850000000000003  1.0000
  O   O77       1.0  0.21528999999999995  0.26532  0.1947  1.0000
  O   O78       1.0  0.08607999999999999  0.32731  0.19696000000000002  1.0000
  O   O79       1.0  0.03708  0.4465400000000001  0.06304000000000001  1.0000
  O   O80       1.0  0.16277999999999998  0.45513  0.00015  1.0000
