data_image0
_chemical_formula_structural       Cd6H80C132N4O24
_chemical_formula_sum              "Cd6 H80 C132 N4 O24"
_cell_length_a       15.90072
_cell_length_b       17.46247
_cell_length_c       17.62768
_cell_angle_alpha    91.06363000000002
_cell_angle_beta     74.61782
_cell_angle_gamma    63.15247

_symmetry_space_group_name_H-M    'P 1'
_symmetry_Int_Tables_number       1

loop_
  _symmetry_equiv_pos_as_xyz
  'x,y,z'

loop_
  _atom_site_type_symbol
  _atom_site_label
  _atom_site_symmetry_multiplicity
  _atom_site_fract_x
  _atom_site_fract_y
  _atom_site_fract_z
  _atom_site_occupancy
  Cd  Cd1       1.0  0.6849899999999998  0.6153199999999998  0.43946  1.0000
  Cd  Cd2       1.0  0.7625700000000001  0.72018  0.26126  1.0000
  Cd  Cd3       1.0  0.8447499999999996  0.82011  0.07858  1.0000
  Cd  Cd4       1.0  0.3150099999999999  0.38468  0.5605500000000002  1.0000
  Cd  Cd5       1.0  0.2374399999999999  0.27982  0.7387500000000002  1.0000
  Cd  Cd6       1.0  0.15524999999999994  0.17989  0.92143  1.0000
  H   H1        1.0  0.5552  0.52861  0.52113  1.0000
  H   H2        1.0  0.4175599999999998  0.55182  0.64256  1.0000
  H   H3        1.0  0.40849  0.79463  0.7152  1.0000
  H   H4        1.0  0.5468599999999996  0.76053  0.58935  1.0000
  H   H5        1.0  0.29642  0.75934  0.79961  1.0000
  H   H6        1.0  0.2808399999999998  0.59902  0.7436300000000002  1.0000
  H   H7        1.0  0.1636799999999999  0.57212  0.8509200000000002  1.0000
  H   H8        1.0  0.006260000000000008  0.63577  0.9647600000000001  1.0000
  H   H9        1.0  0.9968299999999993  0.8764199999999998  0.98168  1.0000
  H   H10       1.0  0.15002000000000004  0.8253399999999999  0.8674300000000003  1.0000
  H   H11       1.0  0.9419699999999999  0.6849099999999998  0.341  1.0000
  H   H12       1.0  0.03605999999999993  0.7678  0.32164000000000004  1.0000
  H   H13       1.0  0.79281  0.9783099999999998  0.4994100000000001  1.0000
  H   H14       1.0  0.6990399999999999  0.8945899999999998  0.5180700000000003  1.0000
  H   H15       1.0  0.11907000000000009  0.8133299999999998  0.38328  1.0000
  H   H16       1.0  0.12414999999999995  0.05756000000000002  0.3893100000000001  1.0000
  H   H17       1.0  0.8498399999999998  0.05250999999999999  0.4208200000000001  1.0000
  H   H18       1.0  0.23953999999999995  0.78234  0.4409300000000001  1.0000
  H   H19       1.0  0.42071  0.70742  0.42116  1.0000
  H   H20       1.0  0.45102999999999993  0.90405  0.2918000000000001  1.0000
  H   H21       1.0  0.27133000000000007  0.9763999999999998  0.30617  1.0000
  H   H22       1.0  0.024169999999999983  0.18431000000000003  0.46687000000000006  1.0000
  H   H23       1.0  0.9353  0.34502  0.47635  1.0000
  H   H24       1.0  0.7289599999999998  0.32474  0.37412  1.0000
  H   H25       1.0  0.8194199999999997  0.16397999999999993  0.35902  1.0000
  H   H26       1.0  0.8242499999999998  0.55133  0.99162  1.0000
  H   H27       1.0  0.73539  0.46435  0.003520000000000001  1.0000
  H   H28       1.0  0.49460000000000004  0.6597299999999999  0.19513000000000005  1.0000
  H   H29       1.0  0.5853299999999997  0.7450199999999998  0.18336000000000002  1.0000
  H   H30       1.0  0.6791  0.38166  0.08036  1.0000
  H   H31       1.0  0.40381999999999996  0.37980999999999987  0.10606000000000003  1.0000
  H   H32       1.0  0.4101100000000002  0.6227399999999996  0.13089  1.0000
  H   H33       1.0  0.7378299999999999  0.25442  0.00812  1.0000
  H   H34       1.0  0.82578  0.09482999999999997  0.00724  1.0000
  H   H35       1.0  0.56164  0.10768999999999997  0.16456000000000007  1.0000
  H   H36       1.0  0.47272  0.26797999999999994  0.16858  1.0000
  H   H37       1.0  0.26069999999999993  0.45077  0.18954  1.0000
  H   H38       1.0  0.08047999999999997  0.52393  0.20907  1.0000
  H   H39       1.0  0.09661  0.74475  0.11806  1.0000
  H   H40       1.0  0.27873000000000003  0.67007  0.09404  1.0000
  H   H41       1.0  0.4448000000000001  0.47138999999999986  0.4788700000000001  1.0000
  H   H42       1.0  0.5824400000000001  0.4481899999999999  0.35744  1.0000
  H   H43       1.0  0.59151  0.20536999999999997  0.2848100000000001  1.0000
  H   H44       1.0  0.45314000000000004  0.23946999999999993  0.41065000000000007  1.0000
  H   H45       1.0  0.70359  0.24065999999999996  0.20039  1.0000
  H   H46       1.0  0.7191599999999999  0.40098  0.25637  1.0000
  H   H47       1.0  0.8363299999999999  0.42788  0.14908000000000005  1.0000
  H   H48       1.0  0.9937399999999998  0.3642299999999999  0.03524  1.0000
  H   H49       1.0  0.0031700000000000053  0.12357999999999997  0.01832  1.0000
  H   H50       1.0  0.84998  0.17466  0.13257  1.0000
  H   H51       1.0  0.05802999999999997  0.31508999999999987  0.6590100000000002  1.0000
  H   H52       1.0  0.9639400000000001  0.23219999999999996  0.6783600000000002  1.0000
  H   H53       1.0  0.20718999999999999  0.021690000000000004  0.50059  1.0000
  H   H54       1.0  0.30096  0.10541999999999999  0.4819300000000001  1.0000
  H   H55       1.0  0.8809300000000001  0.18667  0.61672  1.0000
  H   H56       1.0  0.87586  0.94244  0.61069  1.0000
  H   H57       1.0  0.15015999999999988  0.9474900000000002  0.5791800000000003  1.0000
  H   H58       1.0  0.76046  0.21766  0.5590700000000002  1.0000
  H   H59       1.0  0.5792899999999997  0.29258  0.57885  1.0000
  H   H60       1.0  0.54897  0.09595  0.70821  1.0000
  H   H61       1.0  0.7286799999999997  0.02360000000000003  0.6938300000000002  1.0000
  H   H62       1.0  0.9758299999999998  0.8156899999999999  0.53314  1.0000
  H   H63       1.0  0.06470000000000005  0.65498  0.52365  1.0000
  H   H64       1.0  0.2710400000000001  0.6752599999999997  0.62588  1.0000
  H   H65       1.0  0.18058000000000002  0.8360299999999998  0.64098  1.0000
  H   H66       1.0  0.17574999999999988  0.44867  0.00839  1.0000
  H   H67       1.0  0.2646199999999998  0.53565  0.99648  1.0000
  H   H68       1.0  0.5053999999999997  0.34027  0.8048700000000002  1.0000
  H   H69       1.0  0.41467999999999977  0.25498  0.8166400000000003  1.0000
  H   H70       1.0  0.3208999999999999  0.61835  0.91964  1.0000
  H   H71       1.0  0.5961799999999996  0.62019  0.89394  1.0000
  H   H72       1.0  0.5898899999999997  0.3772599999999999  0.86911  1.0000
  H   H73       1.0  0.26218000000000025  0.7455799999999998  0.99188  1.0000
  H   H74       1.0  0.17422000000000012  0.9051699999999998  0.99276  1.0000
  H   H75       1.0  0.43836000000000014  0.8923099999999997  0.83544  1.0000
  H   H76       1.0  0.5272800000000001  0.7320199999999998  0.83143  1.0000
  H   H77       1.0  0.7393  0.5492299999999998  0.8104700000000002  1.0000
  H   H78       1.0  0.91952  0.47607000000000005  0.7909300000000002  1.0000
  H   H79       1.0  0.9033899999999997  0.25525  0.88194  1.0000
  H   H80       1.0  0.7212699999999999  0.32993  0.90596  1.0000
  C   C1        1.0  0.5199300000000001  0.5864699999999998  0.56616  1.0000
  C   C2        1.0  0.44428  0.59951  0.63458  1.0000
  C   C3        1.0  0.40103999999999984  0.67605  0.69037  1.0000
  C   C4        1.0  0.43916000000000005  0.7348099999999997  0.67379  1.0000
  C   C5        1.0  0.5151700000000001  0.7169599999999998  0.60409  1.0000
  C   C6        1.0  0.31665999999999983  0.70035  0.761  1.0000
  C   C7        1.0  0.26109999999999983  0.65923  0.7803400000000003  1.0000
  C   C8        1.0  0.17172999999999985  0.6930800000000001  0.84874  1.0000
  C   C9        1.0  0.12919000000000008  0.63995  0.878  1.0000
  C   C10       1.0  0.04241000000000001  0.67441  0.9419900000000002  1.0000
  C   C11       1.0  0.03717000000000004  0.80937  0.95138  1.0000
  C   C12       1.0  0.12290999999999999  0.77986  0.88761  1.0000
  C   C13       1.0  0.7592099999999999  0.7339699999999998  0.4406  1.0000
  C   C14       1.0  0.8143299999999999  0.78483  0.4300400000000001  1.0000
  C   C15       1.0  0.9097300000000001  0.7494599999999999  0.3750400000000001  1.0000
  C   C16       1.0  0.9626799999999999  0.79577  0.3651  1.0000
  C   C17       1.0  0.9213499999999996  0.87902  0.4094300000000001  1.0000
  C   C18       1.0  0.82515  0.91443  0.46394  1.0000
  C   C19       1.0  0.77252  0.8677300000000001  0.4749200000000001  1.0000
  C   C20       1.0  0.9783299999999998  0.9273899999999998  0.40133000000000013  1.0000
  C   C21       1.0  0.08104000000000013  0.8837599999999998  0.38835  1.0000
  C   C22       1.0  0.13455999999999993  0.92995  0.38452  1.0000
  C   C23       1.0  0.08373  0.020919999999999984  0.39201  1.0000
  C   C24       1.0  0.9813899999999997  0.06602  0.4043  1.0000
  C   C25       1.0  0.9295900000000001  0.01829  0.40948  1.0000
  C   C26       1.0  0.24196000000000012  0.88487  0.37449  1.0000
  C   C27       1.0  0.28561000000000003  0.8084199999999998  0.40676  1.0000
  C   C28       1.0  0.3869199999999998  0.76681  0.39683  1.0000
  C   C29       1.0  0.44699999999999995  0.80132  0.35567000000000004  1.0000
  C   C30       1.0  0.40395000000000003  0.8781299999999997  0.32436  1.0000
  C   C31       1.0  0.30316  0.91866  0.33311  1.0000
  C   C32       1.0  0.5560899999999999  0.7554100000000001  0.3422500000000001  1.0000
  C   C33       1.0  0.9285799999999996  0.16174  0.4120900000000001  1.0000
  C   C34       1.0  0.9605499999999996  0.21412000000000003  0.4449700000000001  1.0000
  C   C35       1.0  0.91085  0.30429999999999996  0.45112  1.0000
  C   C36       1.0  0.8273700000000002  0.34446  0.42477  1.0000
  C   C37       1.0  0.79418  0.29292  0.39339000000000013  1.0000
  C   C38       1.0  0.84428  0.20292999999999994  0.38642  1.0000
  C   C39       1.0  0.7751999999999998  0.4405799999999999  0.42838  1.0000
  C   C40       1.0  0.7628099999999999  0.70688  0.08018  1.0000
  C   C41       1.0  0.7107900000000001  0.6534899999999998  0.08727000000000003  1.0000
  C   C42       1.0  0.7526700000000001  0.57407  0.03657  1.0000
  C   C43       1.0  0.7023200000000002  0.5255399999999998  0.04342  1.0000
  C   C44       1.0  0.6075000000000002  0.55637  0.09897  1.0000
  C   C45       1.0  0.5663899999999997  0.63576  0.14997000000000005  1.0000
  C   C46       1.0  0.61761  0.68338  0.14439000000000005  1.0000
  C   C47       1.0  0.5513099999999999  0.50756  0.10228  1.0000
  C   C48       1.0  0.59978  0.4163399999999999  0.08979000000000002  1.0000
  C   C49       1.0  0.5469499999999998  0.36943  0.09416000000000002  1.0000
  C   C50       1.0  0.4441800000000001  0.41571999999999987  0.10819  1.0000
  C   C51       1.0  0.39309  0.50712  0.12249000000000002  1.0000
  C   C52       1.0  0.44792  0.55204  0.11959  1.0000
  C   C53       1.0  0.59814  0.27357  0.08810000000000001  1.0000
  C   C54       1.0  0.69829  0.22316  0.04265  1.0000
  C   C55       1.0  0.7483  0.13383  0.04204000000000001  1.0000
  C   C56       1.0  0.69953  0.09173000000000002  0.08643000000000003  1.0000
  C   C57       1.0  0.59909  0.14085  0.1305  1.0000
  C   C58       1.0  0.5494199999999997  0.23037  0.13149000000000005  1.0000
  C   C59       1.0  0.7545299999999999  0.99583  0.08581000000000003  1.0000
  C   C60       1.0  0.28425  0.55401  0.13908000000000004  1.0000
  C   C61       1.0  0.22598  0.51434  0.17201  1.0000
  C   C62       1.0  0.12449000000000003  0.55538  0.18363000000000004  1.0000
  C   C63       1.0  0.07690000000000001  0.6388  0.16412  1.0000
  C   C64       1.0  0.1337299999999999  0.67992  0.1327  1.0000
  C   C65       1.0  0.23563999999999993  0.63805  0.12029000000000001  1.0000
  C   C66       1.0  0.9669400000000001  0.6841899999999997  0.18091000000000004  1.0000
  C   C67       1.0  0.48006999999999994  0.41353  0.43384  1.0000
  C   C68       1.0  0.55572  0.40049  0.36542  1.0000
  C   C69       1.0  0.59896  0.32395  0.30963  1.0000
  C   C70       1.0  0.5608399999999998  0.26519  0.32621  1.0000
  C   C71       1.0  0.48483  0.28304  0.39591  1.0000
  C   C72       1.0  0.6833400000000001  0.29965  0.239  1.0000
  C   C73       1.0  0.7389  0.34077  0.21966  1.0000
  C   C74       1.0  0.8282699999999996  0.30692  0.15126  1.0000
  C   C75       1.0  0.8708100000000001  0.36004999999999987  0.12200000000000001  1.0000
  C   C76       1.0  0.95759  0.3255899999999999  0.05801  1.0000
  C   C77       1.0  0.9628400000000001  0.19063  0.04862  1.0000
  C   C78       1.0  0.8770899999999999  0.22013999999999995  0.1124  1.0000
  C   C79       1.0  0.24078999999999998  0.26603  0.5594  1.0000
  C   C80       1.0  0.18567000000000003  0.21516999999999994  0.56996  1.0000
  C   C81       1.0  0.0902699999999999  0.25055  0.6249600000000002  1.0000
  C   C82       1.0  0.03731999999999998  0.20423  0.6349  1.0000
  C   C83       1.0  0.07866000000000001  0.12097999999999998  0.59057  1.0000
  C   C84       1.0  0.17484999999999992  0.08558000000000003  0.5360600000000002  1.0000
  C   C85       1.0  0.2274799999999999  0.13227  0.52509  1.0000
  C   C86       1.0  0.021670000000000012  0.07261  0.59868  1.0000
  C   C87       1.0  0.9189599999999997  0.11624000000000001  0.6116500000000002  1.0000
  C   C88       1.0  0.86544  0.07005  0.61548  1.0000
  C   C89       1.0  0.9162699999999998  0.9790800000000001  0.6080000000000002  1.0000
  C   C90       1.0  0.018610000000000033  0.93398  0.5957  1.0000
  C   C91       1.0  0.07041999999999993  0.98171  0.59052  1.0000
  C   C92       1.0  0.7580399999999999  0.11512999999999998  0.62551  1.0000
  C   C93       1.0  0.71439  0.19157999999999994  0.59324  1.0000
  C   C94       1.0  0.6130900000000001  0.23318999999999995  0.60317  1.0000
  C   C95       1.0  0.553  0.19868  0.64433  1.0000
  C   C96       1.0  0.5960500000000001  0.12186999999999998  0.67564  1.0000
  C   C97       1.0  0.69684  0.08133999999999998  0.66689  1.0000
  C   C98       1.0  0.44391  0.24460000000000004  0.6577500000000002  1.0000
  C   C99       1.0  0.07142  0.83826  0.58791  1.0000
  C   C100      1.0  0.0394500000000001  0.7858799999999998  0.55503  1.0000
  C   C101      1.0  0.08915000000000009  0.6956999999999998  0.54888  1.0000
  C   C102      1.0  0.17262999999999995  0.65554  0.57523  1.0000
  C   C103      1.0  0.2058200000000001  0.70708  0.60662  1.0000
  C   C104      1.0  0.15571999999999997  0.7970699999999997  0.61358  1.0000
  C   C105      1.0  0.22479999999999983  0.55942  0.57162  1.0000
  C   C106      1.0  0.23718999999999985  0.29312  0.91982  1.0000
  C   C107      1.0  0.28922  0.3465099999999999  0.91273  1.0000
  C   C108      1.0  0.24734000000000012  0.42592999999999975  0.96344  1.0000
  C   C109      1.0  0.29768999999999984  0.47447  0.9565800000000001  1.0000
  C   C110      1.0  0.3925  0.44363  0.9010300000000002  1.0000
  C   C111      1.0  0.43361999999999995  0.36424  0.8500300000000001  1.0000
  C   C112      1.0  0.38239999999999985  0.31662  0.8556200000000003  1.0000
  C   C113      1.0  0.4486899999999998  0.4924399999999999  0.89772  1.0000
  C   C114      1.0  0.40021999999999985  0.58366  0.91021  1.0000
  C   C115      1.0  0.45304999999999984  0.63057  0.90584  1.0000
  C   C116      1.0  0.5558199999999996  0.58428  0.89181  1.0000
  C   C117      1.0  0.6069100000000001  0.49287999999999976  0.87751  1.0000
  C   C118      1.0  0.5520899999999995  0.4479599999999999  0.88041  1.0000
  C   C119      1.0  0.40186  0.72643  0.9119000000000003  1.0000
  C   C120      1.0  0.30170999999999976  0.77684  0.95736  1.0000
  C   C121      1.0  0.2517099999999998  0.86617  0.95796  1.0000
  C   C122      1.0  0.3004699999999998  0.9082700000000001  0.9135800000000002  1.0000
  C   C123      1.0  0.40091999999999994  0.8591499999999997  0.8695000000000003  1.0000
  C   C124      1.0  0.45057999999999954  0.76963  0.8685100000000002  1.0000
  C   C125      1.0  0.24548  0.00418000000000002  0.91419  1.0000
  C   C126      1.0  0.71575  0.4459999999999999  0.86092  1.0000
  C   C127      1.0  0.77402  0.48566000000000004  0.82799  1.0000
  C   C128      1.0  0.8755199999999996  0.44462  0.8163700000000003  1.0000
  C   C129      1.0  0.9231000000000001  0.3612  0.83588  1.0000
  C   C130      1.0  0.8662699999999995  0.32008000000000003  0.8673000000000002  1.0000
  C   C131      1.0  0.7643699999999999  0.36195  0.87971  1.0000
  C   C132      1.0  0.03305999999999996  0.31582  0.8190900000000001  1.0000
  N   N1        1.0  0.55485  0.6441099999999997  0.55066  1.0000
  N   N2        1.0  0.99642  0.7578899999999998  0.97822  1.0000
  N   N3        1.0  0.4451599999999999  0.35589999999999994  0.44934000000000013  1.0000
  N   N4        1.0  0.0035800000000000016  0.24211  0.02178  1.0000
  O   O1        1.0  0.7846199999999999  0.67456  0.3799  1.0000
  O   O2        1.0  0.69306  0.74551  0.5039  1.0000
  O   O3        1.0  0.6022599999999997  0.7992899999999997  0.31809  1.0000
  O   O4        1.0  0.5968799999999999  0.67628  0.35193  1.0000
  O   O5        1.0  0.70204  0.47473000000000004  0.40000000000000013  1.0000
  O   O6        1.0  0.8051299999999997  0.4864499999999999  0.4593800000000001  1.0000
  O   O7        1.0  0.7397799999999998  0.7620399999999998  0.14284  1.0000
  O   O8        1.0  0.8250400000000001  0.70093  0.015740000000000007  1.0000
  O   O9        1.0  0.8484699999999996  0.95626  0.05447  1.0000
  O   O10       1.0  0.7056699999999997  0.95641  0.1162  1.0000
  O   O11       1.0  0.9227799999999996  0.63845  0.20397000000000007  1.0000
  O   O12       1.0  0.92274  0.76444  0.17529  1.0000
  O   O13       1.0  0.21538000000000002  0.32545  0.6201  1.0000
  O   O14       1.0  0.30694000000000005  0.25449  0.49610000000000004  1.0000
  O   O15       1.0  0.39774999999999977  0.20071  0.68191  1.0000
  O   O16       1.0  0.4031199999999998  0.32372  0.64807  1.0000
  O   O17       1.0  0.29795999999999995  0.52527  0.6  1.0000
  O   O18       1.0  0.1948699999999999  0.51355  0.5406200000000002  1.0000
  O   O19       1.0  0.2602199999999999  0.23795999999999998  0.85716  1.0000
  O   O20       1.0  0.17496000000000006  0.2990699999999999  0.98426  1.0000
  O   O21       1.0  0.15153999999999992  0.04375000000000004  0.9455400000000003  1.0000
  O   O22       1.0  0.2943399999999998  0.04359000000000003  0.8838000000000003  1.0000
  O   O23       1.0  0.07721999999999996  0.36156  0.7960300000000002  1.0000
  O   O24       1.0  0.07726000000000002  0.23557  0.82471  1.0000
