data_image0
_chemical_formula_structural       Eu8H48C120N8O64
_chemical_formula_sum              "Eu8 H48 C120 N8 O64"
_cell_length_a       13.20893
_cell_length_b       13.94447
_cell_length_c       27.74693
_cell_angle_alpha    89.94125000000001
_cell_angle_beta     89.99266
_cell_angle_gamma    89.98904

_space_group_name_H-M_alt    "P 1"
_space_group_IT_number       1

loop_
  _space_group_symop_operation_xyz
  'x, y, z'

loop_
  _atom_site_type_symbol
  _atom_site_label
  _atom_site_symmetry_multiplicity
  _atom_site_fract_x
  _atom_site_fract_y
  _atom_site_fract_z
  _atom_site_occupancy
  Eu  Eu1       1.0  0.56352  0.46519  0.93606  1.0000
  Eu  Eu2       1.0  0.9365500000000002  0.03477  0.43584  1.0000
  Eu  Eu3       1.0  0.43702  0.46634  0.56374  1.0000
  Eu  Eu4       1.0  0.06308000000000001  0.03474  0.06498  1.0000
  Eu  Eu5       1.0  0.43635000000000007  0.53473  0.06421  1.0000
  Eu  Eu6       1.0  0.0632  0.9657  0.56362  1.0000
  Eu  Eu7       1.0  0.5637700000000001  0.53511  0.43592  1.0000
  Eu  Eu8       1.0  0.9372500000000002  0.96555  0.93632  1.0000
  H   H1        1.0  0.66364  0.83847  0.71815  1.0000
  H   H2        1.0  0.6658600000000002  0.53111  0.69996  1.0000
  H   H3        1.0  0.64172  0.51139  0.78848  1.0000
  H   H4        1.0  0.82127  0.80014  0.6724400000000003  1.0000
  H   H5        1.0  0.8129700000000002  0.72239  0.5227  1.0000
  H   H6        1.0  0.5970300000000002  0.59916  0.62151  1.0000
  H   H7        1.0  0.8339200000000002  0.66014  0.21932  1.0000
  H   H8        1.0  0.8357900000000003  0.96731  0.19982  1.0000
  H   H9        1.0  0.8572900000000002  0.98803  0.28841000000000006  1.0000
  H   H10       1.0  0.6779700000000002  0.6989  0.17269000000000004  1.0000
  H   H11       1.0  0.6891200000000002  0.77556  0.02275  1.0000
  H   H12       1.0  0.9042400000000002  0.89822  0.12183  1.0000
  H   H13       1.0  0.3361300000000001  0.8402600000000001  0.7811700000000001  1.0000
  H   H14       1.0  0.33571  0.53289  0.79998  1.0000
  H   H15       1.0  0.35882000000000003  0.51293  0.71147  1.0000
  H   H16       1.0  0.17962  0.8022000000000001  0.82763  1.0000
  H   H17       1.0  0.18623000000000006  0.72068  0.97696  1.0000
  H   H18       1.0  0.40346000000000004  0.59996  0.87819  1.0000
  H   H19       1.0  0.16529  0.65986  0.28118  1.0000
  H   H20       1.0  0.16361000000000006  0.96718  0.30022  1.0000
  H   H21       1.0  0.1428  0.9877600000000002  0.21153000000000002  1.0000
  H   H22       1.0  0.32113  0.69839  0.3276  1.0000
  H   H23       1.0  0.31291  0.77772  0.47714000000000006  1.0000
  H   H24       1.0  0.09622000000000003  0.89927  0.37833000000000006  1.0000
  H   H25       1.0  0.3362200000000001  0.16144  0.28195  1.0000
  H   H26       1.0  0.3343900000000001  0.46882  0.30012  1.0000
  H   H27       1.0  0.35824  0.48851  0.21157  1.0000
  H   H28       1.0  0.17931000000000005  0.19918000000000002  0.32784  1.0000
  H   H29       1.0  0.18628000000000006  0.27893  0.47735  1.0000
  H   H30       1.0  0.40254  0.4014  0.37857  1.0000
  H   H31       1.0  0.16678  0.33782  0.78171  1.0000
  H   H32       1.0  0.16332000000000005  0.03057  0.80078  1.0000
  H   H33       1.0  0.14106000000000002  0.010659999999999998  0.71224  1.0000
  H   H34       1.0  0.3216400000000001  0.29899000000000003  0.82778  1.0000
  H   H35       1.0  0.31131000000000003  0.22454  0.97802  1.0000
  H   H36       1.0  0.09606000000000003  0.09992  0.8795200000000002  1.0000
  H   H37       1.0  0.66409  0.16031  0.21919000000000005  1.0000
  H   H38       1.0  0.6641900000000001  0.46759  0.20066  1.0000
  H   H39       1.0  0.6415  0.48731  0.28915  1.0000
  H   H40       1.0  0.8204600000000002  0.19846  0.17283  1.0000
  H   H41       1.0  0.8135600000000001  0.279  0.02333  1.0000
  H   H42       1.0  0.59639  0.40015  0.12202  1.0000
  H   H43       1.0  0.83424  0.33822  0.71814  1.0000
  H   H44       1.0  0.83677  0.03086  0.69948  1.0000
  H   H45       1.0  0.8587700000000001  0.01107  0.78811  1.0000
  H   H46       1.0  0.67916  0.29984  0.67219  1.0000
  H   H47       1.0  0.6868800000000003  0.22233  0.52238  1.0000
  H   H48       1.0  0.9035600000000001  0.09924  0.62082  1.0000
  C   C1        1.0  0.63698  0.64744  0.85623  1.0000
  C   C2        1.0  0.636  0.6623  0.803  1.0000
  C   C3        1.0  0.6406  0.75387  0.78185  1.0000
  C   C4        1.0  0.65935  0.7664900000000001  0.73308  1.0000
  C   C5        1.0  0.6706700000000002  0.6858900000000001  0.70309  1.0000
  C   C6        1.0  0.6582900000000002  0.59386  0.723  1.0000
  C   C7        1.0  0.64362  0.58253  0.77238  1.0000
  C   C8        1.0  0.70407  0.69828  0.65273  1.0000
  C   C9        1.0  0.7854900000000001  0.76033  0.64333  1.0000
  C   C10       1.0  0.82514  0.76828  0.5968400000000001  1.0000
  C   C11       1.0  0.7823200000000002  0.71623  0.55896  1.0000
  C   C12       1.0  0.6994400000000002  0.65604  0.56766  1.0000
  C   C13       1.0  0.66114  0.64621  0.61453  1.0000
  C   C14       1.0  0.9143200000000002  0.83045  0.58737  1.0000
  C   C15       1.0  0.65448  0.60464  0.52571  1.0000
  C   C16       1.0  0.85822  0.8519200000000002  0.35697  1.0000
  C   C17       1.0  0.86099  0.83728  0.30368  1.0000
  C   C18       1.0  0.8561600000000003  0.7455  0.28275  1.0000
  C   C19       1.0  0.83839  0.73231  0.23398  1.0000
  C   C20       1.0  0.8287100000000002  0.81266  0.2036  1.0000
  C   C21       1.0  0.84183  0.9048  0.22321  1.0000
  C   C22       1.0  0.8552100000000002  0.91667  0.27264  1.0000
  C   C23       1.0  0.7962200000000001  0.7999000000000003  0.15317  1.0000
  C   C24       1.0  0.7145400000000002  0.73827  0.14362  1.0000
  C   C25       1.0  0.67553  0.73026  0.09703  1.0000
  C   C26       1.0  0.7192700000000002  0.78158  0.0591  1.0000
  C   C27       1.0  0.80231  0.8413  0.06803  1.0000
  C   C28       1.0  0.8399600000000003  0.85138  0.11495  1.0000
  C   C29       1.0  0.58578  0.66908  0.08753  1.0000
  C   C30       1.0  0.8482900000000002  0.89292  0.02647  1.0000
  C   C31       1.0  0.3627200000000001  0.64859  0.64342  1.0000
  C   C32       1.0  0.36416  0.66382  0.69664  1.0000
  C   C33       1.0  0.35922  0.7555  0.71761  1.0000
  C   C34       1.0  0.3405800000000001  0.76822  0.76638  1.0000
  C   C35       1.0  0.3299800000000001  0.68768  0.7965900000000001  1.0000
  C   C36       1.0  0.3426500000000001  0.59561  0.77681  1.0000
  C   C37       1.0  0.35695  0.58414  0.72742  1.0000
  C   C38       1.0  0.29673000000000005  0.69977  0.84699  1.0000
  C   C39       1.0  0.21518000000000007  0.76161  0.85657  1.0000
  C   C40       1.0  0.17513000000000004  0.76861  0.9030200000000002  1.0000
  C   C41       1.0  0.21741  0.71558  0.94077  1.0000
  C   C42       1.0  0.30026  0.6555700000000001  0.93191  1.0000
  C   C43       1.0  0.33927  0.64696  0.8851000000000001  1.0000
  C   C44       1.0  0.08587  0.83057  0.91259  1.0000
  C   C45       1.0  0.3454800000000001  0.60273  0.97336  1.0000
  C   C46       1.0  0.14166000000000004  0.85181  0.14344  1.0000
  C   C47       1.0  0.13920000000000002  0.83681  0.19664  1.0000
  C   C48       1.0  0.14377  0.74508  0.21760000000000004  1.0000
  C   C49       1.0  0.16111000000000006  0.732  0.26642  1.0000
  C   C50       1.0  0.17065  0.8125  0.29666  1.0000
  C   C51       1.0  0.15777000000000002  0.90466  0.27691  1.0000
  C   C52       1.0  0.14486000000000004  0.91644  0.22746000000000005  1.0000
  C   C53       1.0  0.20342  0.80008  0.34706  1.0000
  C   C54       1.0  0.2850500000000001  0.73831  0.35659  1.0000
  C   C55       1.0  0.32480000000000003  0.7309500000000001  0.4030700000000001  1.0000
  C   C56       1.0  0.28207000000000004  0.78321  0.44089  1.0000
  C   C57       1.0  0.19908000000000006  0.8430900000000002  0.43201  1.0000
  C   C58       1.0  0.16049  0.85234  0.38519000000000003  1.0000
  C   C59       1.0  0.4143  0.66936  0.41254  1.0000
  C   C60       1.0  0.15394  0.8953700000000001  0.47355  1.0000
  C   C61       1.0  0.3629  0.35239  0.14384  1.0000
  C   C62       1.0  0.36362000000000005  0.33757000000000004  0.19706  1.0000
  C   C63       1.0  0.35899  0.24601  0.21823  1.0000
  C   C64       1.0  0.3404800000000001  0.23341  0.26701  1.0000
  C   C65       1.0  0.3293900000000001  0.31403  0.29698  1.0000
  C   C66       1.0  0.34178  0.40607  0.27707  1.0000
  C   C67       1.0  0.35628  0.41738  0.22768  1.0000
  C   C68       1.0  0.29604  0.30168  0.34731  1.0000
  C   C69       1.0  0.21484000000000006  0.23948000000000003  0.35683  1.0000
  C   C70       1.0  0.17492000000000005  0.23195  0.40328  1.0000
  C   C71       1.0  0.21722000000000005  0.28458  0.44112  1.0000
  C   C72       1.0  0.2998900000000001  0.34482  0.43222  1.0000
  C   C73       1.0  0.3385300000000001  0.35418  0.38541  1.0000
  C   C74       1.0  0.08581  0.16971000000000003  0.41261  1.0000
  C   C75       1.0  0.3454800000000001  0.39746  0.47353000000000006  1.0000
  C   C76       1.0  0.13995000000000002  0.14597  0.64389  1.0000
  C   C77       1.0  0.13834  0.16156  0.69713  1.0000
  C   C78       1.0  0.14393  0.25325  0.7180900000000002  1.0000
  C   C79       1.0  0.16169  0.26582  0.7669300000000001  1.0000
  C   C80       1.0  0.17097000000000004  0.18531  0.7972800000000002  1.0000
  C   C81       1.0  0.15751000000000007  0.09332  0.77754  1.0000
  C   C82       1.0  0.14378  0.08193000000000003  0.7281  1.0000
  C   C83       1.0  0.20369000000000007  0.19804  0.84774  1.0000
  C   C84       1.0  0.28537  0.25986  0.85702  1.0000
  C   C85       1.0  0.32453  0.26869  0.90355  1.0000
  C   C86       1.0  0.2809900000000001  0.21782  0.94173  1.0000
  C   C87       1.0  0.19806  0.15768  0.93315  1.0000
  C   C88       1.0  0.16030000000000005  0.1469  0.8862200000000001  1.0000
  C   C89       1.0  0.4141000000000001  0.3305  0.91272  1.0000
  C   C90       1.0  0.15214000000000005  0.10697  0.97514  1.0000
  C   C91       1.0  0.6363800000000002  0.35155  0.35733  1.0000
  C   C92       1.0  0.63656  0.33637  0.30404  1.0000
  C   C93       1.0  0.64111  0.24491  0.28286  1.0000
  C   C94       1.0  0.65955  0.2323  0.23404000000000005  1.0000
  C   C95       1.0  0.6701700000000002  0.31283  0.20386  1.0000
  C   C96       1.0  0.65756  0.40477  0.22379  1.0000
  C   C97       1.0  0.64354  0.41609  0.27321  1.0000
  C   C98       1.0  0.7032900000000002  0.30067  0.15339  1.0000
  C   C99       1.0  0.7848400000000002  0.23883  0.14383  1.0000
  C   C100      1.0  0.8247300000000001  0.23166  0.09733000000000003  1.0000
  C   C101      1.0  0.7823200000000002  0.28438  0.05952  1.0000
  C   C102      1.0  0.6994200000000003  0.34433  0.06836  1.0000
  C   C103      1.0  0.6606100000000003  0.35317  0.11521  1.0000
  C   C104      1.0  0.9139100000000002  0.16964  0.08775  1.0000
  C   C105      1.0  0.6542500000000002  0.39709  0.02686  1.0000
  C   C106      1.0  0.8602200000000002  0.14612  0.85615  1.0000
  C   C107      1.0  0.86191  0.16195  0.80294  1.0000
  C   C108      1.0  0.8563200000000002  0.25358  0.78184  1.0000
  C   C109      1.0  0.8388000000000002  0.26617  0.7329900000000001  1.0000
  C   C110      1.0  0.82944  0.18561  0.70278  1.0000
  C   C111      1.0  0.8426800000000002  0.09361  0.7226600000000001  1.0000
  C   C112      1.0  0.85622  0.08228  0.7721100000000002  1.0000
  C   C113      1.0  0.7964800000000002  0.19814  0.65238  1.0000
  C   C114      1.0  0.7149000000000001  0.26013  0.64303  1.0000
  C   C115      1.0  0.6750200000000002  0.26821  0.5966  1.0000
  C   C116      1.0  0.7177500000000002  0.21631  0.55861  1.0000
  C   C117      1.0  0.8007500000000001  0.1562  0.56725  1.0000
  C   C118      1.0  0.83931  0.14626  0.6140700000000001  1.0000
  C   C119      1.0  0.58566  0.3304  0.5873  1.0000
  C   C120      1.0  0.8457800000000002  0.10466  0.52536  1.0000
  N   N1        1.0  0.62162  0.84158  0.8104  1.0000
  N   N2        1.0  0.87491  0.65816  0.31165  1.0000
  N   N3        1.0  0.37789000000000006  0.84297  0.68871  1.0000
  N   N4        1.0  0.12505000000000002  0.65803  0.18854000000000004  1.0000
  N   N5        1.0  0.3777200000000001  0.15833  0.18964000000000003  1.0000
  N   N6        1.0  0.12668  0.34107  0.68919  1.0000
  N   N7        1.0  0.6222100000000002  0.15726000000000004  0.31149  1.0000
  N   N8        1.0  0.8738500000000001  0.34133  0.81053  1.0000
  O   O1        1.0  0.60453  0.56524  0.87184  1.0000
  O   O2        1.0  0.67207  0.70973  0.8837  1.0000
  O   O3        1.0  0.5388100000000002  0.8473  0.83109  1.0000
  O   O4        1.0  0.6875200000000001  0.90488  0.80943  1.0000
  O   O5        1.0  0.95396  0.88082  0.62119  1.0000
  O   O6        1.0  0.9504700000000003  0.83357  0.54453  1.0000
  O   O7        1.0  0.6975  0.60951  0.485  1.0000
  O   O8        1.0  0.5711000000000002  0.55681  0.53112  1.0000
  O   O9        1.0  0.89411  0.93224  0.37339  1.0000
  O   O10       1.0  0.8184100000000002  0.79057  0.38359  1.0000
  O   O11       1.0  0.9588600000000003  0.65237  0.33134  1.0000
  O   O12       1.0  0.80826  0.59549  0.31188  1.0000
  O   O13       1.0  0.54581  0.61902  0.12141000000000002  1.0000
  O   O14       1.0  0.54945  0.66646  0.04473  1.0000
  O   O15       1.0  0.8078900000000002  0.88599  0.98519  1.0000
  O   O16       1.0  0.9292500000000002  0.94343  0.03305  1.0000
  O   O17       1.0  0.3992600000000001  0.56791  0.62783  1.0000
  O   O18       1.0  0.3232200000000001  0.70914  0.61622  1.0000
  O   O19       1.0  0.45934000000000014  0.84738  0.6667  1.0000
  O   O20       1.0  0.31303000000000003  0.90727  0.69056  1.0000
  O   O21       1.0  0.04598000000000001  0.88092  0.87876  1.0000
  O   O22       1.0  0.04991000000000002  0.83349  0.95545  1.0000
  O   O23       1.0  0.30274000000000006  0.60515  0.01425  1.0000
  O   O24       1.0  0.4292200000000001  0.5563  0.96698  1.0000
  O   O25       1.0  0.10525  0.93262  0.12787  1.0000
  O   O26       1.0  0.18138000000000007  0.79111  0.11645  1.0000
  O   O27       1.0  0.041160000000000016  0.6524400000000001  0.16878  1.0000
  O   O28       1.0  0.19179  0.59545  0.18817  1.0000
  O   O29       1.0  0.4540600000000001  0.61918  0.37868  1.0000
  O   O30       1.0  0.4506  0.6665300000000001  0.45534  1.0000
  O   O31       1.0  0.1964  0.89088  0.51447  1.0000
  O   O32       1.0  0.07113000000000001  0.9434800000000001  0.46729  1.0000
  O   O33       1.0  0.39589  0.43445  0.12828  1.0000
  O   O34       1.0  0.32778000000000007  0.29021  0.11631  1.0000
  O   O35       1.0  0.4604600000000001  0.15263  0.16888  1.0000
  O   O36       1.0  0.31176  0.0951  0.19058  1.0000
  O   O37       1.0  0.04634000000000001  0.11936  0.3787200000000001  1.0000
  O   O38       1.0  0.04948000000000002  0.16653  0.4554  1.0000
  O   O39       1.0  0.30285  0.395  0.51445  1.0000
  O   O40       1.0  0.42925  0.4438  0.46706  1.0000
  O   O41       1.0  0.10064000000000002  0.06656  0.6283100000000001  1.0000
  O   O42       1.0  0.18187000000000003  0.20487  0.6166  1.0000
  O   O43       1.0  0.044980000000000006  0.34695  0.6675  1.0000
  O   O44       1.0  0.1927  0.40426  0.6907000000000001  1.0000
  O   O45       1.0  0.45368  0.38063  0.87875  1.0000
  O   O46       1.0  0.4506700000000001  0.33353  0.95548  1.0000
  O   O47       1.0  0.19252  0.11451  0.01641  1.0000
  O   O48       1.0  0.07086000000000002  0.05657  0.96902  1.0000
  O   O49       1.0  0.60105  0.43326  0.37222  1.0000
  O   O50       1.0  0.6720800000000002  0.2906  0.38546  1.0000
  O   O51       1.0  0.54053  0.15253  0.33327000000000007  1.0000
  O   O52       1.0  0.68718  0.09308  0.30954  1.0000
  O   O53       1.0  0.95375  0.11926  0.12158  1.0000
  O   O54       1.0  0.9499700000000002  0.16654  0.04492000000000001  1.0000
  O   O55       1.0  0.69723  0.3947500000000001  0.9860100000000002  1.0000
  O   O56       1.0  0.5703900000000001  0.44343  0.03307  1.0000
  O   O57       1.0  0.8993200000000002  0.06645  0.87163  1.0000
  O   O58       1.0  0.8183400000000001  0.20493  0.88347  1.0000
  O   O59       1.0  0.95626  0.3472  0.8316  1.0000
  O   O60       1.0  0.8076700000000002  0.40439  0.8093900000000002  1.0000
  O   O61       1.0  0.54624  0.38071  0.62121  1.0000
  O   O62       1.0  0.54922  0.33365  0.54453  1.0000
  O   O63       1.0  0.8030900000000002  0.10961  0.48453  1.0000
  O   O64       1.0  0.9289100000000002  0.05661  0.53105  1.0000
