data_image0
_chemical_formula_structural       Ag8H144C156S24
_chemical_formula_sum              "Ag8 H144 C156 S24"
_cell_length_a       16.62788
_cell_length_b       16.62788
_cell_length_c       16.62788
_cell_angle_alpha    90.0
_cell_angle_beta     90.0
_cell_angle_gamma    90.0

_symmetry_space_group_name_H-M    'P 1'
_symmetry_Int_Tables_number       1

loop_
  _symmetry_equiv_pos_as_xyz
  'x,y,z'

loop_
  _atom_site_type_symbol
  _atom_site_label
  _atom_site_symmetry_multiplicity
  _atom_site_fract_x
  _atom_site_fract_y
  _atom_site_fract_z
  _atom_site_occupancy
  Ag  Ag1       1.0  0.81134  0.18866  0.68866  1.0000
  Ag  Ag2       1.0  0.68866  0.81134  0.18866  1.0000
  Ag  Ag3       1.0  0.18866  0.68866  0.81134  1.0000
  Ag  Ag4       1.0  0.31134  0.31134  0.31134  1.0000
  Ag  Ag5       1.0  0.43905  0.56095  0.06095  1.0000
  Ag  Ag6       1.0  0.06095  0.43905  0.56095  1.0000
  Ag  Ag7       1.0  0.93904  0.93904  0.93904  1.0000
  Ag  Ag8       1.0  0.56095  0.06095  0.43905  1.0000
  H   H1        1.0  0.72063  0.02131  0.73216  1.0000
  H   H2        1.0  0.71223  0.92784  0.84802  1.0000
  H   H3        1.0  0.62871  0.96263  0.9672999999999999  1.0000
  H   H4        1.0  0.55052  0.09083  0.96862  1.0000
  H   H5        1.0  0.55504  0.18212  0.85058  1.0000
  H   H6        1.0  0.68289  0.08016  0.60799  1.0000
  H   H7        1.0  0.77936  0.97869  0.23216  1.0000
  H   H8        1.0  0.78776  0.07216  0.34802  1.0000
  H   H9        1.0  0.87129  0.03737  0.4673  1.0000
  H   H10       1.0  0.94948  0.90917  0.46862  1.0000
  H   H11       1.0  0.94495  0.81788  0.35058  1.0000
  H   H12       1.0  0.8171  0.91983  0.10799  1.0000
  H   H13       1.0  0.27937  0.52131  0.76784  1.0000
  H   H14       1.0  0.28776  0.42784  0.65198  1.0000
  H   H15       1.0  0.37129  0.46263  0.53269  1.0000
  H   H16       1.0  0.44948  0.59083  0.53137  1.0000
  H   H17       1.0  0.44495  0.68211  0.64941  1.0000
  H   H18       1.0  0.31711  0.58016  0.892  1.0000
  H   H19       1.0  0.22063  0.47869  0.26784  1.0000
  H   H20       1.0  0.21224  0.57216  0.15198  1.0000
  H   H21       1.0  0.12871  0.53737  0.03269  1.0000
  H   H22       1.0  0.05052  0.40917  0.03137  1.0000
  H   H23       1.0  0.05505  0.31788  0.14942  1.0000
  H   H24       1.0  0.18289  0.41984  0.392  1.0000
  H   H25       1.0  0.73216  0.72063  0.02131  1.0000
  H   H26       1.0  0.84802  0.71223  0.92784  1.0000
  H   H27       1.0  0.9672999999999999  0.62871  0.96263  1.0000
  H   H28       1.0  0.96862  0.55052  0.09083  1.0000
  H   H29       1.0  0.85058  0.55504  0.18212  1.0000
  H   H30       1.0  0.60799  0.68289  0.08016  1.0000
  H   H31       1.0  0.23216  0.77936  0.97869  1.0000
  H   H32       1.0  0.34802  0.78776  0.07216  1.0000
  H   H33       1.0  0.4673  0.87129  0.03737  1.0000
  H   H34       1.0  0.46862  0.94948  0.90917  1.0000
  H   H35       1.0  0.35058  0.94495  0.81788  1.0000
  H   H36       1.0  0.10799  0.8171  0.91983  1.0000
  H   H37       1.0  0.76784  0.27937  0.52131  1.0000
  H   H38       1.0  0.65198  0.28776  0.42784  1.0000
  H   H39       1.0  0.53269  0.37129  0.46263  1.0000
  H   H40       1.0  0.53137  0.44948  0.59083  1.0000
  H   H41       1.0  0.64941  0.44495  0.68211  1.0000
  H   H42       1.0  0.892  0.31711  0.58016  1.0000
  H   H43       1.0  0.26784  0.22063  0.47869  1.0000
  H   H44       1.0  0.15198  0.21224  0.57216  1.0000
  H   H45       1.0  0.03269  0.12871  0.53737  1.0000
  H   H46       1.0  0.03137  0.05052  0.40917  1.0000
  H   H47       1.0  0.14942  0.05505  0.31788  1.0000
  H   H48       1.0  0.392  0.18289  0.41984  1.0000
  H   H49       1.0  0.02131  0.73216  0.72063  1.0000
  H   H50       1.0  0.92784  0.84802  0.71223  1.0000
  H   H51       1.0  0.96263  0.9672999999999999  0.62871  1.0000
  H   H52       1.0  0.09083  0.96862  0.55052  1.0000
  H   H53       1.0  0.18212  0.85058  0.55504  1.0000
  H   H54       1.0  0.08016  0.60799  0.68289  1.0000
  H   H55       1.0  0.97869  0.23216  0.77936  1.0000
  H   H56       1.0  0.07216  0.34802  0.78776  1.0000
  H   H57       1.0  0.03737  0.4673  0.87129  1.0000
  H   H58       1.0  0.90917  0.46862  0.94948  1.0000
  H   H59       1.0  0.81788  0.35058  0.94495  1.0000
  H   H60       1.0  0.91983  0.10799  0.8171  1.0000
  H   H61       1.0  0.52131  0.76784  0.27937  1.0000
  H   H62       1.0  0.42784  0.65198  0.28776  1.0000
  H   H63       1.0  0.46263  0.53269  0.37129  1.0000
  H   H64       1.0  0.59083  0.53137  0.44948  1.0000
  H   H65       1.0  0.68211  0.64941  0.44495  1.0000
  H   H66       1.0  0.58016  0.892  0.31711  1.0000
  H   H67       1.0  0.47869  0.26784  0.22063  1.0000
  H   H68       1.0  0.57216  0.15198  0.21224  1.0000
  H   H69       1.0  0.53737  0.03269  0.12871  1.0000
  H   H70       1.0  0.40917  0.03137  0.05052  1.0000
  H   H71       1.0  0.31788  0.14942  0.05505  1.0000
  H   H72       1.0  0.41984  0.392  0.18289  1.0000
  H   H73       1.0  0.27128  0.47064  0.01783  1.0000
  H   H74       1.0  0.17785  0.46227  0.90194  1.0000
  H   H75       1.0  0.21265  0.37871  0.78269  1.0000
  H   H76       1.0  0.34084  0.30051  0.78139  1.0000
  H   H77       1.0  0.4321  0.30503  0.89946  1.0000
  H   H78       1.0  0.33008  0.43282  0.14207  1.0000
  H   H79       1.0  0.22872  0.52935  0.51783  1.0000
  H   H80       1.0  0.32215  0.53773  0.40194  1.0000
  H   H81       1.0  0.28735  0.62129  0.28269  1.0000
  H   H82       1.0  0.15916  0.69949  0.2814  1.0000
  H   H83       1.0  0.0679  0.69497  0.39946  1.0000
  H   H84       1.0  0.16992  0.56717  0.64207  1.0000
  H   H85       1.0  0.77128  0.02936  0.9821700000000001  1.0000
  H   H86       1.0  0.67785  0.03773  0.09805  1.0000
  H   H87       1.0  0.71265  0.12129000000000001  0.21731  1.0000
  H   H88       1.0  0.84084  0.19949  0.2186  1.0000
  H   H89       1.0  0.9321  0.19497  0.10054  1.0000
  H   H90       1.0  0.83008  0.06718  0.85792  1.0000
  H   H91       1.0  0.72872  0.9706400000000001  0.48217  1.0000
  H   H92       1.0  0.82215  0.9622700000000001  0.59805  1.0000
  H   H93       1.0  0.78735  0.87871  0.71731  1.0000
  H   H94       1.0  0.65916  0.80051  0.7186  1.0000
  H   H95       1.0  0.5679  0.80503  0.60054  1.0000
  H   H96       1.0  0.66992  0.93282  0.35793  1.0000
  H   H97       1.0  0.9706400000000001  0.48217  0.72872  1.0000
  H   H98       1.0  0.9622700000000001  0.59805  0.82215  1.0000
  H   H99       1.0  0.87871  0.71731  0.78735  1.0000
  H   H100      1.0  0.80051  0.7186  0.65916  1.0000
  H   H101      1.0  0.80503  0.60054  0.5679  1.0000
  H   H102      1.0  0.93282  0.35793  0.66992  1.0000
  H   H103      1.0  0.02936  0.9821700000000001  0.77128  1.0000
  H   H104      1.0  0.03773  0.09805  0.67785  1.0000
  H   H105      1.0  0.12129000000000001  0.21731  0.71265  1.0000
  H   H106      1.0  0.19949  0.2186  0.84084  1.0000
  H   H107      1.0  0.19497  0.10054  0.9321  1.0000
  H   H108      1.0  0.06718  0.85792  0.83008  1.0000
  H   H109      1.0  0.52935  0.51783  0.22872  1.0000
  H   H110      1.0  0.53773  0.40194  0.32215  1.0000
  H   H111      1.0  0.62129  0.28269  0.28735  1.0000
  H   H112      1.0  0.69949  0.2814  0.15916  1.0000
  H   H113      1.0  0.69497  0.39946  0.0679  1.0000
  H   H114      1.0  0.56717  0.64207  0.16992  1.0000
  H   H115      1.0  0.47064  0.01783  0.27128  1.0000
  H   H116      1.0  0.46227  0.90194  0.17785  1.0000
  H   H117      1.0  0.37871  0.78269  0.21265  1.0000
  H   H118      1.0  0.30051  0.78139  0.34084  1.0000
  H   H119      1.0  0.30503  0.89946  0.4321  1.0000
  H   H120      1.0  0.43282  0.14207  0.33008  1.0000
  H   H121      1.0  0.9821700000000001  0.77128  0.02936  1.0000
  H   H122      1.0  0.09805  0.67785  0.03773  1.0000
  H   H123      1.0  0.21731  0.71265  0.12129000000000001  1.0000
  H   H124      1.0  0.2186  0.84084  0.19949  1.0000
  H   H125      1.0  0.10054  0.9321  0.19497  1.0000
  H   H126      1.0  0.85792  0.83008  0.06718  1.0000
  H   H127      1.0  0.48217  0.72872  0.9706400000000001  1.0000
  H   H128      1.0  0.59805  0.82215  0.9622700000000001  1.0000
  H   H129      1.0  0.71731  0.78735  0.87871  1.0000
  H   H130      1.0  0.7186  0.65916  0.80051  1.0000
  H   H131      1.0  0.60054  0.5679  0.80503  1.0000
  H   H132      1.0  0.35793  0.66992  0.93282  1.0000
  H   H133      1.0  0.01783  0.27128  0.47064  1.0000
  H   H134      1.0  0.90194  0.17785  0.46227  1.0000
  H   H135      1.0  0.78269  0.21265  0.37871  1.0000
  H   H136      1.0  0.78139  0.34084  0.30051  1.0000
  H   H137      1.0  0.89946  0.4321  0.30503  1.0000
  H   H138      1.0  0.14207  0.33008  0.43282  1.0000
  H   H139      1.0  0.51783  0.22872  0.52935  1.0000
  H   H140      1.0  0.40194  0.32215  0.53773  1.0000
  H   H141      1.0  0.28269  0.28735  0.62129  1.0000
  H   H142      1.0  0.2814  0.15916  0.69949  1.0000
  H   H143      1.0  0.39946  0.0679  0.69497  1.0000
  H   H144      1.0  0.64207  0.16992  0.56717  1.0000
  C   C1        1.0  0.63788  0.10781  0.78389  1.0000
  C   C2        1.0  0.68226  0.03588  0.78312  1.0000
  C   C3        1.0  0.67742  0.98333  0.84852  1.0000
  C   C4        1.0  0.63042  0.00276  0.91554  1.0000
  C   C5        1.0  0.58675  0.07474  0.91658  1.0000
  C   C6        1.0  0.5898  0.1267  0.85076  1.0000
  C   C7        1.0  0.86212  0.89219  0.2839  1.0000
  C   C8        1.0  0.81773  0.9641200000000001  0.28312  1.0000
  C   C9        1.0  0.82257  0.01667  0.34852  1.0000
  C   C10       1.0  0.86958  0.99723  0.41554  1.0000
  C   C11       1.0  0.91325  0.92526  0.41659  1.0000
  C   C12       1.0  0.91019  0.8733  0.35076  1.0000
  C   C13       1.0  0.36212  0.60781  0.7161  1.0000
  C   C14       1.0  0.31773  0.53588  0.71688  1.0000
  C   C15       1.0  0.32257  0.4833299999999999  0.65148  1.0000
  C   C16       1.0  0.36958  0.50276  0.58446  1.0000
  C   C17       1.0  0.41325  0.57474  0.58341  1.0000
  C   C18       1.0  0.41019  0.6267  0.64923  1.0000
  C   C19       1.0  0.13788  0.39219  0.2161  1.0000
  C   C20       1.0  0.18227  0.46412  0.21688  1.0000
  C   C21       1.0  0.17742  0.51667  0.15148  1.0000
  C   C22       1.0  0.13042  0.49722999999999995  0.08446  1.0000
  C   C23       1.0  0.08675  0.42526  0.08341  1.0000
  C   C24       1.0  0.08981  0.3733  0.14924  1.0000
  C   C25       1.0  0.78389  0.63788  0.10781  1.0000
  C   C26       1.0  0.78312  0.68226  0.03588  1.0000
  C   C27       1.0  0.84852  0.67742  0.98333  1.0000
  C   C28       1.0  0.91554  0.63042  0.00276  1.0000
  C   C29       1.0  0.91658  0.58675  0.07474  1.0000
  C   C30       1.0  0.85076  0.5898  0.1267  1.0000
  C   C31       1.0  0.2839  0.86212  0.89219  1.0000
  C   C32       1.0  0.28312  0.81773  0.9641200000000001  1.0000
  C   C33       1.0  0.34852  0.82257  0.01667  1.0000
  C   C34       1.0  0.41554  0.86958  0.99723  1.0000
  C   C35       1.0  0.41659  0.91325  0.92526  1.0000
  C   C36       1.0  0.35076  0.91019  0.8733  1.0000
  C   C37       1.0  0.7161  0.36212  0.60781  1.0000
  C   C38       1.0  0.71688  0.31773  0.53588  1.0000
  C   C39       1.0  0.65148  0.32257  0.4833299999999999  1.0000
  C   C40       1.0  0.58446  0.36958  0.50276  1.0000
  C   C41       1.0  0.58341  0.41325  0.57474  1.0000
  C   C42       1.0  0.64923  0.41019  0.6267  1.0000
  C   C43       1.0  0.2161  0.13788  0.39219  1.0000
  C   C44       1.0  0.21688  0.18227  0.46412  1.0000
  C   C45       1.0  0.15148  0.17742  0.51667  1.0000
  C   C46       1.0  0.08446  0.13042  0.49722999999999995  1.0000
  C   C47       1.0  0.08341  0.08675  0.42526  1.0000
  C   C48       1.0  0.14924  0.08981  0.3733  1.0000
  C   C49       1.0  0.10781  0.78389  0.63788  1.0000
  C   C50       1.0  0.03588  0.78312  0.68226  1.0000
  C   C51       1.0  0.98333  0.84852  0.67742  1.0000
  C   C52       1.0  0.00276  0.91554  0.63042  1.0000
  C   C53       1.0  0.07474  0.91658  0.58675  1.0000
  C   C54       1.0  0.1267  0.85076  0.5898  1.0000
  C   C55       1.0  0.89219  0.2839  0.86212  1.0000
  C   C56       1.0  0.9641200000000001  0.28312  0.81773  1.0000
  C   C57       1.0  0.01667  0.34852  0.82257  1.0000
  C   C58       1.0  0.99723  0.41554  0.86958  1.0000
  C   C59       1.0  0.92526  0.41659  0.91325  1.0000
  C   C60       1.0  0.87329  0.35076  0.91019  1.0000
  C   C61       1.0  0.60781  0.7161  0.36212  1.0000
  C   C62       1.0  0.53588  0.71688  0.31773  1.0000
  C   C63       1.0  0.4833299999999999  0.65148  0.32257  1.0000
  C   C64       1.0  0.50276  0.58446  0.36958  1.0000
  C   C65       1.0  0.57474  0.58341  0.41325  1.0000
  C   C66       1.0  0.6267  0.64923  0.41019  1.0000
  C   C67       1.0  0.39219  0.2161  0.13788  1.0000
  C   C68       1.0  0.46412  0.21688  0.18227  1.0000
  C   C69       1.0  0.51667  0.15148  0.17742  1.0000
  C   C70       1.0  0.49722999999999995  0.08446  0.13042  1.0000
  C   C71       1.0  0.42526  0.08341  0.08675  1.0000
  C   C72       1.0  0.3733  0.14924  0.08981  1.0000
  C   C73       1.0  0.35777  0.38787  0.96612  1.0000
  C   C74       1.0  0.28586  0.43227  0.9668700000000001  1.0000
  C   C75       1.0  0.23333  0.42744  0.90147  1.0000
  C   C76       1.0  0.25277  0.38042  0.83446  1.0000
  C   C77       1.0  0.32474  0.33673  0.83343  1.0000
  C   C78       1.0  0.37668  0.33979  0.89927  1.0000
  C   C79       1.0  0.14223  0.61213  0.46612  1.0000
  C   C80       1.0  0.21414  0.56772  0.46687  1.0000
  C   C81       1.0  0.26667  0.57256  0.40147  1.0000
  C   C82       1.0  0.24723  0.61958  0.33446  1.0000
  C   C83       1.0  0.17526  0.66326  0.33343  1.0000
  C   C84       1.0  0.12331  0.66021  0.39927  1.0000
  C   C85       1.0  0.85777  0.11213  0.03388  1.0000
  C   C86       1.0  0.78585  0.06773  0.03313  1.0000
  C   C87       1.0  0.73333  0.07256  0.09853  1.0000
  C   C88       1.0  0.75277  0.11958  0.16554  1.0000
  C   C89       1.0  0.82474  0.16327  0.16657  1.0000
  C   C90       1.0  0.87668  0.16021  0.10073  1.0000
  C   C91       1.0  0.64223  0.88787  0.53387  1.0000
  C   C92       1.0  0.71414  0.93227  0.53312  1.0000
  C   C93       1.0  0.76667  0.92744  0.59853  1.0000
  C   C94       1.0  0.74723  0.88042  0.66554  1.0000
  C   C95       1.0  0.67526  0.83673  0.66656  1.0000
  C   C96       1.0  0.62331  0.83979  0.60073  1.0000
  C   C97       1.0  0.88787  0.53387  0.64223  1.0000
  C   C98       1.0  0.93227  0.53312  0.71414  1.0000
  C   C99       1.0  0.92744  0.59853  0.76667  1.0000
  C   C100      1.0  0.88042  0.66554  0.74723  1.0000
  C   C101      1.0  0.83673  0.66656  0.67526  1.0000
  C   C102      1.0  0.83979  0.60073  0.62331  1.0000
  C   C103      1.0  0.11213  0.03388  0.85777  1.0000
  C   C104      1.0  0.06773  0.03313  0.78585  1.0000
  C   C105      1.0  0.07256  0.09853  0.73333  1.0000
  C   C106      1.0  0.11958  0.16554  0.75277  1.0000
  C   C107      1.0  0.16327  0.16657  0.82474  1.0000
  C   C108      1.0  0.16021  0.10073  0.87668  1.0000
  C   C109      1.0  0.61213  0.46612  0.14223  1.0000
  C   C110      1.0  0.56772  0.46687  0.21414  1.0000
  C   C111      1.0  0.57256  0.40147  0.26667  1.0000
  C   C112      1.0  0.61958  0.33446  0.24723  1.0000
  C   C113      1.0  0.66326  0.33343  0.17526  1.0000
  C   C114      1.0  0.66021  0.39927  0.12331  1.0000
  C   C115      1.0  0.38787  0.96612  0.35777  1.0000
  C   C116      1.0  0.43227  0.9668700000000001  0.28586  1.0000
  C   C117      1.0  0.42744  0.90147  0.23333  1.0000
  C   C118      1.0  0.38042  0.83446  0.25277  1.0000
  C   C119      1.0  0.33673  0.83343  0.32474  1.0000
  C   C120      1.0  0.33979  0.89927  0.37668  1.0000
  C   C121      1.0  0.03388  0.85777  0.11213  1.0000
  C   C122      1.0  0.03313  0.78585  0.06773  1.0000
  C   C123      1.0  0.09853  0.73333  0.07256  1.0000
  C   C124      1.0  0.16554  0.75277  0.11958  1.0000
  C   C125      1.0  0.16657  0.82474  0.16327  1.0000
  C   C126      1.0  0.10073  0.87668  0.16021  1.0000
  C   C127      1.0  0.53387  0.64223  0.88787  1.0000
  C   C128      1.0  0.53312  0.71414  0.93227  1.0000
  C   C129      1.0  0.59853  0.76667  0.92744  1.0000
  C   C130      1.0  0.66554  0.74723  0.88042  1.0000
  C   C131      1.0  0.66656  0.67526  0.83673  1.0000
  C   C132      1.0  0.60073  0.62331  0.83979  1.0000
  C   C133      1.0  0.96612  0.35777  0.38787  1.0000
  C   C134      1.0  0.9668700000000001  0.28586  0.43227  1.0000
  C   C135      1.0  0.90147  0.23333  0.42744  1.0000
  C   C136      1.0  0.83446  0.25277  0.38042  1.0000
  C   C137      1.0  0.83343  0.32474  0.33673  1.0000
  C   C138      1.0  0.89927  0.37668  0.33979  1.0000
  C   C139      1.0  0.46612  0.14223  0.61213  1.0000
  C   C140      1.0  0.46687  0.21414  0.56772  1.0000
  C   C141      1.0  0.40147  0.26667  0.57256  1.0000
  C   C142      1.0  0.33446  0.24723  0.61958  1.0000
  C   C143      1.0  0.33343  0.17526  0.66326  1.0000
  C   C144      1.0  0.39927  0.12331  0.66021  1.0000
  C   C145      1.0  0.63504  0.12504  0.61502  1.0000
  C   C146      1.0  0.86495  0.87496  0.11502  1.0000
  C   C147      1.0  0.36495  0.62504  0.88498  1.0000
  C   C148      1.0  0.13504  0.37496  0.38498  1.0000
  C   C149      1.0  0.61502  0.63504  0.12504  1.0000
  C   C150      1.0  0.11502  0.86495  0.87496  1.0000
  C   C151      1.0  0.88498  0.36495  0.62504  1.0000
  C   C152      1.0  0.38498  0.13504  0.37496  1.0000
  C   C153      1.0  0.12504  0.61502  0.63504  1.0000
  C   C154      1.0  0.87496  0.11502  0.86495  1.0000
  C   C155      1.0  0.62504  0.88498  0.36495  1.0000
  C   C156      1.0  0.37496  0.38498  0.13504  1.0000
  S   S1        1.0  0.64545  0.18173  0.70776  1.0000
  S   S2        1.0  0.85455  0.81827  0.20776  1.0000
  S   S3        1.0  0.35455  0.68173  0.79223  1.0000
  S   S4        1.0  0.14545  0.31827  0.29224  1.0000
  S   S5        1.0  0.70776  0.64545  0.18173  1.0000
  S   S6        1.0  0.20776  0.85455  0.81827  1.0000
  S   S7        1.0  0.79223  0.35455  0.68173  1.0000
  S   S8        1.0  0.29224  0.14545  0.31827  1.0000
  S   S9        1.0  0.18173  0.70776  0.64545  1.0000
  S   S10       1.0  0.81827  0.20776  0.85455  1.0000
  S   S11       1.0  0.68173  0.79223  0.35455  1.0000
  S   S12       1.0  0.31827  0.29224  0.14545  1.0000
  S   S13       1.0  0.43166  0.39543  0.0423  1.0000
  S   S14       1.0  0.06833  0.60457  0.5423  1.0000
  S   S15       1.0  0.93166  0.10457  0.9577  1.0000
  S   S16       1.0  0.56833  0.89543  0.4577  1.0000
  S   S17       1.0  0.89543  0.4577  0.56833  1.0000
  S   S18       1.0  0.10457  0.9577  0.93166  1.0000
  S   S19       1.0  0.60457  0.5423  0.06833  1.0000
  S   S20       1.0  0.39543  0.0423  0.43166  1.0000
  S   S21       1.0  0.9577  0.93166  0.10457  1.0000
  S   S22       1.0  0.4577  0.56833  0.89543  1.0000
  S   S23       1.0  0.0423  0.43166  0.39543  1.0000
  S   S24       1.0  0.5423  0.06833  0.60457  1.0000
