data_image0
_chemical_formula_structural       Cd8H96C144N12Cl12O24
_chemical_formula_sum              "Cd8 H96 C144 N12 Cl12 O24"
_cell_length_a       14.67124
_cell_length_b       18.49127
_cell_length_c       18.49062
_cell_angle_alpha    119.96966999999998
_cell_angle_beta     89.99459
_cell_angle_gamma    89.99233

_space_group_name_H-M_alt    "P 1"
_space_group_IT_number       1

loop_
  _space_group_symop_operation_xyz
  'x, y, z'

loop_
  _atom_site_type_symbol
  _atom_site_label
  _atom_site_symmetry_multiplicity
  _atom_site_fract_x
  _atom_site_fract_y
  _atom_site_fract_z
  _atom_site_occupancy
  Cd  Cd1       1.0  0.24967000000000006  0.6666  0.33342  1.0000
  Cd  Cd2       1.0  0.75033  0.3334  0.66658  1.0000
  Cd  Cd3       1.0  0.25116  0.7898499999999999  0.21016  1.0000
  Cd  Cd4       1.0  0.25123  0.42017  0.20998  1.0000
  Cd  Cd5       1.0  0.25108  0.78999  0.57988  1.0000
  Cd  Cd6       1.0  0.74883  0.21015  0.78984  1.0000
  Cd  Cd7       1.0  0.7487700000000003  0.57983  0.79002  1.0000
  Cd  Cd8       1.0  0.7489100000000002  0.21001  0.42012  1.0000
  H   H1        1.0  0.08698000000000003  0.014579999999999992  0.19003  1.0000
  H   H2        1.0  0.19521  0.07171  0.428  1.0000
  H   H3        1.0  0.03597000000000001  0.16351  0.24987  1.0000
  H   H4        1.0  0.14381  0.22034000000000004  0.48875  1.0000
  H   H5        1.0  0.98372  0.28245  0.49979  1.0000
  H   H6        1.0  0.13516  0.30265  0.31821  1.0000
  H   H7        1.0  0.93865  0.42823  0.56721  1.0000
  H   H8        1.0  0.09458  0.44883  0.37686  1.0000
  H   H9        1.0  0.08692000000000001  0.17543  0.98552  1.0000
  H   H10       1.0  0.19512  0.3562099999999999  0.92815  1.0000
  H   H11       1.0  0.03599  0.08655  0.83673  1.0000
  H   H12       1.0  0.14381  0.26858999999999994  0.77974  1.0000
  H   H13       1.0  0.98367  0.21727999999999997  0.71743  1.0000
  H   H14       1.0  0.13524  0.015580000000000004  0.69742  1.0000
  H   H15       1.0  0.93855  0.13892999999999994  0.57176  1.0000
  H   H16       1.0  0.09452  0.92808  0.55135  1.0000
  H   H17       1.0  0.08694  0.80991  0.82454  1.0000
  H   H18       1.0  0.19514  0.57193  0.64385  1.0000
  H   H19       1.0  0.03594  0.74978  0.91373  1.0000
  H   H20       1.0  0.14360000000000006  0.51107  0.73189  1.0000
  H   H21       1.0  0.98379  0.50032  0.78271  1.0000
  H   H22       1.0  0.13516  0.68174  0.98425  1.0000
  H   H23       1.0  0.9385700000000002  0.4327500000000001  0.86129  1.0000
  H   H24       1.0  0.09440000000000003  0.62299  0.07204  1.0000
  H   H25       1.0  0.41404  0.175  0.19008  1.0000
  H   H26       1.0  0.30564  0.3561  0.42767  1.0000
  H   H27       1.0  0.46402  0.08555  0.25034  1.0000
  H   H28       1.0  0.35604  0.26789  0.48887  1.0000
  H   H29       1.0  0.51615  0.21735000000000002  0.4998000000000001  1.0000
  H   H30       1.0  0.36505  0.015729999999999997  0.3183  1.0000
  H   H31       1.0  0.56147  0.13863  0.5673  1.0000
  H   H32       1.0  0.4057400000000001  0.92797  0.37703  1.0000
  H   H33       1.0  0.41405  0.8099699999999999  0.98495  1.0000
  H   H34       1.0  0.30558  0.57243  0.92863  1.0000
  H   H35       1.0  0.464  0.75  0.83558  1.0000
  H   H36       1.0  0.35581  0.51129  0.77947  1.0000
  H   H37       1.0  0.51622  0.50007  0.71748  1.0000
  H   H38       1.0  0.36504  0.68173  0.69727  1.0000
  H   H39       1.0  0.56139  0.4327500000000001  0.57164  1.0000
  H   H40       1.0  0.40556000000000003  0.62312  0.55116  1.0000
  H   H41       1.0  0.41415  0.014990000000000002  0.82507  1.0000
  H   H42       1.0  0.3057  0.07152000000000001  0.64387  1.0000
  H   H43       1.0  0.4639800000000001  0.1642299999999999  0.91427  1.0000
  H   H44       1.0  0.35581  0.22049  0.73168  1.0000
  H   H45       1.0  0.51628  0.28265  0.78266  1.0000
  H   H46       1.0  0.365  0.30266  0.98443  1.0000
  H   H47       1.0  0.5615  0.42838  0.86116  1.0000
  H   H48       1.0  0.40562000000000004  0.4486800000000001  0.07193  1.0000
  H   H49       1.0  0.9130200000000003  0.98543  0.80997  1.0000
  H   H50       1.0  0.80479  0.9282899999999998  0.572  1.0000
  H   H51       1.0  0.9640200000000001  0.8364900000000001  0.75013  1.0000
  H   H52       1.0  0.85618  0.77966  0.51124  1.0000
  H   H53       1.0  0.01627  0.71756  0.50021  1.0000
  H   H54       1.0  0.86483  0.69735  0.68179  1.0000
  H   H55       1.0  0.06134  0.57177  0.43279  1.0000
  H   H56       1.0  0.90542  0.55118  0.62314  1.0000
  H   H57       1.0  0.91307  0.82457  0.01448  1.0000
  H   H58       1.0  0.80488  0.64379  0.07185  1.0000
  H   H59       1.0  0.9640100000000003  0.91345  0.16327  1.0000
  H   H60       1.0  0.85618  0.73141  0.22025  1.0000
  H   H61       1.0  0.01632  0.78272  0.28257  1.0000
  H   H62       1.0  0.86476  0.98442  0.30258  1.0000
  H   H63       1.0  0.06145  0.8610799999999998  0.42824  1.0000
  H   H64       1.0  0.90547  0.07192  0.44865  1.0000
  H   H65       1.0  0.91306  0.19009  0.17546  1.0000
  H   H66       1.0  0.80486  0.42807  0.35615  1.0000
  H   H67       1.0  0.96405  0.25022  0.08627  1.0000
  H   H68       1.0  0.8564000000000002  0.4889299999999999  0.26811  1.0000
  H   H69       1.0  0.0162  0.49968  0.21729  1.0000
  H   H70       1.0  0.86484  0.31826  0.01575  1.0000
  H   H71       1.0  0.06143000000000001  0.56725  0.13871  1.0000
  H   H72       1.0  0.9056  0.3770099999999999  0.92796  1.0000
  H   H73       1.0  0.58596  0.825  0.80992  1.0000
  H   H74       1.0  0.6943600000000002  0.6439  0.57233  1.0000
  H   H75       1.0  0.53597  0.9144600000000002  0.74965  1.0000
  H   H76       1.0  0.64395  0.73211  0.51113  1.0000
  H   H77       1.0  0.48384  0.78265  0.5002  1.0000
  H   H78       1.0  0.63494  0.98427  0.6817  1.0000
  H   H79       1.0  0.43852  0.86137  0.4327  1.0000
  H   H80       1.0  0.59426  0.07203  0.62297  1.0000
  H   H81       1.0  0.58595  0.19003  0.01505  1.0000
  H   H82       1.0  0.69442  0.42757  0.07137  1.0000
  H   H83       1.0  0.53599  0.25  0.16442  1.0000
  H   H84       1.0  0.64418  0.48871  0.22053  1.0000
  H   H85       1.0  0.48378  0.49993  0.28251  1.0000
  H   H86       1.0  0.63495  0.31827  0.30273  1.0000
  H   H87       1.0  0.4386  0.56725  0.42836  1.0000
  H   H88       1.0  0.59443  0.37688  0.44884  1.0000
  H   H89       1.0  0.58584  0.98501  0.17493  1.0000
  H   H90       1.0  0.69429  0.9284800000000001  0.35613  1.0000
  H   H91       1.0  0.53602  0.83577  0.08573  1.0000
  H   H92       1.0  0.64419  0.77951  0.26832  1.0000
  H   H93       1.0  0.48371  0.71735  0.21734  1.0000
  H   H94       1.0  0.6349900000000003  0.69734  0.01557  1.0000
  H   H95       1.0  0.4385000000000001  0.57162  0.13884  1.0000
  H   H96       1.0  0.59438  0.55132  0.92807  1.0000
  C   C1        1.0  0.17612000000000005  0.94547  0.26785  1.0000
  C   C2        1.0  0.14458  0.03436000000000001  0.30513  1.0000
  C   C3        1.0  0.09986000000000003  0.06047999999999997  0.25508  1.0000
  C   C4        1.0  0.16012  0.09237999999999998  0.38966  1.0000
  C   C5        1.0  0.07261  0.14326  0.2877  1.0000
  C   C6        1.0  0.1315  0.17498  0.42343  1.0000
  C   C7        1.0  0.08900000000000002  0.20033  0.3719  1.0000
  C   C8        1.0  0.00828  0.3228200000000001  0.4769  1.0000
  C   C9        1.0  0.09031  0.33297  0.37192  1.0000
  C   C10       1.0  0.98306  0.40499  0.51297  1.0000
  C   C11       1.0  0.06714  0.41581  0.40701  1.0000
  C   C12       1.0  0.01226  0.45617  0.48022  1.0000
  C   C13       1.0  0.17607  0.3222999999999999  0.05461  1.0000
  C   C14       1.0  0.14461  0.27072  0.9657  1.0000
  C   C15       1.0  0.09991  0.19459000000000012  0.9396  1.0000
  C   C16       1.0  0.16015  0.29721  0.90763  1.0000
  C   C17       1.0  0.07275  0.1445  0.85681  1.0000
  C   C18       1.0  0.13161  0.24846  0.82503  1.0000
  C   C19       1.0  0.08917000000000003  0.17159  0.79967  1.0000
  C   C20       1.0  0.00837  0.15407  0.67713  1.0000
  C   C21       1.0  0.09043  0.03900999999999999  0.66707  1.0000
  C   C22       1.0  0.98308  0.10797  0.59498  1.0000
  C   C23       1.0  0.06719  0.9912600000000001  0.5842600000000002  1.0000
  C   C24       1.0  0.01229  0.024069999999999994  0.54382  1.0000
  C   C25       1.0  0.17609000000000002  0.73209  0.67757  1.0000
  C   C26       1.0  0.14447  0.69478  0.72926  1.0000
  C   C27       1.0  0.09983000000000003  0.74485  0.80546  1.0000
  C   C28       1.0  0.16007  0.61023  0.70284  1.0000
  C   C29       1.0  0.07269  0.7122  0.85567  1.0000
  C   C30       1.0  0.13153  0.57642  0.75169  1.0000
  C   C31       1.0  0.0891  0.62799  0.82852  1.0000
  C   C32       1.0  0.00828  0.52303  0.84595  1.0000
  C   C33       1.0  0.09036000000000001  0.62803  0.96108  1.0000
  C   C34       1.0  0.9830300000000001  0.48696  0.89206  1.0000
  C   C35       1.0  0.06714  0.59295  0.00884  1.0000
  C   C36       1.0  0.01227  0.51976  0.97594  1.0000
  C   C37       1.0  0.32734  0.32275  0.268  1.0000
  C   C38       1.0  0.35726  0.27061  0.30525  1.0000
  C   C39       1.0  0.4011  0.19404  0.2551  1.0000
  C   C40       1.0  0.34072  0.29705  0.38966  1.0000
  C   C41       1.0  0.42745  0.14372  0.2878  1.0000
  C   C42       1.0  0.3684700000000001  0.24809999999999996  0.42356  1.0000
  C   C43       1.0  0.41091  0.17126  0.37205  1.0000
  C   C44       1.0  0.49172  0.1541  0.4771  1.0000
  C   C45       1.0  0.40982  0.038940000000000016  0.37202  1.0000
  C   C46       1.0  0.51703  0.10790000000000004  0.51309  1.0000
  C   C47       1.0  0.43303  0.99113  0.40705  1.0000
  C   C48       1.0  0.48777  0.024080000000000015  0.48023  1.0000
  C   C49       1.0  0.32732  0.73199  0.05478  1.0000
  C   C50       1.0  0.35722  0.69481  0.96548  1.0000
  C   C51       1.0  0.40112  0.7449399999999999  0.93906  1.0000
  C   C52       1.0  0.3407000000000001  0.61044  0.90759  1.0000
  C   C53       1.0  0.42755  0.7123  0.8561  1.0000
  C   C54       1.0  0.3685  0.57658  0.82479  1.0000
  C   C55       1.0  0.41102  0.62805  0.79938  1.0000
  C   C56       1.0  0.49171  0.52296  0.67709  1.0000
  C   C57       1.0  0.40988  0.62803  0.66699  1.0000
  C   C58       1.0  0.517  0.48698  0.59492  1.0000
  C   C59       1.0  0.43303  0.593  0.58416  1.0000
  C   C60       1.0  0.48778  0.51979  0.54386  1.0000
  C   C61       1.0  0.3273700000000001  0.9451600000000001  0.67736  1.0000
  C   C62       1.0  0.35728  0.03446000000000002  0.72937  1.0000
  C   C63       1.0  0.40112  0.06088000000000001  0.80591  1.0000
  C   C64       1.0  0.34073  0.09241  0.7029  1.0000
  C   C65       1.0  0.42742  0.14385  0.85616  1.0000
  C   C66       1.0  0.36842  0.17521999999999993  0.75179  1.0000
  C   C67       1.0  0.41087  0.20064000000000007  0.82867  1.0000
  C   C68       1.0  0.49164  0.32297  0.84588  1.0000
  C   C69       1.0  0.40976  0.33299  0.96099  1.0000
  C   C70       1.0  0.51698  0.40511000000000014  0.89206  1.0000
  C   C71       1.0  0.43299  0.41579  0.00878  1.0000
  C   C72       1.0  0.48775  0.45615  0.97592  1.0000
  C   C73       1.0  0.82388  0.054530000000000016  0.73215  1.0000
  C   C74       1.0  0.8554100000000002  0.9656399999999999  0.69487  1.0000
  C   C75       1.0  0.90014  0.9395200000000001  0.74492  1.0000
  C   C76       1.0  0.8398700000000001  0.90762  0.61034  1.0000
  C   C77       1.0  0.92739  0.85674  0.7123  1.0000
  C   C78       1.0  0.8684900000000002  0.8250299999999999  0.57657  1.0000
  C   C79       1.0  0.91099  0.79967  0.6281  1.0000
  C   C80       1.0  0.99171  0.67718  0.5231  1.0000
  C   C81       1.0  0.90969  0.66703  0.62808  1.0000
  C   C82       1.0  0.016930000000000008  0.59501  0.48703  1.0000
  C   C83       1.0  0.93286  0.58419  0.59299  1.0000
  C   C84       1.0  0.98774  0.54383  0.51978  1.0000
  C   C85       1.0  0.82392  0.6777  0.94539  1.0000
  C   C86       1.0  0.85538  0.72928  0.0343  1.0000
  C   C87       1.0  0.9000800000000002  0.80541  0.0604  1.0000
  C   C88       1.0  0.83984  0.70279  0.09237  1.0000
  C   C89       1.0  0.92725  0.8555  0.14318  1.0000
  C   C90       1.0  0.86839  0.75154  0.17497  1.0000
  C   C91       1.0  0.9108300000000001  0.82841  0.20033  1.0000
  C   C92       1.0  0.99163  0.8459299999999998  0.32287  1.0000
  C   C93       1.0  0.90956  0.96099  0.33293  1.0000
  C   C94       1.0  0.01691  0.89203  0.40502  1.0000
  C   C95       1.0  0.9328000000000001  0.008739999999999996  0.41574  1.0000
  C   C96       1.0  0.9877100000000002  0.97593  0.45618  1.0000
  C   C97       1.0  0.8239  0.26792  0.32243  1.0000
  C   C98       1.0  0.8555300000000002  0.30522  0.27074  1.0000
  C   C99       1.0  0.90016  0.25515  0.19454  1.0000
  C   C100      1.0  0.83992  0.38977  0.29716  1.0000
  C   C101      1.0  0.92731  0.2878  0.14433  1.0000
  C   C102      1.0  0.86847  0.42358  0.24831  1.0000
  C   C103      1.0  0.9109  0.37201  0.17148  1.0000
  C   C104      1.0  0.99172  0.47697  0.15405  1.0000
  C   C105      1.0  0.90964  0.37197  0.03892  1.0000
  C   C106      1.0  0.01697  0.51304  0.10794  1.0000
  C   C107      1.0  0.93285  0.40705  0.99116  1.0000
  C   C108      1.0  0.98773  0.48024  0.02406  1.0000
  C   C109      1.0  0.6726500000000001  0.67725  0.732  1.0000
  C   C110      1.0  0.64273  0.72939  0.69475  1.0000
  C   C111      1.0  0.59889  0.8059600000000001  0.7449  1.0000
  C   C112      1.0  0.65927  0.70295  0.61034  1.0000
  C   C113      1.0  0.5725500000000002  0.85628  0.7122  1.0000
  C   C114      1.0  0.6315300000000003  0.7519000000000001  0.57644  1.0000
  C   C115      1.0  0.5890800000000003  0.82874  0.62795  1.0000
  C   C116      1.0  0.50828  0.8459000000000001  0.5229  1.0000
  C   C117      1.0  0.59018  0.9610599999999999  0.62798  1.0000
  C   C118      1.0  0.48296  0.8921  0.48691  1.0000
  C   C119      1.0  0.56697  0.008869999999999998  0.59295  1.0000
  C   C120      1.0  0.51223  0.97592  0.51977  1.0000
  C   C121      1.0  0.67267  0.26801  0.94522  1.0000
  C   C122      1.0  0.6427700000000002  0.30519  0.03452  1.0000
  C   C123      1.0  0.59887  0.25505999999999995  0.06094  1.0000
  C   C124      1.0  0.65929  0.38956  0.09241  1.0000
  C   C125      1.0  0.57245  0.2877  0.1439  1.0000
  C   C126      1.0  0.6315  0.42342  0.17521  1.0000
  C   C127      1.0  0.5889800000000001  0.37195  0.20062  1.0000
  C   C128      1.0  0.50828  0.47704  0.32291  1.0000
  C   C129      1.0  0.59012  0.37197  0.33301  1.0000
  C   C130      1.0  0.48300000000000004  0.51302  0.40508  1.0000
  C   C131      1.0  0.56696  0.40701  0.41584  1.0000
  C   C132      1.0  0.51221  0.48021  0.45614  1.0000
  C   C133      1.0  0.67262  0.05484000000000002  0.32264  1.0000
  C   C134      1.0  0.64272  0.9655399999999998  0.27063  1.0000
  C   C135      1.0  0.59887  0.9391200000000001  0.19409  1.0000
  C   C136      1.0  0.65926  0.90759  0.29709  1.0000
  C   C137      1.0  0.57257  0.85615  0.14383  1.0000
  C   C138      1.0  0.63158  0.82478  0.24821  1.0000
  C   C139      1.0  0.58912  0.79936  0.17133  1.0000
  C   C140      1.0  0.50835  0.6770299999999999  0.15412  1.0000
  C   C141      1.0  0.59023  0.66701  0.03901  1.0000
  C   C142      1.0  0.48302  0.59489  0.10794  1.0000
  C   C143      1.0  0.5670100000000001  0.58421  0.99122  1.0000
  C   C144      1.0  0.51224  0.54385  0.02408  1.0000
  N   N1        1.0  0.06192  0.28617  0.40667  1.0000
  N   N2        1.0  0.06209  0.12054999999999999  0.71383  1.0000
  N   N3        1.0  0.06195  0.59323  0.87957  1.0000
  N   N4        1.0  0.43802  0.12041  0.40698  1.0000
  N   N5        1.0  0.43806  0.59312  0.71359  1.0000
  N   N6        1.0  0.43791  0.28643000000000013  0.87949  1.0000
  N   N7        1.0  0.9380800000000002  0.71383  0.59333  1.0000
  N   N8        1.0  0.93791  0.87945  0.28617  1.0000
  N   N9        1.0  0.93804  0.40678000000000003  0.12043  1.0000
  N   N10       1.0  0.56197  0.8795899999999999  0.59302  1.0000
  N   N11       1.0  0.5619300000000003  0.40688  0.28641  1.0000
  N   N12       1.0  0.56209  0.71357  0.12051  1.0000
  Cl  Cl1       1.0  0.35796  0.7699  0.3115  1.0000
  Cl  Cl2       1.0  0.35794  0.54144  0.2301  1.0000
  Cl  Cl3       1.0  0.35788  0.68865  0.45866  1.0000
  Cl  Cl4       1.0  0.14264  0.54069  0.31075  1.0000
  Cl  Cl5       1.0  0.14259  0.68911  0.23003  1.0000
  Cl  Cl6       1.0  0.14261  0.7700000000000001  0.45926  1.0000
  Cl  Cl7       1.0  0.6420400000000002  0.23010999999999998  0.6885  1.0000
  Cl  Cl8       1.0  0.64205  0.45856  0.7699  1.0000
  Cl  Cl9       1.0  0.64211  0.31135  0.54134  1.0000
  Cl  Cl10      1.0  0.85736  0.45931  0.68925  1.0000
  Cl  Cl11      1.0  0.85741  0.31089  0.76997  1.0000
  Cl  Cl12      1.0  0.8573800000000003  0.23000999999999996  0.54074  1.0000
  O   O1        1.0  0.13977  0.8890799999999999  0.20114  1.0000
  O   O2        1.0  0.24047  0.9309300000000001  0.306  1.0000
  O   O3        1.0  0.13979  0.31193  0.11101  1.0000
  O   O4        1.0  0.24036  0.37498  0.0691  1.0000
  O   O5        1.0  0.13969  0.79876  0.6878  1.0000
  O   O6        1.0  0.24054000000000006  0.694  0.62502  1.0000
  O   O7        1.0  0.3642700000000001  0.31238  0.20154  1.0000
  O   O8        1.0  0.26349  0.37594  0.30622  1.0000
  O   O9        1.0  0.36429  0.7984  0.11082  1.0000
  O   O10       1.0  0.26349  0.69375  0.06978  1.0000
  O   O11       1.0  0.3642700000000001  0.88907  0.68773  1.0000
  O   O12       1.0  0.26349  0.93029  0.62423  1.0000
  O   O13       1.0  0.8602300000000002  0.11091999999999999  0.79886  1.0000
  O   O14       1.0  0.7595200000000002  0.06907  0.69399  1.0000
  O   O15       1.0  0.8602100000000003  0.68807  0.88899  1.0000
  O   O16       1.0  0.7596400000000002  0.62502  0.9309  1.0000
  O   O17       1.0  0.86031  0.20124  0.3122  1.0000
  O   O18       1.0  0.75946  0.306  0.37498  1.0000
  O   O19       1.0  0.63572  0.68762  0.79846  1.0000
  O   O20       1.0  0.7365  0.62406  0.69378  1.0000
  O   O21       1.0  0.63571  0.2016  0.88918  1.0000
  O   O22       1.0  0.73651  0.3062499999999999  0.93022  1.0000
  O   O23       1.0  0.63572  0.11093  0.31227  1.0000
  O   O24       1.0  0.73651  0.06971  0.37577  1.0000
