data_image0
_chemical_formula_structural       Co8H92C136N20O40
_chemical_formula_sum              "Co8 H92 C136 N20 O40"
_cell_length_a       13.63231
_cell_length_b       15.099920000000001
_cell_length_c       19.61077
_cell_angle_alpha    76.14854
_cell_angle_beta     69.64704
_cell_angle_gamma    63.16119000000001

_space_group_name_H-M_alt    "P 1"
_space_group_IT_number       1

loop_
  _space_group_symop_operation_xyz
  'x, y, z'

loop_
  _atom_site_type_symbol
  _atom_site_label
  _atom_site_symmetry_multiplicity
  _atom_site_fract_x
  _atom_site_fract_y
  _atom_site_fract_z
  _atom_site_occupancy
  Co  Co1       1.0  0.023630000000000023  0.08228999999999999  0.50434  1.0000
  Co  Co2       1.0  0.77687  0.14553999999999995  0.55432  1.0000
  Co  Co3       1.0  0.6102600000000001  0.41745  0.99545  1.0000
  Co  Co4       1.0  0.47584999999999983  0.35417000000000004  0.9468699999999999  1.0000
  Co  Co5       1.0  0.9742799999999999  0.9143  0.49506999999999995  1.0000
  Co  Co6       1.0  0.2286499999999999  0.8493  0.43991  1.0000
  Co  Co7       1.0  0.38295  0.58606  0.00564  1.0000
  Co  Co8       1.0  0.5172499999999999  0.65088  0.05996  1.0000
  H   H1        1.0  0.67702  0.19151  0.43384  1.0000
  H   H2        1.0  0.51157  0.18149  0.4155  1.0000
  H   H3        1.0  0.3862  0.13762000000000005  0.65126  1.0000
  H   H4        1.0  0.5546299999999998  0.15143000000000004  0.65937  1.0000
  H   H5        1.0  0.23129  0.16869  0.63497  1.0000
  H   H6        1.0  0.08267999999999992  0.12716000000000005  0.62117  1.0000
  H   H7        1.0  0.2651699999999999  0.058269999999999995  0.40909  1.0000
  H   H8        1.0  0.42168999999999995  0.09489000000000003  0.41277  1.0000
  H   H9        1.0  0.19496999999999998  0.19717  0.31373  1.0000
  H   H10       1.0  0.26559999999999995  0.30962  0.21252  1.0000
  H   H11       1.0  0.12757999999999997  0.44999  0.152  1.0000
  H   H12       1.0  0.9228  0.47596999999999995  0.19069  1.0000
  H   H13       1.0  0.45425000000000004  0.37763  0.4032  1.0000
  H   H14       1.0  0.27795  0.34915  0.43308  1.0000
  H   H15       1.0  0.16652999999999998  0.40663  0.34102  1.0000
  H   H16       1.0  0.22899999999999993  0.50016  0.22397  1.0000
  H   H17       1.0  0.02321000000000005  0.3583799999999999  0.47167  1.0000
  H   H18       1.0  0.023850000000000027  0.52412  0.41186  1.0000
  H   H19       1.0  0.8442300000000004  0.66004  0.3888  1.0000
  H   H20       1.0  0.6654499999999998  0.63154  0.42724  1.0000
  H   H21       1.0  0.8135  0.31715  0.34443  1.0000
  H   H22       1.0  0.56585  0.5015  0.22799  1.0000
  H   H23       1.0  0.64966  0.39592  0.5248  1.0000
  H   H24       1.0  0.30120999999999987  0.30792  0.06717  1.0000
  H   H25       1.0  0.10712999999999996  0.31901  0.08479  1.0000
  H   H26       1.0  0.1759299999999998  0.3618400000000001  0.84884  1.0000
  H   H27       1.0  0.36643  0.34707  0.84153  1.0000
  H   H28       1.0  0.03498999999999999  0.33102000000000004  0.8651  1.0000
  H   H29       1.0  0.8311499999999998  0.37185000000000007  0.8790499999999999  1.0000
  H   H30       1.0  0.73228  0.44214  0.09083  1.0000
  H   H31       1.0  0.9291899999999996  0.40598  0.0869  1.0000
  H   H32       1.0  0.7057399999999999  0.30296999999999996  0.18598  1.0000
  H   H33       1.0  0.7875199999999998  0.19075  0.28719  1.0000
  H   H34       1.0  0.72935  0.05041  0.34795  1.0000
  H   H35       1.0  0.58947  0.02421  0.30927  1.0000
  H   H36       1.0  0.23465  0.12206  0.09816  1.0000
  H   H37       1.0  0.060499999999999984  0.14934  0.06803  1.0000
  H   H38       1.0  0.91434  0.09194  0.16014  1.0000
  H   H39       1.0  0.95327  0.99907  0.27751  1.0000
  H   H40       1.0  0.8555499999999999  0.14013  0.02764  1.0000
  H   H41       1.0  0.9614399999999995  0.97466  0.08792  1.0000
  H   H42       1.0  0.89253  0.83978  0.11293999999999998  1.0000
  H   H43       1.0  0.7242799999999999  0.8680400000000001  0.07395  1.0000
  H   H44       1.0  0.47473999999999994  0.18243  0.15579  1.0000
  H   H45       1.0  0.2950400000000001  0.9978899999999998  0.27327  1.0000
  H   H46       1.0  0.5712499999999998  0.1037  0.97586  1.0000
  H   H47       1.0  0.32477  0.8074299999999999  0.56624  1.0000
  H   H48       1.0  0.48959999999999987  0.8180899999999999  0.58479  1.0000
  H   H49       1.0  0.6115  0.86897  0.34931  1.0000
  H   H50       1.0  0.4442800000000001  0.8542599999999999  0.34095  1.0000
  H   H51       1.0  0.7697499999999998  0.8331600000000001  0.36588  1.0000
  H   H52       1.0  0.9233699999999997  0.86587  0.38124  1.0000
  H   H53       1.0  0.7410199999999996  0.9364799999999999  0.5933  1.0000
  H   H54       1.0  0.5802199999999998  0.90758  0.58797  1.0000
  H   H55       1.0  0.80616  0.79809  0.6895  1.0000
  H   H56       1.0  0.73479  0.68793  0.79266  1.0000
  H   H57       1.0  0.87332  0.5477199999999998  0.85298  1.0000
  H   H58       1.0  0.07849000000000002  0.5201899999999998  0.81279  1.0000
  H   H59       1.0  0.54791  0.6183999999999998  0.60005  1.0000
  H   H60       1.0  0.7252299999999998  0.64529  0.57004  1.0000
  H   H61       1.0  0.83454  0.59037  0.66321  1.0000
  H   H62       1.0  0.7672900000000001  0.5029099999999999  0.78211  1.0000
  H   H63       1.0  0.97511  0.64224  0.52581  1.0000
  H   H64       1.0  0.9722499999999998  0.47746  0.58575  1.0000
  H   H65       1.0  0.14911999999999995  0.3417700000000001  0.61248  1.0000
  H   H66       1.0  0.32882  0.36884  0.57567  1.0000
  H   H67       1.0  0.1863599999999999  0.67971  0.65817  1.0000
  H   H68       1.0  0.43245  0.4990199999999999  0.77649  1.0000
  H   H69       1.0  0.3492399999999999  0.6016  0.4755  1.0000
  H   H70       1.0  0.69696  0.69331  0.9347  1.0000
  H   H71       1.0  0.8910699999999999  0.68274  0.91568  1.0000
  H   H72       1.0  0.82979  0.63124  0.15097  1.0000
  H   H73       1.0  0.6392600000000002  0.64583  0.15995  1.0000
  H   H74       1.0  0.9675799999999998  0.6682200000000001  0.13419  1.0000
  H   H75       1.0  0.16919  0.63542  0.11923  1.0000
  H   H76       1.0  0.27069000000000004  0.5633  0.90751  1.0000
  H   H77       1.0  0.07568999999999991  0.59248  0.9123800000000001  1.0000
  H   H78       1.0  0.29294000000000003  0.70256  0.81098  1.0000
  H   H79       1.0  0.21488  0.81297  0.70786  1.0000
  H   H80       1.0  0.27363999999999983  0.9532  0.64789  1.0000
  H   H81       1.0  0.41172  0.97996  0.68794  1.0000
  H   H82       1.0  0.7653600000000004  0.88302  0.90093  1.0000
  H   H83       1.0  0.9391899999999999  0.85601  0.93143  1.0000
  H   H84       1.0  0.08818999999999996  0.90896  0.83791  1.0000
  H   H85       1.0  0.05292999999999997  0.99648  0.71892  1.0000
  H   H86       1.0  0.14320999999999995  0.85816  0.97449  1.0000
  H   H87       1.0  0.036340000000000025  0.022669999999999996  0.91397  1.0000
  H   H88       1.0  0.10441000000000007  0.15828  0.88721  1.0000
  H   H89       1.0  0.2739599999999999  0.13122999999999999  0.92447  1.0000
  H   H90       1.0  0.5225699999999996  0.8209100000000001  0.84336  1.0000
  H   H91       1.0  0.70821  0.0001999999999999947  0.72421  1.0000
  H   H92       1.0  0.42617999999999995  0.89885  0.02535  1.0000
  C   C1        1.0  0.61065  0.1787  0.48017  1.0000
  C   C2        1.0  0.5176099999999998  0.1728  0.47074  1.0000
  C   C3        1.0  0.43462  0.15467999999999998  0.5321  1.0000
  C   C4        1.0  0.44661000000000006  0.15111  0.60108  1.0000
  C   C5        1.0  0.5414300000000002  0.15828  0.60652  1.0000
  C   C6        1.0  0.34168999999999994  0.13552  0.52506  1.0000
  C   C7        1.0  0.24346999999999977  0.14405  0.58375  1.0000
  C   C8        1.0  0.15993  0.12089  0.57702  1.0000
  C   C9        1.0  0.26151  0.08203  0.45838  1.0000
  C   C10       1.0  0.3487799999999998  0.10419  0.46088  1.0000
  C   C11       1.0  0.9857699999999996  0.20064  0.36931  1.0000
  C   C12       1.0  0.022719999999999994  0.27021  0.30757  1.0000
  C   C13       1.0  0.13720999999999997  0.25791  0.2853  1.0000
  C   C14       1.0  0.17623  0.32082  0.22926  1.0000
  C   C15       1.0  0.09852999999999999  0.39975  0.19543  1.0000
  C   C16       1.0  0.9837299999999999  0.41489  0.21655  1.0000
  C   C17       1.0  0.9444399999999995  0.35074999999999995  0.27252  1.0000
  C   C18       1.0  0.74334  0.42344  0.26625  1.0000
  C   C19       1.0  0.6302499999999998  0.41574000000000005  0.31319  1.0000
  C   C20       1.0  0.4419100000000001  0.45419  0.29718  1.0000
  C   C21       1.0  0.40408  0.40399  0.36454  1.0000
  C   C22       1.0  0.30538999999999994  0.38774  0.38048  1.0000
  C   C23       1.0  0.2420600000000001  0.42113999999999996  0.32982  1.0000
  C   C24       1.0  0.27718000000000004  0.47318  0.26408  1.0000
  C   C25       1.0  0.37570000000000003  0.49192  0.24622  1.0000
  C   C26       1.0  0.40252999999999994  0.54985  0.17373  1.0000
  C   C27       1.0  0.85506  0.29993  0.51811  1.0000
  C   C28       1.0  0.8452599999999997  0.4023999999999999  0.48578  1.0000
  C   C29       1.0  0.94545  0.41981  0.4624599999999999  1.0000
  C   C30       1.0  0.9458800000000002  0.51176  0.42834  1.0000
  C   C31       1.0  0.8448199999999999  0.5879  0.41554  1.0000
  C   C32       1.0  0.74421  0.57323  0.43718  1.0000
  C   C33       1.0  0.7427499999999998  0.48096000000000005  0.47325  1.0000
  C   C34       1.0  0.54073  0.52401  0.48312999999999995  1.0000
  C   C35       1.0  0.26877  0.3207499999999999  0.02065  1.0000
  C   C36       1.0  0.16032000000000002  0.32719  0.02966  1.0000
  C   C37       1.0  0.1212  0.34528000000000003  0.9680399999999999  1.0000
  C   C38       1.0  0.19915  0.3483399999999999  0.8992  1.0000
  C   C39       1.0  0.30663  0.34065000000000006  0.8941900000000002  1.0000
  C   C40       1.0  0.0020899999999999985  0.36471  0.97485  1.0000
  C   C41       1.0  0.9712299999999999  0.3558  0.91626  1.0000
  C   C42       1.0  0.8578399999999999  0.37863  0.92308  1.0000
  C   C43       1.0  0.8017400000000001  0.41820999999999997  0.04155  1.0000
  C   C44       1.0  0.91363  0.3962899999999999  0.03895  1.0000
  C   C45       1.0  0.55462  0.29974  0.13092  1.0000
  C   C46       1.0  0.59998  0.23004  0.19245  1.0000
  C   C47       1.0  0.68007  0.24237  0.21453  1.0000
  C   C48       1.0  0.72606  0.17952000000000004  0.27054  1.0000
  C   C49       1.0  0.69353  0.10059999999999998  0.30451  1.0000
  C   C50       1.0  0.6151599999999998  0.08526999999999998  0.28342  1.0000
  C   C51       1.0  0.56754  0.14934  0.22753000000000004  1.0000
  C   C52       1.0  0.43239  0.07691999999999999  0.23466000000000004  1.0000
  C   C53       1.0  0.3579299999999999  0.08462  0.18824  1.0000
  C   C54       1.0  0.1929699999999999  0.0453  0.20412  1.0000
  C   C55       1.0  0.17242000000000002  0.09536  0.13675  1.0000
  C   C56       1.0  0.07369999999999999  0.11112  0.12071  1.0000
  C   C57       1.0  0.99305  0.07774  0.17132  1.0000
  C   C58       1.0  0.014309999999999998  0.026039999999999997  0.23711  1.0000
  C   C59       1.0  0.11365999999999994  0.007330000000000001  0.25484  1.0000
  C   C60       1.0  0.12672999999999995  0.94865  0.3267  1.0000
  C   C61       1.0  0.67298  0.19978000000000004  0.9831  1.0000
  C   C62       1.0  0.73397  0.09707  0.01496  1.0000
  C   C63       1.0  0.8289999999999998  0.07918  0.03763  1.0000
  C   C64       1.0  0.8869899999999996  0.9873  0.07199  1.0000
  C   C65       1.0  0.8483499999999999  0.9116  0.08558  1.0000
  C   C66       1.0  0.75459  0.92641  0.06402  1.0000
  C   C67       1.0  0.69715  0.01865  0.02781  1.0000
  C   C68       1.0  0.5479399999999999  0.9759399999999999  0.01769  1.0000
  C   C69       1.0  0.39006  0.8220099999999999  0.51994  1.0000
  C   C70       1.0  0.48307  0.82823  0.5295  1.0000
  C   C71       1.0  0.5653500000000002  0.84834  0.46854  1.0000
  C   C72       1.0  0.5522899999999996  0.85374  0.39951  1.0000
  C   C73       1.0  0.45779  0.84609  0.39389  1.0000
  C   C74       1.0  0.6594499999999994  0.866  0.47592000000000007  1.0000
  C   C75       1.0  0.75856  0.85597  0.41758  1.0000
  C   C76       1.0  0.8453199999999998  0.8739999999999999  0.42507  1.0000
  C   C77       1.0  0.7437399999999997  0.91384  0.54385  1.0000
  C   C78       1.0  0.6539599999999999  0.89607  0.5402  1.0000
  C   C79       1.0  0.014730000000000056  0.79424  0.63272  1.0000
  C   C80       1.0  0.9782499999999997  0.72518  0.69545  1.0000
  C   C81       1.0  0.8636699999999999  0.7379  0.71835  1.0000
  C   C82       1.0  0.82442  0.67608  0.7753  1.0000
  C   C83       1.0  0.9023899999999997  0.5972500000000001  0.80893  1.0000
  C   C84       1.0  0.01748  0.58136  0.78703  1.0000
  C   C85       1.0  0.056590000000000154  0.6451999999999998  0.73065  1.0000
  C   C86       1.0  0.25742  0.57397  0.73674  1.0000
  C   C87       1.0  0.37012  0.58253  0.69029  1.0000
  C   C88       1.0  0.5572899999999998  0.5454500000000001  0.70745  1.0000
  C   C89       1.0  0.5969699999999999  0.59327  0.6393  1.0000
  C   C90       1.0  0.69627  0.60866  0.62326  1.0000
  C   C91       1.0  0.7582599999999998  0.5768999999999997  0.67457  1.0000
  C   C92       1.0  0.7207199999999997  0.5279199999999998  0.74129  1.0000
  C   C93       1.0  0.62165  0.51006  0.75937  1.0000
  C   C94       1.0  0.5919799999999998  0.45602  0.83307  1.0000
  C   C95       1.0  0.14516999999999997  0.69941  0.48173  1.0000
  C   C96       1.0  0.15263000000000002  0.59744  0.51385  1.0000
  C   C97       1.0  0.05210000000000002  0.58079  0.53604  1.0000
  C   C98       1.0  0.05032  0.48935  0.57038  1.0000
  C   C99       1.0  0.15002999999999997  0.4131699999999999  0.58501  1.0000
  C   C100      1.0  0.25096000000000007  0.42706999999999995  0.56443  1.0000
  C   C101      1.0  0.25411  0.51849  0.52761  1.0000
  C   C102      1.0  0.45587999999999995  0.4747  0.51945  1.0000
  C   C103      1.0  0.7308000000000003  0.6786  0.9808799999999999  1.0000
  C   C104      1.0  0.8397199999999999  0.67233  0.97103  1.0000
  C   C105      1.0  0.88154  0.65213  0.03181  1.0000
  C   C106      1.0  0.80511  0.64648  0.10095  1.0000
  C   C107      1.0  0.69716  0.65418  0.10687  1.0000
  C   C108      1.0  0.0007099999999999779  0.63464  0.02432  1.0000
  C   C109      1.0  0.031190000000000037  0.6450299999999999  0.08265  1.0000
  C   C110      1.0  0.14341  0.62699  0.07538  1.0000
  C   C111      1.0  0.20101999999999998  0.58635  0.95678  1.0000
  C   C112      1.0  0.08984999999999993  0.6041799999999999  0.9602000000000002  1.0000
  C   C113      1.0  0.44004  0.70695  0.86851  1.0000
  C   C114      1.0  0.3980399999999999  0.77544  0.8054  1.0000
  C   C115      1.0  0.3192399999999999  0.76275  0.7823  1.0000
  C   C116      1.0  0.27525999999999995  0.82471  0.72535  1.0000
  C   C117      1.0  0.30828999999999984  0.90344  0.69182  1.0000
  C   C118      1.0  0.3857900000000001  0.91899  0.71375  1.0000
  C   C119      1.0  0.4319700000000001  0.8552599999999999  0.77028  1.0000
  C   C120      1.0  0.5682499999999998  0.9258100000000001  0.76434  1.0000
  C   C121      1.0  0.6429600000000001  0.9174799999999999  0.81089  1.0000
  C   C122      1.0  0.8099999999999997  0.95514  0.79345  1.0000
  C   C123      1.0  0.82878  0.9079299999999999  0.86179  1.0000
  C   C124      1.0  0.92731  0.89229  0.87805  1.0000
  C   C125      1.0  0.00950000000000001  0.9231899999999998  0.82664  1.0000
  C   C126      1.0  0.99015  0.97195  0.75978  1.0000
  C   C127      1.0  0.8913000000000001  0.99015  0.74156  1.0000
  C   C128      1.0  0.8818199999999999  0.0436  0.66766  1.0000
  C   C129      1.0  0.32503000000000004  0.80105  0.01976  1.0000
  C   C130      1.0  0.26391000000000003  0.90283  0.98676  1.0000
  C   C131      1.0  0.1693599999999999  0.91943  0.9640900000000001  1.0000
  C   C132      1.0  0.11092999999999993  0.010739999999999984  0.9293800000000001  1.0000
  C   C133      1.0  0.14918000000000003  0.08687  0.91478  1.0000
  C   C134      1.0  0.2433299999999999  0.07286  0.93554  1.0000
  C   C135      1.0  0.30086000000000024  0.98149  0.9725500000000001  1.0000
  C   C136      1.0  0.4513499999999998  0.024910000000000015  0.98032  1.0000
  N   N1        1.0  0.62476  0.16809  0.54713  1.0000
  N   N2        1.0  0.16867999999999989  0.08911  0.5156  1.0000
  N   N3        1.0  0.8292100000000001  0.36553  0.29761  1.0000
  N   N4        1.0  0.54617  0.46345  0.2784  1.0000
  N   N5        1.0  0.64301  0.46493  0.4970800000000001  1.0000
  N   N6        1.0  0.33979999999999994  0.33085  0.95382  1.0000
  N   N7        1.0  0.7733199999999999  0.41065  0.98445  1.0000
  N   N8        1.0  0.49213000000000007  0.13436  0.20267  1.0000
  N   N9        1.0  0.2874300000000001  0.03635  0.223  1.0000
  N   N10       1.0  0.60527  0.03482  0.00391  1.0000
  N   N11       1.0  0.37503  0.83413  0.45299  1.0000
  N   N12       1.0  0.8385599999999996  0.90285  0.48732  1.0000
  N   N13       1.0  0.17168  0.63097  0.70523  1.0000
  N   N14       1.0  0.45319  0.53623  0.72596  1.0000
  N   N15       1.0  0.35436  0.53352  0.50446  1.0000
  N   N16       1.0  0.6612000000000001  0.66627  0.04789  1.0000
  N   N17       1.0  0.22804  0.5975899999999998  0.01333  1.0000
  N   N18       1.0  0.50729  0.86939  0.79593  1.0000
  N   N19       1.0  0.71542  0.96378  0.77494  1.0000
  N   N20       1.0  0.39306999999999986  0.96643  0.99564  1.0000
  O   O1        1.0  0.09616  0.9379899999999999  0.49265  1.0000
  O   O2        1.0  0.0656  0.13109  0.39662  1.0000
  O   O3        1.0  0.8816099999999996  0.21437  0.39238  1.0000
  O   O4        1.0  0.48459999999999986  0.5798700000000001  0.15905  1.0000
  O   O5        1.0  0.34221  0.56922  0.13148  1.0000
  O   O6        1.0  0.6234699999999999  0.36755  0.37415  1.0000
  O   O7        1.0  0.75041  0.47542  0.20636  1.0000
  O   O8        1.0  0.7637100000000001  0.2816600000000001  0.54244  1.0000
  O   O9        1.0  0.9533300000000001  0.23345999999999997  0.51919  1.0000
  O   O10       1.0  0.51408  0.60658  0.44704000000000005  1.0000
  O   O11       1.0  0.52663  0.56243  0.006899999999999999  1.0000
  O   O12       1.0  0.5911899999999998  0.36991  0.10396  1.0000
  O   O13       1.0  0.4875399999999999  0.2856400000000001  0.10782  1.0000
  O   O14       1.0  0.22476000000000007  0.9189699999999998  0.34043  1.0000
  O   O15       1.0  0.04444000000000014  0.9282299999999999  0.36932  1.0000
  O   O16       1.0  0.36304  0.13338  0.1275  1.0000
  O   O17       1.0  0.43159  0.02557  0.29479  1.0000
  O   O18       1.0  0.5875799999999998  0.21814  0.9589000000000001  1.0000
  O   O19       1.0  0.70559  0.26631  0.98229  1.0000
  O   O20       1.0  0.5666799999999999  0.89378  0.0543  1.0000
  O   O21       1.0  0.8997199999999999  0.048330000000000005  0.50199  1.0000
  O   O22       1.0  0.93417  0.86232  0.60591  1.0000
  O   O23       1.0  0.11909999999999994  0.7803900000000001  0.60931  1.0000
  O   O24       1.0  0.5131000000000001  0.42274999999999996  0.84726  1.0000
  O   O25       1.0  0.6475100000000001  0.44357  0.87705  1.0000
  O   O26       1.0  0.37779000000000024  0.62975  0.62901  1.0000
  O   O27       1.0  0.2508499999999999  0.52178  0.79663  1.0000
  O   O28       1.0  0.23831999999999987  0.7143300000000001  0.4543499999999999  1.0000
  O   O29       1.0  0.046180000000000034  0.7673899999999999  0.48366999999999993  1.0000
  O   O30       1.0  0.48161999999999977  0.3929  0.55655  1.0000
  O   O31       1.0  0.44916  0.45225000000000004  0.9981600000000002  1.0000
  O   O32       1.0  0.40148  0.6384099999999999  0.8951400000000002  1.0000
  O   O33       1.0  0.5057  0.7219699999999999  0.8925600000000001  1.0000
  O   O34       1.0  0.78358  0.07716000000000002  0.65375  1.0000
  O   O35       1.0  0.9691599999999999  0.05523000000000001  0.62336  1.0000
  O   O36       1.0  0.6364399999999999  0.87075  0.87233  1.0000
  O   O37       1.0  0.5701400000000001  0.9774499999999999  0.70419  1.0000
  O   O38       1.0  0.4046799999999999  0.7861  0.04811  1.0000
  O   O39       1.0  0.2960499999999999  0.73314  0.01746  1.0000
  O   O40       1.0  0.43357999999999997  0.10614  0.94256  1.0000
