data_image0
_chemical_formula_structural       Cu12H96C144N36O24
_chemical_formula_sum              "Cu12 H96 C144 N36 O24"
_cell_length_a       17.4303
_cell_length_b       17.43379
_cell_length_c       20.99064
_cell_angle_alpha    114.45576000000001
_cell_angle_beta     114.46826
_cell_angle_gamma    89.97474999999999

_symmetry_space_group_name_H-M    'P 1'
_symmetry_Int_Tables_number       1

loop_
  _symmetry_equiv_pos_as_xyz
  'x,y,z'

loop_
  _atom_site_type_symbol
  _atom_site_label
  _atom_site_symmetry_multiplicity
  _atom_site_fract_x
  _atom_site_fract_y
  _atom_site_fract_z
  _atom_site_occupancy
  Cu  Cu1       1.0  0.69624  0.12211000000000001  0.23063  1.0000
  Cu  Cu2       1.0  0.72402  0.93468  0.13466  1.0000
  Cu  Cu3       1.0  0.60077  0.03389  0.04405  1.0000
  Cu  Cu4       1.0  0.5348199999999999  0.10825999999999998  0.23071  1.0000
  Cu  Cu5       1.0  0.40979  0.20034  0.13473  1.0000
  Cu  Cu6       1.0  0.4437  0.01085  0.04467  1.0000
  Cu  Cu7       1.0  0.8914099999999998  0.30384  0.76876  1.0000
  Cu  Cu8       1.0  0.79937  0.27621  0.86512  1.0000
  Cu  Cu9       1.0  0.98895  0.39843  0.95486  1.0000
  Cu  Cu10      1.0  0.87851  0.46513  0.76996  1.0000
  Cu  Cu11      1.0  0.06494  0.59051  0.86545  1.0000
  Cu  Cu12      1.0  0.9661999999999998  0.5569  0.95666  1.0000
  H   H1        1.0  0.19179000000000004  0.22371000000000005  0.9881200000000001  1.0000
  H   H2        1.0  0.24800000000000005  0.26454999999999995  0.95154  1.0000
  H   H3        1.0  0.29952999999999996  0.28602  0.05233  1.0000
  H   H4        1.0  0.7858199999999997  0.21989  0.3957  1.0000
  H   H5        1.0  0.8771500000000001  0.21077  0.47035  1.0000
  H   H6        1.0  0.77143  0.16755  0.44798  1.0000
  H   H7        1.0  0.6470199999999999  0.3581  0.31811  1.0000
  H   H8        1.0  0.7326999999999998  0.39141  0.30376  1.0000
  H   H9        1.0  0.73432  0.30402  0.32677  1.0000
  H   H10       1.0  0.8449600000000002  0.039970000000000026  0.60886  1.0000
  H   H11       1.0  0.94895  0.06409000000000002  0.74495  1.0000
  H   H12       1.0  0.17805  0.07100999999999999  0.53004  1.0000
  H   H13       1.0  0.82454  0.83481  0.21676  1.0000
  H   H14       1.0  0.88562  0.86027  0.31786  1.0000
  H   H15       1.0  0.93213  0.89714  0.27213  1.0000
  H   H16       1.0  0.77539  0.5241699999999999  0.14996  1.0000
  H   H17       1.0  0.5337999999999999  0.1306599999999999  0.95371  1.0000
  H   H18       1.0  0.54376  0.24314999999999995  0.9829299999999999  1.0000
  H   H19       1.0  0.4540799999999999  0.18390000000000006  0.97471  1.0000
  H   H20       1.0  0.28117  0.08436999999999993  0.66343  1.0000
  H   H21       1.0  0.38601  0.47828  0.14091  1.0000
  H   H22       1.0  0.34078  0.94953  0.81216  1.0000
  H   H23       1.0  0.25100000000000006  0.9022799999999999  0.8129  1.0000
  H   H24       1.0  0.35757  0.90814  0.88059  1.0000
  H   H25       1.0  0.7960099999999999  0.7643599999999999  0.9882499999999999  1.0000
  H   H26       1.0  0.7033600000000001  0.68707  0.9518000000000001  1.0000
  H   H27       1.0  0.7524199999999998  0.76611  0.05254  1.0000
  H   H28       1.0  0.61057  0.17579000000000003  0.39618  1.0000
  H   H29       1.0  0.59346  0.25942999999999994  0.47054  1.0000
  H   H30       1.0  0.67654  0.28049  0.44782  1.0000
  H   H31       1.0  0.67104  0.9591599999999999  0.31783  1.0000
  H   H32       1.0  0.57141  0.91179  0.3043  1.0000
  H   H33       1.0  0.59261  0.022039999999999994  0.32706  1.0000
  H   H34       1.0  0.7640499999999998  0.56845  0.60864  1.0000
  H   H35       1.0  0.79606  0.68039  0.74466  1.0000
  H   H36       1.0  0.35239  0.45933  0.53006  1.0000
  H   H37       1.0  0.39234  0.38176  0.21662  1.0000
  H   H38       1.0  0.43217  0.45738999999999996  0.31761  1.0000
  H   H39       1.0  0.34006  0.37503  0.27215  1.0000
  H   H40       1.0  0.37436  0.62534  0.14961  1.0000
  H   H41       1.0  0.42011  0.8235399999999999  0.95398  1.0000
  H   H42       1.0  0.43926  0.7400000000000001  0.98298  1.0000
  H   H43       1.0  0.5205099999999999  0.79092  0.9744999999999999  1.0000
  H   H44       1.0  0.38262  0.57917  0.66329  1.0000
  H   H45       1.0  0.7552  0.6627  0.14149  1.0000
  H   H46       1.0  0.47139999999999993  0.86243  0.81181  1.0000
  H   H47       1.0  0.5617099999999999  0.91045  0.81223  1.0000
  H   H48       1.0  0.52269  0.9720899999999999  0.87987  1.0000
  H   H49       1.0  0.23560999999999999  0.80778  0.01152  1.0000
  H   H50       1.0  0.31263  0.75139  0.04823  1.0000
  H   H51       1.0  0.23379000000000005  0.6999699999999999  0.9474100000000001  1.0000
  H   H52       1.0  0.8240899999999999  0.21372999999999995  0.60327  1.0000
  H   H53       1.0  0.74029  0.12257000000000004  0.52901  1.0000
  H   H54       1.0  0.71933  0.22832  0.5519  1.0000
  H   H55       1.0  0.04081000000000001  0.35276  0.68159  1.0000
  H   H56       1.0  0.08844000000000002  0.26702  0.69576  1.0000
  H   H57       1.0  0.97807  0.26535  0.67272  1.0000
  H   H58       1.0  0.43084  0.15499  0.39103  1.0000
  H   H59       1.0  0.31972  0.05106000000000003  0.25491  1.0000
  H   H60       1.0  0.54095  0.8221399999999999  0.47006  1.0000
  H   H61       1.0  0.61815  0.17537999999999995  0.78323  1.0000
  H   H62       1.0  0.54269  0.11445  0.6822  1.0000
  H   H63       1.0  0.6249699999999999  0.06771000000000002  0.72791  1.0000
  H   H64       1.0  0.37458  0.22470999999999994  0.85019  1.0000
  H   H65       1.0  0.17606  0.46601000000000004  0.04575  1.0000
  H   H66       1.0  0.25974  0.4562299999999999  0.01692  1.0000
  H   H67       1.0  0.20847  0.54573  0.02484  1.0000
  H   H68       1.0  0.42103  0.71922  0.33696  1.0000
  H   H69       1.0  0.33732  0.61381  0.85875  1.0000
  H   H70       1.0  0.13769  0.65977  0.18864  1.0000
  H   H71       1.0  0.0897  0.74961  0.18786  1.0000
  H   H72       1.0  0.028000000000000008  0.64315  0.12047000000000001  1.0000
  H   H73       1.0  0.77634  0.20364  0.01198  1.0000
  H   H74       1.0  0.73543  0.29633  0.04845  1.0000
  H   H75       1.0  0.71389  0.24719999999999998  0.94765  1.0000
  H   H76       1.0  0.78064  0.38981  0.60485  1.0000
  H   H77       1.0  0.7895200000000001  0.40655  0.53002  1.0000
  H   H78       1.0  0.8332600000000001  0.3234199999999999  0.55272  1.0000
  H   H79       1.0  0.64249  0.32912  0.6826  1.0000
  H   H80       1.0  0.6087  0.42874  0.6961  1.0000
  H   H81       1.0  0.6962299999999999  0.40746999999999994  0.6733500000000001  1.0000
  H   H82       1.0  0.9600299999999999  0.23576999999999998  0.39121  1.0000
  H   H83       1.0  0.93608  0.20386  0.2551  1.0000
  H   H84       1.0  0.9288899999999999  0.64735  0.46981  1.0000
  H   H85       1.0  0.16514  0.60773  0.7832  1.0000
  H   H86       1.0  0.13965000000000002  0.5677999999999999  0.6821  1.0000
  H   H87       1.0  0.10276999999999999  0.65999  0.72766  1.0000
  H   H88       1.0  0.47592  0.62548  0.85038  1.0000
  H   H89       1.0  0.86922  0.58012  0.04649  1.0000
  H   H90       1.0  0.7566999999999998  0.56084  0.01725  1.0000
  H   H91       1.0  0.8161999999999999  0.47966000000000003  0.02595  1.0000
  H   H92       1.0  0.91589  0.6173499999999998  0.33663  1.0000
  H   H93       1.0  0.52162  0.24481  0.85878  1.0000
  H   H94       1.0  0.04973  0.52805  0.18706  1.0000
  H   H95       1.0  0.09776  0.43802  0.18695  1.0000
  H   H96       1.0  0.09153  0.4767  0.11893000000000001  1.0000
  C   C1        1.0  0.57345  0.20988  0.07611  1.0000
  C   C2        1.0  0.57692  0.53178  0.14506  1.0000
  C   C3        1.0  0.8135899999999998  0.09429  0.36269  1.0000
  C   C4        1.0  0.31604  0.027729999999999966  0.90877  1.0000
  C   C5        1.0  0.66531  0.41979  0.15321  1.0000
  C   C6        1.0  0.83808  0.9649999999999999  0.29732  1.0000
  C   C7        1.0  0.51487  0.39663999999999994  0.13711  1.0000
  C   C8        1.0  0.007779999999999989  0.04970999999999999  0.46783  1.0000
  C   C9        1.0  0.2557299999999999  0.23782000000000011  0.99242  1.0000
  C   C10       1.0  0.81205  0.17747  0.42258  1.0000
  C   C11       1.0  0.29010999999999987  0.15769000000000005  0.9712100000000001  1.0000
  C   C12       1.0  0.60261  0.28911  0.14366  1.0000
  C   C13       1.0  0.6529699999999998  0.50111  0.14784  1.0000
  C   C14       1.0  0.26702  0.08864  0.89693  1.0000
  C   C15       1.0  0.09220000000000002  0.06852999999999997  0.674  1.0000
  C   C16       1.0  0.06668999999999994  0.05899999999999998  0.5467  1.0000
  C   C17       1.0  0.11968  0.0799  0.80543  1.0000
  C   C18       1.0  0.6923  0.33523  0.29371  1.0000
  C   C19       1.0  0.5094  0.48345999999999995  0.14243  1.0000
  C   C20       1.0  0.9140199999999998  0.04891999999999998  0.6275  1.0000
  C   C21       1.0  0.972  0.061850000000000016  0.70342  1.0000
  C   C22       1.0  0.060049999999999985  0.07038000000000001  0.7264  1.0000
  C   C23       1.0  0.64733  0.27375  0.20857  1.0000
  C   C24       1.0  0.2426  0.08255999999999995  0.77281  1.0000
  C   C25       1.0  0.18141999999999994  0.07634  0.69583  1.0000
  C   C26       1.0  0.15498  0.06966  0.57054  1.0000
  C   C27       1.0  0.87175  0.88462  0.27448  1.0000
  C   C28       1.0  0.71694  0.54812  0.14715  1.0000
  C   C29       1.0  0.52352  0.19076999999999983  0.9923399999999999  1.0000
  C   C30       1.0  0.8601099999999998  0.0313  0.37261  1.0000
  C   C31       1.0  0.03380999999999999  0.05816000000000001  0.59792  1.0000
  C   C32       1.0  0.8824200000000001  0.03128999999999998  0.49462000000000006  1.0000
  C   C33       1.0  0.94411  0.046719999999999984  0.57488  1.0000
  C   C34       1.0  0.21218999999999996  0.07761  0.64469  1.0000
  C   C35       1.0  0.43693999999999994  0.51671  0.14297  1.0000
  C   C36       1.0  0.3164  0.9422899999999998  0.85041  1.0000
  C   C37       1.0  0.50261  0.86622  0.07626  1.0000
  C   C38       1.0  0.5682  0.61305  0.14516  1.0000
  C   C39       1.0  0.54916  0.26796  0.36262  1.0000
  C   C40       1.0  0.59258  0.88086  0.90836  1.0000
  C   C41       1.0  0.48799  0.7331399999999998  0.15332  1.0000
  C   C42       1.0  0.45922999999999997  0.33209  0.29739  1.0000
  C   C43       1.0  0.6227799999999998  0.74073  0.13797  1.0000
  C   C44       1.0  0.461  0.41745  0.46797  1.0000
  C   C45       1.0  0.7363799999999999  0.7545499999999999  0.99259  1.0000
  C   C46       1.0  0.61079  0.24492999999999998  0.42267  1.0000
  C   C47       1.0  0.68083  0.81347  0.9712100000000001  1.0000
  C   C48       1.0  0.54099  0.85437  0.14383  1.0000
  C   C49       1.0  0.49485  0.64641  0.14778  1.0000
  C   C50       1.0  0.6295  0.80794  0.89674  1.0000
  C   C51       1.0  0.58206  0.6051499999999997  0.67387  1.0000
  C   C52       1.0  0.48048  0.48734999999999995  0.54658  1.0000
  C   C53       1.0  0.68556  0.72511  0.80535  1.0000
  C   C54       1.0  0.60147  0.95783  0.29391  1.0000
  C   C55       1.0  0.63326  0.6589399999999999  0.14285  1.0000
  C   C56       1.0  0.71368  0.57824  0.6274  1.0000
  C   C57       1.0  0.73156  0.64122  0.70328  1.0000
  C   C58       1.0  0.66645  0.65569  0.72631  1.0000
  C   C59       1.0  0.56117  0.9344299999999999  0.20876  1.0000
  C   C60       1.0  0.53028  0.6896  0.77281  1.0000
  C   C61       1.0  0.51467  0.61915  0.69574  1.0000
  C   C62       1.0  0.41595  0.50087  0.5704  1.0000
  C   C63       1.0  0.40280000000000005  0.38972  0.27446  1.0000
  C   C64       1.0  0.43006  0.59864  0.14688  1.0000
  C   C65       1.0  0.46890000000000004  0.80179  0.99246  1.0000
  C   C66       1.0  0.5133  0.3413  0.37264  1.0000
  C   C67       1.0  0.56441  0.53941  0.59781  1.0000
  C   C68       1.0  0.6129  0.46325  0.49462000000000006  1.0000
  C   C69       1.0  0.63117  0.52786  0.57484  1.0000
  C   C70       1.0  0.43286  0.56703  0.64453  1.0000
  C   C71       1.0  0.70625  0.6262299999999998  0.1434  1.0000
  C   C72       1.0  0.53387  0.9078699999999997  0.84985  1.0000
  C   C73       1.0  0.13351999999999992  0.4261099999999999  0.92342  1.0000
  C   C74       1.0  0.38693  0.4230099999999999  0.85487  1.0000
  C   C75       1.0  0.73204  0.18589999999999995  0.63707  1.0000
  C   C76       1.0  0.11926  0.6842999999999998  0.09187  1.0000
  C   C77       1.0  0.26674000000000003  0.3345199999999999  0.8464  1.0000
  C   C78       1.0  0.66803  0.16151  0.70255  1.0000
  C   C79       1.0  0.25943000000000005  0.4849  0.8624100000000001  1.0000
  C   C80       1.0  0.58256  0.99232  0.5318  1.0000
  C   C81       1.0  0.2452  0.74381  0.00728  1.0000
  C   C82       1.0  0.75496  0.18759  0.57695  1.0000
  C   C83       1.0  0.18625  0.7098  0.02874  1.0000
  C   C84       1.0  0.14546999999999996  0.39703  0.85589  1.0000
  C   C85       1.0  0.35353  0.34699  0.85208  1.0000
  C   C86       1.0  0.19193  0.73301  0.1033  1.0000
  C   C87       1.0  0.39475999999999994  0.9079699999999998  0.32609  1.0000
  C   C88       1.0  0.51253  0.93349  0.45331  1.0000
  C   C89       1.0  0.27508  0.88028  0.19446  1.0000
  C   C90       1.0  0.0422099999999999  0.30736  0.70584  1.0000
  C   C91       1.0  0.3411  0.49046  0.85732  1.0000
  C   C92       1.0  0.42139  0.08596999999999998  0.37247  1.0000
  C   C93       1.0  0.35874  0.02799000000000001  0.29649  1.0000
  C   C94       1.0  0.34436  0.93997  0.27353  1.0000
  C   C95       1.0  0.06545999999999998  0.35222  0.79094  1.0000
  C   C96       1.0  0.31029  0.7575799999999998  0.22735  1.0000
  C   C97       1.0  0.38081  0.8188199999999998  0.30432  1.0000
  C   C98       1.0  0.49920999999999993  0.84526  0.4296  1.0000
  C   C99       1.0  0.61033  0.12812  0.72549  1.0000
  C   C100      1.0  0.40132  0.28308  0.85293  1.0000
  C   C101      1.0  0.19782  0.47629  0.00722  1.0000
  C   C102      1.0  0.65898  0.13976999999999995  0.6272  1.0000
  C   C103      1.0  0.46035  0.9663199999999998  0.40213  1.0000
  C   C104      1.0  0.53666  0.11768999999999993  0.50534  1.0000
  C   C105      1.0  0.47182  0.055990000000000005  0.42515  1.0000
  C   C106      1.0  0.43304  0.78813  0.35557  1.0000
  C   C107      1.0  0.37379  0.56292  0.85683  1.0000
  C   C108      1.0  0.09226  0.68417  0.15043  1.0000
  C   C109      1.0  0.79016  0.49737000000000003  0.92424  1.0000
  C   C110      1.0  0.46820999999999996  0.43175999999999987  0.85495  1.0000
  C   C111      1.0  0.90599  0.45076999999999984  0.63767  1.0000
  C   C112      1.0  0.97221  0.40681999999999996  0.09092  1.0000
  C   C113      1.0  0.5803  0.51204  0.84709  1.0000
  C   C114      1.0  0.03491999999999998  0.54092  0.70273  1.0000
  C   C115      1.0  0.60327  0.37729  0.86251  1.0000
  C   C116      1.0  0.95032  0.5390199999999999  0.53219  1.0000
  C   C117      1.0  0.76216  0.26324  0.007580000000000001  1.0000
  C   C118      1.0  0.82298  0.38926  0.5779  1.0000
  C   C119      1.0  0.84223  0.31876  0.02869  1.0000
  C   C120      1.0  0.71103  0.45904  0.85659  1.0000
  C   C121      1.0  0.49893999999999994  0.5051  0.85237  1.0000
  C   C122      1.0  0.91126  0.37002  0.10294  1.0000
  C   C123      1.0  0.93146  0.41784  0.32596  1.0000
  C   C124      1.0  0.941  0.5193699999999999  0.45333  1.0000
  C   C125      1.0  0.92026  0.31431  0.19457  1.0000
  C   C126      1.0  0.66512  0.39866  0.70656  1.0000
  C   C127      1.0  0.51648  0.36672999999999994  0.85735  1.0000
  C   C128      1.0  0.95109  0.28616  0.37248  1.0000
  C   C129      1.0  0.9382299999999999  0.26833  0.29656  1.0000
  C   C130      1.0  0.9297  0.3334499999999999  0.27357  1.0000
  C   C131      1.0  0.7265599999999999  0.4389  0.79175  1.0000
  C   C132      1.0  0.9173699999999998  0.46963999999999995  0.2271  1.0000
  C   C133      1.0  0.9236499999999999  0.48527  0.30412  1.0000
  C   C134      1.0  0.93034  0.58386  0.42945  1.0000
  C   C135      1.0  0.11526000000000003  0.59731  0.72544  1.0000
  C   C136      1.0  0.45193999999999995  0.56982  0.85312  1.0000
  C   C137      1.0  0.80918  0.53125  0.00799  1.0000
  C   C138      1.0  0.96917  0.48668  0.62753  1.0000
  C   C139      1.0  0.9418299999999998  0.43543000000000004  0.40207  1.0000
  C   C140      1.0  0.9687899999999999  0.38697  0.50532  1.0000
  C   C141      1.0  0.9532599999999999  0.36868999999999996  0.42507  1.0000
  C   C142      1.0  0.92247  0.56704  0.35531  1.0000
  C   C143      1.0  0.48323  0.29376  0.85679  1.0000
  C   C144      1.0  0.05747999999999998  0.46563000000000004  0.14917  1.0000
  N   N1        1.0  0.76561  0.06678999999999997  0.28478  1.0000
  N   N2        1.0  0.78037  0.9875799999999999  0.24449  1.0000
  N   N3        1.0  0.36688000000000015  0.059239999999999945  0.9868900000000002  1.0000
  N   N4        1.0  0.5995699999999998  0.14904  0.09969  1.0000
  N   N5        1.0  0.64457  0.18814  0.18065  1.0000
  N   N6        1.0  0.35094  0.1387  0.02523  1.0000
  N   N7        1.0  0.20795000000000005  0.08215000000000003  0.82258  1.0000
  N   N8        1.0  0.59381  0.37092999999999987  0.14512  1.0000
  N   N9        1.0  0.91836  0.036259999999999994  0.44653  1.0000
  N   N10       1.0  0.51829  0.21716  0.28468  1.0000
  N   N11       1.0  0.46326  0.25628000000000006  0.24450000000000002  1.0000
  N   N12       1.0  0.62001  0.92775  0.9864800000000001  1.0000
  N   N13       1.0  0.50023  0.9506399999999999  0.09989  1.0000
  N   N14       1.0  0.53599  0.9921900000000001  0.18085  1.0000
  N   N15       1.0  0.6741  0.88666  0.02509  1.0000
  N   N16       1.0  0.61437  0.74001  0.82245  1.0000
  N   N17       1.0  0.55142  0.7740199999999999  0.1453  1.0000
  N   N18       1.0  0.52912  0.41012  0.4466  1.0000
  N   N19       1.0  0.78255  0.23347999999999994  0.71496  1.0000
  N   N20       1.0  0.74352  0.21883999999999995  0.75532  1.0000
  N   N21       1.0  0.07235  0.63355  0.0138  1.0000
  N   N22       1.0  0.04914999999999999  0.39988  0.89973  1.0000
  N   N23       1.0  0.0076299999999999805  0.35481  0.81877  1.0000
  N   N24       1.0  0.11317999999999985  0.64918  0.9750199999999999  1.0000
  N   N25       1.0  0.25996  0.79207  0.17748  1.0000
  N   N26       1.0  0.22586999999999993  0.406  0.85452  1.0000
  N   N27       1.0  0.59  0.08177  0.55332  1.0000
  N   N28       1.0  0.93296  0.48177  0.71563  1.0000
  N   N29       1.0  0.011939999999999971  0.537  0.75571  1.0000
  N   N30       1.0  0.9407  0.37945  0.01278  1.0000
  N   N31       1.0  0.85117  0.49975  0.9008  1.0000
  N   N32       1.0  0.81223  0.4638999999999999  0.81983  1.0000
  N   N33       1.0  0.8611799999999997  0.32551  0.97457  1.0000
  N   N34       1.0  0.9179299999999998  0.38542  0.17741  1.0000
  N   N35       1.0  0.62915  0.4484999999999999  0.85497  1.0000
  N   N36       1.0  0.96408  0.47087999999999997  0.55352  1.0000
  O   O1        1.0  0.8037700000000001  0.01538999999999997  0.46963  1.0000
  O   O2        1.0  0.45423  0.34834  0.12601  1.0000
  O   O3        1.0  0.7330699999999998  0.39406  0.16367  1.0000
  O   O4        1.0  0.32037  0.08674999999999994  0.79266  1.0000
  O   O5        1.0  0.09534000000000001  0.08403000000000001  0.85358  1.0000
  O   O6        1.0  0.033270000000000015  0.05289999999999999  0.42232  1.0000
  O   O7        1.0  0.66664  0.45449999999999996  0.46966  1.0000
  O   O8        1.0  0.67304  0.77847  0.12787  1.0000
  O   O9        1.0  0.43074  0.76933  0.16393  1.0000
  O   O10       1.0  0.47241  0.7048  0.79282  1.0000
  O   O11       1.0  0.75779  0.7689699999999999  0.85365  1.0000
  O   O12       1.0  0.39055  0.36809999999999987  0.42265  1.0000
  O   O13       1.0  0.54556  0.19632  0.53027  1.0000
  O   O14       1.0  0.22203999999999993  0.54548  0.87323  1.0000
  O   O15       1.0  0.23060999999999998  0.26662  0.83567  1.0000
  O   O16       1.0  0.29501  0.67987  0.20768  1.0000
  O   O17       1.0  0.23144000000000003  0.9045800000000002  0.14621  1.0000
  O   O18       1.0  0.63201  0.96677  0.57687  1.0000
  O   O19       1.0  0.98463  0.33318  0.53025  1.0000
  O   O20       1.0  0.65131  0.32729  0.8731  1.0000
  O   O21       1.0  0.60612  0.56944  0.83679  1.0000
  O   O22       1.0  0.91296  0.52749  0.20709  1.0000
  O   O23       1.0  0.91617  0.24209999999999998  0.14633  1.0000
  O   O24       1.0  0.9470199999999999  0.60977  0.57779  1.0000
