data_image0
_chemical_formula_structural       Ni9H90C144N18O36
_chemical_formula_sum              "Ni9 H90 C144 N18 O36"
_cell_length_a       11.26634
_cell_length_b       32.09282
_cell_length_c       32.052969999999995
_cell_angle_alpha    119.80641999999999
_cell_angle_beta     90.10625
_cell_angle_gamma    90.09296

_symmetry_space_group_name_H-M    'P 1'
_symmetry_Int_Tables_number       1

loop_
  _symmetry_equiv_pos_as_xyz
  'x,y,z'

loop_
  _atom_site_type_symbol
  _atom_site_label
  _atom_site_symmetry_multiplicity
  _atom_site_fract_x
  _atom_site_fract_y
  _atom_site_fract_z
  _atom_site_occupancy
  Ni  Ni1       1.0  0.9971000000000001  0.83834  0.67612  1.0000
  Ni  Ni2       1.0  0.08686000000000002  0.502  0.4945499999999999  1.0000
  Ni  Ni3       1.0  0.15158000000000002  0.6644  0.83025  1.0000
  Ni  Ni4       1.0  0.99528  0.83818  0.16169999999999995  1.0000
  Ni  Ni5       1.0  0.08622  0.9930899999999997  0.49686999999999987  1.0000
  Ni  Ni6       1.0  0.14876000000000003  0.1669399999999999  0.33461999999999986  1.0000
  Ni  Ni7       1.0  0.9966000000000003  0.32463  0.16117999999999993  1.0000
  Ni  Ni8       1.0  0.08591  0.5051  0.006259999999999998  1.0000
  Ni  Ni9       1.0  0.14631  0.16937  0.8327  1.0000
  H   H1        1.0  0.07371  0.7426699999999999  0.7442599999999998  1.0000
  H   H2        1.0  0.12457  0.58956  0.6610999999999998  1.0000
  H   H3        1.0  0.038829999999999996  0.6696599999999998  0.59008  1.0000
  H   H4        1.0  0.03603  0.92317  0.59462  1.0000
  H   H5        1.0  0.1179  0.07436999999999996  0.6645599999999999  1.0000
  H   H6        1.0  0.07015  0.004849999999999927  0.7487999999999998  1.0000
  H   H7        1.0  0.19297  0.84167  0.6135799999999999  1.0000
  H   H8        1.0  0.41590000000000005  0.8429  0.6125399999999999  1.0000
  H   H9        1.0  0.41071  0.8367299999999998  0.7441  1.0000
  H   H10       1.0  0.18830000000000002  0.8366  0.73991  1.0000
  H   H11       1.0  0.8053  0.9108900000000001  0.69706  1.0000
  H   H12       1.0  0.58337  0.9138999999999999  0.69667  1.0000
  H   H13       1.0  0.58135  0.76564  0.66184  1.0000
  H   H14       1.0  0.80304  0.76794  0.6607299999999999  1.0000
  H   H15       1.0  0.27631000000000006  0.57573  0.51564  1.0000
  H   H16       1.0  0.49884000000000006  0.5807299999999996  0.5166399999999999  1.0000
  H   H17       1.0  0.5059800000000001  0.42895  0.46803  1.0000
  H   H18       1.0  0.28327  0.4306  0.47017  1.0000
  H   H19       1.0  0.8964500000000001  0.48379999999999995  0.4220599999999999  1.0000
  H   H20       1.0  0.67404  0.4847099999999999  0.41803999999999997  1.0000
  H   H21       1.0  0.6691700000000002  0.5261  0.56836  1.0000
  H   H22       1.0  0.8918900000000002  0.5226299999999999  0.5657699999999999  1.0000
  H   H23       1.0  0.34411  0.6400699999999998  0.7567699999999999  1.0000
  H   H24       1.0  0.56652  0.63939  0.7543  1.0000
  H   H25       1.0  0.56473  0.68317  0.90515  1.0000
  H   H26       1.0  0.34279000000000004  0.6852499999999997  0.9020799999999998  1.0000
  H   H27       1.0  0.9535200000000003  0.72493  0.8249299999999999  1.0000
  H   H28       1.0  0.73034  0.7261099999999999  0.8245199999999998  1.0000
  H   H29       1.0  0.73669  0.5966  0.83409  1.0000
  H   H30       1.0  0.95926  0.60041  0.83326  1.0000
  H   H31       1.0  0.07159  0.0018199999999999241  0.2552199999999999  1.0000
  H   H32       1.0  0.12539000000000003  0.07221999999999995  0.40839  1.0000
  H   H33       1.0  0.03639  0.9217299999999998  0.32964  1.0000
  H   H34       1.0  0.03394  0.67143  0.07595  1.0000
  H   H35       1.0  0.11969000000000002  0.5920799999999999  0.9252799999999999  1.0000
  H   H36       1.0  0.07452  0.7454399999999999  0.9954799999999998  1.0000
  H   H37       1.0  0.19131  0.7718799999999998  0.15455  1.0000
  H   H38       1.0  0.41416000000000003  0.77037  0.15429  1.0000
  H   H39       1.0  0.40764  0.9107599999999998  0.16689999999999994  1.0000
  H   H40       1.0  0.18531  0.90584  0.16584  1.0000
  H   H41       1.0  0.80164  0.78609  0.09050999999999997  1.0000
  H   H42       1.0  0.5795600000000001  0.7836499999999997  0.08710999999999998  1.0000
  H   H43       1.0  0.57972  0.8986  0.23445999999999995  1.0000
  H   H44       1.0  0.80148  0.89408  0.23271  1.0000
  H   H45       1.0  0.27532  0.9413  0.42384  1.0000
  H   H46       1.0  0.49791  0.9382799999999997  0.41909999999999986  1.0000
  H   H47       1.0  0.50555  0.04104999999999997  0.5709899999999999  1.0000
  H   H48       1.0  0.28252  0.04054999999999987  0.5690799999999998  1.0000
  H   H49       1.0  0.8948100000000002  0.9381099999999998  0.51382  1.0000
  H   H50       1.0  0.67213  0.9343999999999998  0.51394  1.0000
  H   H51       1.0  0.66842  0.04546999999999999  0.47529  1.0000
  H   H52       1.0  0.8914300000000001  0.044999999999999964  0.47755999999999993  1.0000
  H   H53       1.0  0.3378900000000001  0.11681999999999995  0.35721999999999987  1.0000
  H   H54       1.0  0.55932  0.11339999999999995  0.3586699999999999  1.0000
  H   H55       1.0  0.56698  0.22261999999999998  0.31762  1.0000
  H   H56       1.0  0.34472  0.21909  0.31468  1.0000
  H   H57       1.0  0.9520200000000001  0.10065  0.27518  1.0000
  H   H58       1.0  0.7291800000000002  0.09759999999999998  0.2743499999999999  1.0000
  H   H59       1.0  0.73451  0.2371499999999999  0.4024899999999999  1.0000
  H   H60       1.0  0.9570500000000001  0.23374  0.39852  1.0000
  H   H61       1.0  0.07464  0.25459999999999994  0.9969199999999999  1.0000
  H   H62       1.0  0.12341000000000002  0.3375899999999998  0.9261099999999998  1.0000
  H   H63       1.0  0.036670000000000015  0.40824  0.07692999999999998  1.0000
  H   H64       1.0  0.034559999999999994  0.4050999999999998  0.3275299999999999  1.0000
  H   H65       1.0  0.12298  0.33396  0.4074399999999999  1.0000
  H   H66       1.0  0.07371  0.2514799999999999  0.2540299999999999  1.0000
  H   H67       1.0  0.19404000000000002  0.38566999999999996  0.22765999999999997  1.0000
  H   H68       1.0  0.4169900000000001  0.38542  0.23041  1.0000
  H   H69       1.0  0.40874  0.25687  0.09118999999999997  1.0000
  H   H70       1.0  0.18633000000000002  0.26196  0.09487  1.0000
  H   H71       1.0  0.8060500000000003  0.3032  0.21285  1.0000
  H   H72       1.0  0.5842000000000002  0.30261  0.21645  1.0000
  H   H73       1.0  0.57841  0.3381299999999999  0.10320999999999997  1.0000
  H   H74       1.0  0.80043  0.3402299999999998  0.10636999999999998  1.0000
  H   H75       1.0  0.27623  0.4842299999999999  0.05912  1.0000
  H   H76       1.0  0.49909000000000003  0.48348999999999986  0.06238999999999999  1.0000
  H   H77       1.0  0.50233  0.5314499999999998  0.9581799999999998  1.0000
  H   H78       1.0  0.27964  0.5291099999999999  0.9586199999999998  1.0000
  H   H79       1.0  0.8957000000000002  0.5772  0.060619999999999986  1.0000
  H   H80       1.0  0.67331  0.58166  0.06428999999999999  1.0000
  H   H81       1.0  0.6662  0.4316699999999999  0.9556199999999998  1.0000
  H   H82       1.0  0.8890500000000001  0.43392999999999987  0.9558699999999998  1.0000
  H   H83       1.0  0.33916  0.24216000000000004  0.88158  1.0000
  H   H84       1.0  0.5612  0.24570999999999996  0.8839299999999999  1.0000
  H   H85       1.0  0.5615100000000001  0.09542999999999993  0.7766699999999997  1.0000
  H   H86       1.0  0.33952000000000004  0.09734999999999981  0.7812099999999997  1.0000
  H   H87       1.0  0.9497100000000003  0.1763099999999999  0.8990599999999997  1.0000
  H   H88       1.0  0.72671  0.17725999999999992  0.9010699999999998  1.0000
  H   H89       1.0  0.73215  0.16504  0.76071  1.0000
  H   H90       1.0  0.95496  0.16572000000000006  0.76523  1.0000
  C   C1        1.0  0.05079000000000001  0.7111399999999999  0.6677399999999998  1.0000
  C   C2        1.0  0.07630000000000002  0.70967  0.7097599999999997  1.0000
  C   C3        1.0  0.10435000000000001  0.6661099999999998  0.70752  1.0000
  C   C4        1.0  0.10538  0.62365  0.6629699999999997  1.0000
  C   C5        1.0  0.08232  0.6249799999999996  0.6206799999999998  1.0000
  C   C6        1.0  0.05572  0.66878  0.62305  1.0000
  C   C7        1.0  0.021040000000000003  0.75807  0.67117  1.0000
  C   C8        1.0  0.13187  0.6650999999999999  0.7525199999999997  1.0000
  C   C9        1.0  0.08662  0.5795799999999997  0.5733799999999999  1.0000
  C   C10       1.0  0.047810000000000005  0.9594699999999997  0.6720199999999997  1.0000
  C   C11       1.0  0.05266  0.9571599999999998  0.62722  1.0000
  C   C12       1.0  0.07801  0.9984499999999998  0.6243799999999999  1.0000
  C   C13       1.0  0.09922  0.04213999999999993  0.6665499999999998  1.0000
  C   C14       1.0  0.09775  0.04433  0.7113  1.0000
  C   C15       1.0  0.0716  0.003020000000000007  0.714  1.0000
  C   C16       1.0  0.0186  0.91563  0.67498  1.0000
  C   C17       1.0  0.08187  0.99604  0.57672  1.0000
  C   C18       1.0  0.12349000000000003  0.0905199999999999  0.7560899999999998  1.0000
  C   C19       1.0  0.24536000000000005  0.84064  0.64163  1.0000
  C   C20       1.0  0.36905000000000004  0.8415199999999998  0.6414899999999998  1.0000
  C   C21       1.0  0.43184000000000006  0.8397199999999998  0.67835  1.0000
  C   C22       1.0  0.36635  0.8378199999999998  0.71448  1.0000
  C   C23       1.0  0.24279  0.8380599999999996  0.7126699999999998  1.0000
  C   C24       1.0  0.7522300000000001  0.8793399999999997  0.68858  1.0000
  C   C25       1.0  0.6286700000000001  0.8808099999999999  0.68856  1.0000
  C   C26       1.0  0.56363  0.8397099999999996  0.6788999999999997  1.0000
  C   C27       1.0  0.62743  0.79854  0.6695699999999998  1.0000
  C   C28       1.0  0.75102  0.7996499999999997  0.66928  1.0000
  C   C29       1.0  0.33131000000000005  0.54426  0.50547  1.0000
  C   C30       1.0  0.45490000000000014  0.54666  0.50594  1.0000
  C   C31       1.0  0.5210300000000001  0.50499  0.49254  1.0000
  C   C32       1.0  0.45863  0.4623099999999998  0.4789299999999999  1.0000
  C   C33       1.0  0.33501  0.46283999999999975  0.4798499999999999  1.0000
  C   C34       1.0  0.8420900000000001  0.49298  0.4534799999999999  1.0000
  C   C35       1.0  0.7185600000000001  0.4935499999999999  0.4516  1.0000
  C   C36       1.0  0.65301  0.50543  0.49311  1.0000
  C   C37       1.0  0.7159500000000002  0.51653  0.53514  1.0000
  C   C38       1.0  0.83954  0.5146999999999998  0.53407  1.0000
  C   C39       1.0  0.39652  0.65026  0.7889599999999998  1.0000
  C   C40       1.0  0.52004  0.6495  0.7877199999999998  1.0000
  C   C41       1.0  0.58395  0.66122  0.82968  1.0000
  C   C42       1.0  0.5195  0.6735099999999999  0.8715199999999999  1.0000
  C   C43       1.0  0.39607000000000003  0.6744399999999998  0.8701199999999999  1.0000
  C   C44       1.0  0.9015500000000001  0.6974  0.82699  1.0000
  C   C45       1.0  0.7778700000000001  0.69773  0.82666  1.0000
  C   C46       1.0  0.71559  0.66155  0.82977  1.0000
  C   C47       1.0  0.7811000000000001  0.6257999999999999  0.8322599999999999  1.0000
  C   C48       1.0  0.90469  0.6274199999999999  0.8314499999999998  1.0000
  C   C49       1.0  0.04912  0.9573499999999999  0.2875899999999999  1.0000
  C   C50       1.0  0.07444000000000002  0.0005499999999999481  0.2884499999999999  1.0000
  C   C51       1.0  0.10321  0.04187999999999992  0.3318399999999999  1.0000
  C   C52       1.0  0.10484  0.040009999999999886  0.3745699999999999  1.0000
  C   C53       1.0  0.0814  0.99677  0.37383  1.0000
  C   C54       1.0  0.05424  0.9553499999999998  0.33024  1.0000
  C   C55       1.0  0.018700000000000005  0.91352  0.24114999999999995  1.0000
  C   C56       1.0  0.13016  0.08798000000000003  0.33307  1.0000
  C   C57       1.0  0.08492  0.9950299999999999  0.4194499999999999  1.0000
  C   C58       1.0  0.04744  0.71342  0.04022999999999999  1.0000
  C   C59       1.0  0.05173  0.6708199999999997  0.04231  1.0000
  C   C60       1.0  0.07816  0.62716  0.00101  1.0000
  C   C61       1.0  0.10135000000000001  0.6260599999999997  0.9575799999999998  1.0000
  C   C62       1.0  0.10201  0.6687599999999996  0.9557399999999998  1.0000
  C   C63       1.0  0.07475  0.7123599999999998  0.99703  1.0000
  C   C64       1.0  0.016030000000000003  0.7598399999999997  0.08392  1.0000
  C   C65       1.0  0.08165000000000001  0.5818799999999997  0.00321  1.0000
  C   C66       1.0  0.13025  0.66731  0.90959  1.0000
  C   C67       1.0  0.24338  0.80168  0.15713999999999997  1.0000
  C   C68       1.0  0.36699000000000004  0.80107  0.15673999999999993  1.0000
  C   C69       1.0  0.42944000000000004  0.84063  0.16056999999999996  1.0000
  C   C70       1.0  0.36362000000000005  0.8792599999999998  0.16411999999999993  1.0000
  C   C71       1.0  0.24007000000000003  0.87677  0.16323  1.0000
  C   C72       1.0  0.7489500000000002  0.8097599999999999  0.12174999999999997  1.0000
  C   C73       1.0  0.6253899999999999  0.8087999999999997  0.12007999999999998  1.0000
  C   C74       1.0  0.56107  0.84106  0.16079  1.0000
  C   C75       1.0  0.62552  0.87299  0.20184  1.0000
  C   C76       1.0  0.74908  0.8709399999999998  0.20098999999999995  1.0000
  C   C77       1.0  0.33043  0.9627699999999998  0.45537  1.0000
  C   C78       1.0  0.45399  0.96132  0.4531499999999999  1.0000
  C   C79       1.0  0.5201  0.9897  0.4949599999999999  1.0000
  C   C80       1.0  0.45796000000000003  0.01849  0.5376  1.0000
  C   C81       1.0  0.33431000000000005  0.018390000000000004  0.53688  1.0000
  C   C82       1.0  0.84064  0.9610699999999999  0.5054399999999999  1.0000
  C   C83       1.0  0.71705  0.9592799999999999  0.5054399999999999  1.0000
  C   C84       1.0  0.65196  0.9898099999999996  0.49453999999999987  1.0000
  C   C85       1.0  0.71501  0.021099999999999952  0.4840199999999999  1.0000
  C   C86       1.0  0.8386700000000002  0.02113  0.48521  1.0000
  C   C87       1.0  0.39227  0.13883999999999996  0.34772999999999993  1.0000
  C   C88       1.0  0.51564  0.13756  0.34893  1.0000
  C   C89       1.0  0.58186  0.168  0.33824  1.0000
  C   C90       1.0  0.51947  0.19851999999999995  0.3264899999999999  1.0000
  C   C91       1.0  0.39586000000000005  0.19696  0.32505  1.0000
  C   C92       1.0  0.89973  0.1298699999999999  0.3026299999999999  1.0000
  C   C93       1.0  0.77611  0.12842999999999993  0.3026  1.0000
  C   C94       1.0  0.7135300000000001  0.1674999999999999  0.3384399999999999  1.0000
  C   C95       1.0  0.7790700000000002  0.20615999999999995  0.37369999999999987  1.0000
  C   C96       1.0  0.9027000000000001  0.20448  0.37191  1.0000
  C   C97       1.0  0.050350000000000006  0.3310799999999999  0.04136999999999998  1.0000
  C   C98       1.0  0.07638  0.28911999999999977  0.9982699999999998  1.0000
  C   C99       1.0  0.10370000000000001  0.29146  0.95685  1.0000
  C   C100      1.0  0.10427  0.33591999999999994  0.9584999999999998  1.0000
  C   C101      1.0  0.08107  0.3781099999999999  0.0018099999999999995  1.0000
  C   C102      1.0  0.05456  0.3756  0.04321999999999999  1.0000
  C   C103      1.0  0.02026  0.32855  0.08534999999999998  1.0000
  C   C104      1.0  0.12995000000000004  0.24665999999999982  0.9109199999999997  1.0000
  C   C105      1.0  0.08457  0.42564  0.003999999999999999  1.0000
  C   C106      1.0  0.04899000000000001  0.32806  0.2860499999999999  1.0000
  C   C107      1.0  0.05287  0.3724599999999999  0.32867  1.0000
  C   C108      1.0  0.07938  0.3749799999999999  0.37258999999999987  1.0000
  C   C109      1.0  0.10310000000000002  0.33268  0.37361999999999995  1.0000
  C   C110      1.0  0.10244000000000003  0.2882999999999999  0.33093  1.0000
  C   C111      1.0  0.07519000000000002  0.28595999999999994  0.2871299999999999  1.0000
  C   C112      1.0  0.018760000000000002  0.32565  0.23959  1.0000
  C   C113      1.0  0.08246000000000002  0.4224499999999998  0.4178199999999999  1.0000
  C   C114      1.0  0.12881  0.24361999999999995  0.33255  1.0000
  C   C115      1.0  0.24581000000000003  0.35793  0.19842  1.0000
  C   C116      1.0  0.36938000000000004  0.35737999999999986  0.19969  1.0000
  C   C117      1.0  0.4312  0.32108  0.16068999999999994  1.0000
  C   C118      1.0  0.36498000000000014  0.28602  0.12211999999999998  1.0000
  C   C119      1.0  0.24155000000000004  0.28835  0.12394999999999998  1.0000
  C   C120      1.0  0.75211  0.31156  0.18983999999999995  1.0000
  C   C121      1.0  0.62863  0.311  0.19140999999999994  1.0000
  C   C122      1.0  0.5628  0.32056  0.16003  1.0000
  C   C123      1.0  0.6255800000000001  0.33035  0.12818  1.0000
  C   C124      1.0  0.7491500000000001  0.33122  0.12949  1.0000
  C   C125      1.0  0.33052000000000004  0.4943999999999999  0.03752  1.0000
  C   C126      1.0  0.45416  0.49406  0.03902  1.0000
  C   C127      1.0  0.51928  0.50731  0.01022  1.0000
  C   C128      1.0  0.45599  0.52069  0.9810899999999998  1.0000
  C   C129      1.0  0.33239  0.51963  0.9811599999999998  1.0000
  C   C130      1.0  0.84082  0.546  0.038079999999999996  1.0000
  C   C131      1.0  0.7172500000000002  0.54807  0.03988  1.0000
  C   C132      1.0  0.6512  0.50674  0.01002  1.0000
  C   C133      1.0  0.71348  0.46472999999999975  0.9794399999999998  1.0000
  C   C134      1.0  0.83716  0.4656399999999998  0.9793099999999998  1.0000
  C   C135      1.0  0.39208  0.21035999999999994  0.85975  1.0000
  C   C136      1.0  0.51553  0.21212  0.86047  1.0000
  C   C137      1.0  0.57976  0.1705799999999999  0.8303199999999997  1.0000
  C   C138      1.0  0.51556  0.12865999999999989  0.8005699999999998  1.0000
  C   C139      1.0  0.39205000000000007  0.12954999999999986  0.8026799999999997  1.0000
  C   C140      1.0  0.89737  0.17396999999999987  0.8694099999999999  1.0000
  C   C141      1.0  0.7737800000000001  0.17464999999999986  0.8702499999999997  1.0000
  C   C142      1.0  0.7113400000000001  0.17098999999999995  0.83072  1.0000
  C   C143      1.0  0.7767800000000001  0.1676  0.79205  1.0000
  C   C144      1.0  0.90037  0.16820999999999994  0.79434  1.0000
  N   N1        1.0  0.18287  0.83908  0.6767  1.0000
  N   N2        1.0  0.81351  0.8393399999999999  0.67871  1.0000
  N   N3        1.0  0.27162  0.50314  0.49294999999999994  1.0000
  N   N4        1.0  0.90231  0.5030799999999997  0.49393  1.0000
  N   N5        1.0  0.33466  0.66285  0.82956  1.0000
  N   N6        1.0  0.96439  0.66286  0.8293799999999998  1.0000
  N   N7        1.0  0.18039000000000002  0.8387999999999998  0.16015  1.0000
  N   N8        1.0  0.8109  0.84006  0.16158999999999996  1.0000
  N   N9        1.0  0.27092  0.9910499999999997  0.4964399999999999  1.0000
  N   N10       1.0  0.90103  0.99164  0.4957399999999999  1.0000
  N   N11       1.0  0.33241  0.16772  0.33564  1.0000
  N   N12       1.0  0.96251  0.16718  0.33674  1.0000
  N   N13       1.0  0.18263  0.32390999999999986  0.16123  1.0000
  N   N14       1.0  0.81238  0.32191  0.15974  1.0000
  N   N15       1.0  0.26996  0.50668  0.00883  1.0000
  N   N16       1.0  0.9004900000000001  0.50558  0.00807  1.0000
  N   N17       1.0  0.33038  0.1696899999999999  0.8316999999999998  1.0000
  N   N18       1.0  0.96007  0.171  0.8322  1.0000
  O   O1        1.0  0.006199999999999998  0.7604199999999997  0.6327799999999998  1.0000
  O   O2        1.0  0.011500000000000002  0.7958499999999997  0.71263  1.0000
  O   O3        1.0  0.14342000000000002  0.70476  0.7922499999999998  1.0000
  O   O4        1.0  0.14245  0.62485  0.7514499999999997  1.0000
  O   O5        1.0  0.09384  0.53924  0.57247  1.0000
  O   O6        1.0  0.08293  0.58109  0.53422  1.0000
  O   O7        1.0  0.011899999999999999  0.9179399999999996  0.7159099999999998  1.0000
  O   O8        1.0  0.0010599999999999963  0.8755599999999996  0.6360199999999998  1.0000
  O   O9        1.0  0.0832  0.9550899999999998  0.5381199999999999  1.0000
  O   O10       1.0  0.08388  0.035059999999999994  0.57488  1.0000
  O   O11       1.0  0.13689  0.12919  0.75408  1.0000
  O   O12       1.0  0.13157  0.09131000000000003  0.79635  1.0000
  O   O13       1.0  0.006260000000000002  0.8730099999999998  0.23944999999999997  1.0000
  O   O14       1.0  0.00605  0.91659  0.20298  1.0000
  O   O15       1.0  0.14064  0.08875  0.29359  1.0000
  O   O16       1.0  0.14177  0.12654999999999994  0.37364999999999987  1.0000
  O   O17       1.0  0.08929  0.03433  0.45983  1.0000
  O   O18       1.0  0.08294  0.9544299999999998  0.4180499999999999  1.0000
  O   O19       1.0  0.00609  0.79814  0.08134  1.0000
  O   O20       1.0  0.0005899999999999998  0.76088  0.12416999999999997  1.0000
  O   O21       1.0  0.08321000000000002  0.58379  0.04409  1.0000
  O   O22       1.0  0.08362  0.5413099999999998  0.9641299999999998  1.0000
  O   O23       1.0  0.14264000000000002  0.6266399999999995  0.8710799999999997  1.0000
  O   O24       1.0  0.14165  0.70647  0.9084899999999998  1.0000
  O   O25       1.0  0.00592  0.36732  0.12551  1.0000
  O   O26       1.0  0.010159999999999999  0.28749  0.08274999999999999  1.0000
  O   O27       1.0  0.13978  0.20666  0.91062  1.0000
  O   O28       1.0  0.14134000000000002  0.24822999999999995  0.8719799999999999  1.0000
  O   O29       1.0  0.08897000000000001  0.42737999999999987  0.9648999999999998  1.0000
  O   O30       1.0  0.08285  0.46425  0.04491999999999999  1.0000
  O   O31       1.0  0.01186  0.2849199999999999  0.20097999999999996  1.0000
  O   O32       1.0  0.0011099999999999999  0.3647599999999999  0.23872999999999994  1.0000
  O   O33       1.0  0.08344000000000001  0.46112  0.41542999999999997  1.0000
  O   O34       1.0  0.08443  0.42415  0.45863  1.0000
  O   O35       1.0  0.14252  0.24559  0.37325  1.0000
  O   O36       1.0  0.13684000000000002  0.20345  0.2933  1.0000
