data_image0
_chemical_formula_structural       Tb8H96C168O60
_chemical_formula_sum              "Tb8 H96 C168 O60"
_cell_length_a       15.16617
_cell_length_b       15.12986
_cell_length_c       23.56764
_cell_angle_alpha    85.18422999999999
_cell_angle_beta     80.54144
_cell_angle_gamma    87.58158

_space_group_name_H-M_alt    "P 1"
_space_group_IT_number       1

loop_
  _space_group_symop_operation_xyz
  'x, y, z'

loop_
  _atom_site_type_symbol
  _atom_site_label
  _atom_site_symmetry_multiplicity
  _atom_site_fract_x
  _atom_site_fract_y
  _atom_site_fract_z
  _atom_site_occupancy
  Tb  Tb1       1.0  0.29293  0.6439000000000002  0.76745  1.0000
  Tb  Tb2       1.0  0.2719  0.3943700000000001  0.7331000000000002  1.0000
  Tb  Tb3       1.0  0.16529999999999995  0.16448999999999997  0.7201900000000002  1.0000
  Tb  Tb4       1.0  0.18925  0.90871  0.72712  1.0000
  Tb  Tb5       1.0  0.70463  0.35749  0.23229000000000005  1.0000
  Tb  Tb6       1.0  0.7263899999999998  0.60824  0.26697000000000004  1.0000
  Tb  Tb7       1.0  0.8322899999999999  0.83726  0.28088  1.0000
  Tb  Tb8       1.0  0.81048  0.09032000000000005  0.27228  1.0000
  H   H1        1.0  0.8646899999999998  0.9179800000000002  0.69927  1.0000
  H   H2        1.0  0.94607  0.09613999999999996  0.8124700000000002  1.0000
  H   H3        1.0  0.82174  0.1945600000000001  0.4446300000000001  1.0000
  H   H4        1.0  0.66621  0.41626  0.38432  1.0000
  H   H5        1.0  0.6723199999999998  0.49013  0.47402000000000005  1.0000
  H   H6        1.0  0.8234  0.26651  0.53685  1.0000
  H   H7        1.0  0.4380200000000001  0.73269  0.30327  1.0000
  H   H8        1.0  0.29776  0.8201  0.3402  1.0000
  H   H9        1.0  0.94049  0.2787100000000001  0.28958  1.0000
  H   H10       1.0  0.9506899999999996  0.52199  0.3696  1.0000
  H   H11       1.0  0.06596000000000002  0.21417  0.33772  1.0000
  H   H12       1.0  0.15532999999999994  0.14761  0.1417  1.0000
  H   H13       1.0  0.90521  0.3024600000000001  0.05711000000000001  1.0000
  H   H14       1.0  0.050850000000000006  0.26849  0.99356  1.0000
  H   H15       1.0  0.44655000000000006  0.42552  0.62381  1.0000
  H   H16       1.0  0.58  0.37333999999999995  0.5583100000000001  1.0000
  H   H17       1.0  0.6133  0.5769100000000003  0.70829  1.0000
  H   H18       1.0  0.74863  0.52435  0.64196  1.0000
  H   H19       1.0  0.06376999999999998  0.3165900000000001  0.59625  1.0000
  H   H20       1.0  0.3527  0.36384  0.93827  1.0000
  H   H21       1.0  0.08545  0.55601  0.00051  1.0000
  H   H22       1.0  0.34221  0.33905000000000013  0.52559  1.0000
  H   H23       1.0  0.16444000000000003  0.15258  0.51983  1.0000
  H   H24       1.0  0.14196  0.54362  0.8962  1.0000
  H   H25       1.0  0.0275  0.3053  0.49715  1.0000
  H   H26       1.0  0.30718999999999996  0.32086  0.42666000000000004  1.0000
  H   H27       1.0  0.1772699999999999  0.64911  0.07016  1.0000
  H   H28       1.0  0.31294999999999995  0.9225500000000001  0.5750900000000001  1.0000
  H   H29       1.0  0.20219000000000004  0.11284000000000001  0.41725  1.0000
  H   H30       1.0  0.30005  0.38106  0.04367000000000001  1.0000
  H   H31       1.0  0.012469999999999995  0.43331  0.14912  1.0000
  H   H32       1.0  0.9003799999999998  0.54075  0.19537000000000004  1.0000
  H   H33       1.0  0.01006999999999998  0.18111000000000002  0.20448000000000005  1.0000
  H   H34       1.0  0.28093  0.15797  0.8394400000000001  1.0000
  H   H35       1.0  0.2809099999999998  0.23427000000000003  0.9289700000000001  1.0000
  H   H36       1.0  0.06729999999999997  0.7575800000000003  0.11981000000000003  1.0000
  H   H37       1.0  0.09421999999999997  0.97006  0.9328300000000002  1.0000
  H   H38       1.0  0.07648999999999999  0.45782  0.41877  1.0000
  H   H39       1.0  0.35143  0.8823300000000002  0.4731700000000001  1.0000
  H   H40       1.0  0.4581  0.02298  0.38498  1.0000
  H   H41       1.0  0.7873999999999999  0.10894999999999998  0.8629300000000002  1.0000
  H   H42       1.0  0.70592  0.9378300000000003  0.7451800000000002  1.0000
  H   H43       1.0  0.59753  0.93775  0.3468200000000001  1.0000
  H   H44       1.0  0.09246  0.04844  0.023020000000000002  1.0000
  H   H45       1.0  0.3940799999999997  0.013829999999999966  0.7669700000000003  1.0000
  H   H46       1.0  0.5191799999999999  0.10134999999999998  0.7901600000000002  1.0000
  H   H47       1.0  0.51339  0.77365  0.83462  1.0000
  H   H48       1.0  0.6382  0.8615300000000002  0.8588800000000001  1.0000
  H   H49       1.0  0.13386999999999996  0.08278  0.30134  1.0000
  H   H50       1.0  0.05075999999999999  0.9050700000000003  0.18846  1.0000
  H   H51       1.0  0.17741999999999997  0.8044999999999999  0.55537  1.0000
  H   H52       1.0  0.33342999999999995  0.58293  0.6154000000000001  1.0000
  H   H53       1.0  0.3272100000000001  0.5089599999999999  0.52574  1.0000
  H   H54       1.0  0.1757  0.73234  0.46312  1.0000
  H   H55       1.0  0.55783  0.26979  0.69768  1.0000
  H   H56       1.0  0.69927  0.18456999999999998  0.66048  1.0000
  H   H57       1.0  0.05804999999999995  0.72199  0.7095700000000001  1.0000
  H   H58       1.0  0.04719999999999999  0.47868999999999995  0.62979  1.0000
  H   H59       1.0  0.93227  0.7867  0.66161  1.0000
  H   H60       1.0  0.8444299999999996  0.8533000000000001  0.8579800000000002  1.0000
  H   H61       1.0  0.09433999999999994  0.6982899999999999  0.9426600000000003  1.0000
  H   H62       1.0  0.94854  0.7320800000000002  0.00612  1.0000
  H   H63       1.0  0.55157  0.57456  0.3759500000000001  1.0000
  H   H64       1.0  0.41795  0.62591  0.4416800000000001  1.0000
  H   H65       1.0  0.38519000000000003  0.42289  0.29135  1.0000
  H   H66       1.0  0.24980000000000002  0.47440000000000004  0.35802  1.0000
  H   H67       1.0  0.93282  0.6840500000000002  0.40379000000000004  1.0000
  H   H68       1.0  0.64655  0.6372100000000003  0.06255000000000001  1.0000
  H   H69       1.0  0.9127399999999997  0.44467000000000007  0.9987100000000001  1.0000
  H   H70       1.0  0.6544399999999998  0.66149  0.47480000000000006  1.0000
  H   H71       1.0  0.83369  0.8499300000000002  0.48145000000000004  1.0000
  H   H72       1.0  0.8584  0.45775  0.10324000000000001  1.0000
  H   H73       1.0  0.9694600000000001  0.6952600000000002  0.50276  1.0000
  H   H74       1.0  0.6900299999999998  0.6794800000000002  0.57361  1.0000
  H   H75       1.0  0.8203199999999999  0.34954999999999997  0.9297900000000002  1.0000
  H   H76       1.0  0.68485  0.07890000000000003  0.42490000000000006  1.0000
  H   H77       1.0  0.79658  0.89161  0.5836500000000001  1.0000
  H   H78       1.0  0.6966799999999997  0.61878  0.957  1.0000
  H   H79       1.0  0.9836899999999998  0.5671100000000002  0.8522100000000001  1.0000
  H   H80       1.0  0.09749999999999993  0.4609400000000001  0.8061000000000001  1.0000
  H   H81       1.0  0.9896900000000001  0.81991  0.7951200000000002  1.0000
  H   H82       1.0  0.7191999999999998  0.84193  0.15993000000000002  1.0000
  H   H83       1.0  0.71914  0.7656100000000002  0.07029  1.0000
  H   H84       1.0  0.9321  0.24263999999999997  0.8803500000000001  1.0000
  H   H85       1.0  0.90591  0.029879999999999997  0.06652  1.0000
  H   H86       1.0  0.9213500000000001  0.5428  0.5807100000000001  1.0000
  H   H87       1.0  0.64673  0.12081000000000003  0.5265600000000001  1.0000
  H   H88       1.0  0.54193  0.9800200000000002  0.61467  1.0000
  H   H89       1.0  0.20940999999999999  0.8904700000000002  0.13825  1.0000
  H   H90       1.0  0.29243  0.06144  0.25553  1.0000
  H   H91       1.0  0.40123999999999993  0.06324000000000002  0.65317  1.0000
  H   H92       1.0  0.9075299999999998  0.9516000000000001  0.9762700000000001  1.0000
  H   H93       1.0  0.60395  0.9852900000000002  0.23304  1.0000
  H   H94       1.0  0.47879  0.8982  0.20963  1.0000
  H   H95       1.0  0.48434  0.22604000000000005  0.16651  1.0000
  H   H96       1.0  0.35979  0.13856000000000002  0.14169  1.0000
  C   C1        1.0  0.010159999999999957  0.9885999999999999  0.7290000000000002  1.0000
  C   C2        1.0  0.9154100000000001  0.004609999999999984  0.7535200000000001  1.0000
  C   C3        1.0  0.84746  0.9600100000000003  0.73494  1.0000
  C   C4        1.0  0.89335  0.060489999999999995  0.79885  1.0000
  C   C5        1.0  0.7353299999999998  0.25488  0.3561100000000001  1.0000
  C   C6        1.0  0.7412799999999999  0.29932  0.40955000000000014  1.0000
  C   C7        1.0  0.78821  0.25855  0.45182000000000005  1.0000
  C   C8        1.0  0.69989  0.38318  0.41788  1.0000
  C   C9        1.0  0.70291  0.42458000000000007  0.46810000000000007  1.0000
  C   C10       1.0  0.7897399999999999  0.29851  0.50293  1.0000
  C   C11       1.0  0.74576  0.38069  0.51107  1.0000
  C   C12       1.0  0.5258399999999999  0.83  0.32304  1.0000
  C   C13       1.0  0.4415799999999998  0.79648  0.32082000000000005  1.0000
  C   C14       1.0  0.3638799999999998  0.84436  0.34127  1.0000
  C   C15       1.0  0.97129  0.31763  0.31734000000000007  1.0000
  C   C16       1.0  0.8648  0.44098  0.29644000000000004  1.0000
  C   C17       1.0  0.93906  0.40458999999999995  0.32615000000000005  1.0000
  C   C18       1.0  0.97675  0.4548900000000001  0.36294000000000004  1.0000
  C   C19       1.0  0.040929999999999966  0.2815400000000001  0.3442200000000001  1.0000
  C   C20       1.0  0.8619  0.2618300000000001  0.17079  1.0000
  C   C21       1.0  0.94874  0.2431  0.13434  1.0000
  C   C22       1.0  0.10056  0.18198  0.12367000000000003  1.0000
  C   C23       1.0  0.96047  0.2687000000000001  0.07492  1.0000
  C   C24       1.0  0.04084999999999999  0.24988000000000005  0.03972  1.0000
  C   C25       1.0  0.91506  0.72032  0.19329000000000005  1.0000
  C   C26       1.0  0.9766199999999999  0.6565  0.16089000000000003  1.0000
  C   C27       1.0  0.51245  0.44767  0.62765  1.0000
  C   C28       1.0  0.44116999999999995  0.5362700000000002  0.7088600000000002  1.0000
  C   C29       1.0  0.67203  0.44689  0.5960100000000002  1.0000
  C   C30       1.0  0.5210800000000002  0.50494  0.6702400000000001  1.0000
  C   C31       1.0  0.58724  0.41834  0.5907000000000001  1.0000
  C   C32       1.0  0.6068099999999998  0.53247  0.6753100000000001  1.0000
  C   C33       1.0  0.68197  0.50368  0.6386  1.0000
  C   C34       1.0  0.27614  0.43947000000000014  0.8487200000000001  1.0000
  C   C35       1.0  0.22724999999999998  0.33628  0.62501  1.0000
  C   C36       1.0  0.25001  0.45231999999999994  0.91067  1.0000
  C   C37       1.0  0.205  0.3298000000000001  0.56671  1.0000
  C   C38       1.0  0.11632999999999999  0.31992  0.5587800000000002  1.0000
  C   C39       1.0  0.29471999999999987  0.40609  0.9523600000000002  1.0000
  C   C40       1.0  0.14473999999999998  0.5154500000000001  0.9868600000000002  1.0000
  C   C41       1.0  0.10064  0.53572  0.10764000000000003  1.0000
  C   C42       1.0  0.21206000000000003  0.06348000000000001  0.61394  1.0000
  C   C43       1.0  0.27369999999999994  0.3317100000000001  0.5189000000000001  1.0000
  C   C44       1.0  0.20472  0.09343000000000001  0.50903  1.0000
  C   C45       1.0  0.17562  0.50739  0.92853  1.0000
  C   C46       1.0  0.09597999999999995  0.3129300000000001  0.5038400000000001  1.0000
  C   C47       1.0  0.19084  0.47007  0.027710000000000005  1.0000
  C   C48       1.0  0.23597  0.039930000000000014  0.55366  1.0000
  C   C49       1.0  0.25467999999999996  0.3218100000000001  0.4640400000000001  1.0000
  C   C50       1.0  0.16589999999999996  0.31259  0.45691  1.0000
  C   C51       1.0  0.11655999999999996  0.62677  0.09797000000000003  1.0000
  C   C52       1.0  0.28961  0.96416  0.54036  1.0000
  C   C53       1.0  0.22556  0.07156  0.45214  1.0000
  C   C54       1.0  0.26611999999999986  0.4155200000000001  0.0107  1.0000
  C   C55       1.0  0.023049999999999973  0.50442  0.14249  1.0000
  C   C56       1.0  0.96076  0.56521  0.16840000000000002  1.0000
  C   C57       1.0  0.3767  0.83721  0.78071  1.0000
  C   C58       1.0  0.4475  0.88864  0.7986500000000001  1.0000
  C   C59       1.0  0.07828999999999997  0.3327400000000001  0.38035000000000013  1.0000
  C   C60       1.0  0.019369999999999995  0.20046  0.15844  1.0000
  C   C61       1.0  0.18703999999999996  0.05934999999999998  0.8805600000000002  1.0000
  C   C62       1.0  0.24016999999999994  0.13349999999999998  0.8795800000000003  1.0000
  C   C63       1.0  0.24086  0.17623999999999998  0.92959  1.0000
  C   C64       1.0  0.18607999999999997  0.014480000000000008  0.82729  1.0000
  C   C65       1.0  0.18725999999999995  0.14501999999999998  0.9807000000000002  1.0000
  C   C66       1.0  0.05505999999999997  0.68679  0.12533  1.0000
  C   C67       1.0  0.13422999999999993  0.028209999999999978  0.9325600000000002  1.0000
  C   C68       1.0  0.11009999999999999  0.20578000000000005  0.06447  1.0000
  C   C69       1.0  0.046529999999999995  0.4193  0.39034  1.0000
  C   C70       1.0  0.2785199999999998  0.9953100000000003  0.43975000000000003  1.0000
  C   C71       1.0  0.31103  0.94156  0.48361000000000004  1.0000
  C   C72       1.0  0.37148  0.92521  0.3644  1.0000
  C   C73       1.0  0.45472999999999986  0.9595500000000002  0.3670200000000001  1.0000
  C   C74       1.0  0.80554  0.06838999999999998  0.8266100000000002  1.0000
  C   C75       1.0  0.7586499999999999  0.97034  0.7608500000000001  1.0000
  C   C76       1.0  0.73828  0.023039999999999977  0.8077600000000003  1.0000
  C   C77       1.0  0.53189  0.9118300000000004  0.34614  1.0000
  C   C78       1.0  0.1334599999999999  0.07124999999999998  0.9825600000000001  1.0000
  C   C79       1.0  0.6087899999999998  0.78062  0.29972  1.0000
  C   C80       1.0  0.44771  0.9811300000000002  0.7869700000000001  1.0000
  C   C81       1.0  0.51648  0.02994999999999999  0.8000800000000001  1.0000
  C   C82       1.0  0.58474  0.9853399999999999  0.82487  1.0000
  C   C83       1.0  0.51534  0.8452600000000002  0.82538  1.0000
  C   C84       1.0  0.58434  0.8936  0.83875  1.0000
  C   C85       1.0  0.98797  0.014050000000000005  0.27154  1.0000
  C   C86       1.0  0.08237999999999997  0.99645  0.24723000000000003  1.0000
  C   C87       1.0  0.15075  0.04050000000000003  0.26577  1.0000
  C   C88       1.0  0.10384999999999994  0.9402000000000003  0.20207000000000006  1.0000
  C   C89       1.0  0.2632200000000002  0.74388  0.6438500000000001  1.0000
  C   C90       1.0  0.25784  0.6995700000000002  0.5903400000000001  1.0000
  C   C91       1.0  0.21081  0.74045  0.54817  1.0000
  C   C92       1.0  0.2994599999999998  0.61583  0.58191  1.0000
  C   C93       1.0  0.2963  0.57438  0.53171  1.0000
  C   C94       1.0  0.20921  0.70048  0.49713  1.0000
  C   C95       1.0  0.2531799999999999  0.6183600000000002  0.48889  1.0000
  C   C96       1.0  0.47145  0.17155000000000006  0.67763  1.0000
  C   C97       1.0  0.55523  0.20611  0.67984  1.0000
  C   C98       1.0  0.6335899999999995  0.15939  0.65923  1.0000
  C   C99       1.0  0.027039999999999974  0.68314  0.6818700000000001  1.0000
  C   C100      1.0  0.1329799999999999  0.5591599999999999  0.7030400000000002  1.0000
  C   C101      1.0  0.05907999999999998  0.5961  0.67316  1.0000
  C   C102      1.0  0.021219999999999992  0.5458200000000002  0.63641  1.0000
  C   C103      1.0  0.9571100000000001  0.71922  0.65518  1.0000
  C   C104      1.0  0.13765999999999995  0.7374  0.8292800000000001  1.0000
  C   C105      1.0  0.050910000000000004  0.75739  0.8653700000000001  1.0000
  C   C106      1.0  0.8992299999999999  0.8187000000000002  0.8758700000000001  1.0000
  C   C107      1.0  0.03907999999999997  0.73196  0.9248100000000002  1.0000
  C   C108      1.0  0.95866  0.75062  0.9599400000000002  1.0000
  C   C109      1.0  0.08302999999999999  0.28074  0.8071  1.0000
  C   C110      1.0  0.021799999999999986  0.34448000000000006  0.83982  1.0000
  C   C111      1.0  0.4858  0.5521100000000002  0.37207  1.0000
  C   C112      1.0  0.55717  0.46439000000000014  0.29051  1.0000
  C   C113      1.0  0.32630999999999993  0.55252  0.4037800000000001  1.0000
  C   C114      1.0  0.47712  0.49503  0.32933  1.0000
  C   C115      1.0  0.41104  0.5811099999999999  0.40911000000000003  1.0000
  C   C116      1.0  0.39148  0.46722  0.32441000000000003  1.0000
  C   C117      1.0  0.31631  0.49561  0.3612900000000001  1.0000
  C   C118      1.0  0.72351  0.5613  0.15138  1.0000
  C   C119      1.0  0.7705599999999999  0.66409  0.37506000000000006  1.0000
  C   C120      1.0  0.7497099999999999  0.5487900000000002  0.08941  1.0000
  C   C121      1.0  0.79184  0.6709099999999999  0.43346000000000007  1.0000
  C   C122      1.0  0.8804399999999999  0.68085  0.44135000000000013  1.0000
  C   C123      1.0  0.70415  0.59473  0.04807  1.0000
  C   C124      1.0  0.85361  0.4852200000000001  0.01276  1.0000
  C   C125      1.0  0.89598  0.46412999999999993  0.8926100000000002  1.0000
  C   C126      1.0  0.7854299999999999  0.9368700000000002  0.3870600000000001  1.0000
  C   C127      1.0  0.72307  0.66893  0.48126  1.0000
  C   C128      1.0  0.79343  0.90924  0.49188000000000004  1.0000
  C   C129      1.0  0.82387  0.49363  0.07119000000000002  1.0000
  C   C130      1.0  0.90091  0.68781  0.49623  1.0000
  C   C131      1.0  0.8065499999999999  0.53025  0.9722900000000001  1.0000
  C   C132      1.0  0.76179  0.96189  0.44702  1.0000
  C   C133      1.0  0.74225  0.6787400000000002  0.53608  1.0000
  C   C134      1.0  0.8310399999999999  0.6879400000000002  0.5432  1.0000
  C   C135      1.0  0.88085  0.3729200000000001  0.9022400000000003  1.0000
  C   C136      1.0  0.70826  0.03789  0.45986  1.0000
  C   C137      1.0  0.77299  0.93216  0.54854  1.0000
  C   C138      1.0  0.7314799999999998  0.5848000000000001  0.9896900000000001  1.0000
  C   C139      1.0  0.9738399999999997  0.4959200000000001  0.85842  1.0000
  C   C140      1.0  0.03709999999999999  0.43582999999999994  0.8326800000000001  1.0000
  C   C141      1.0  0.62099  0.16248999999999997  0.22041000000000005  1.0000
  C   C142      1.0  0.55029  0.11092  0.20222000000000004  1.0000
  C   C143      1.0  0.91921  0.6678100000000002  0.61939  1.0000
  C   C144      1.0  0.9804799999999999  0.8002700000000003  0.84113  1.0000
  C   C145      1.0  0.81295  0.9404500000000002  0.11870000000000001  1.0000
  C   C146      1.0  0.75976  0.86639  0.11972  1.0000
  C   C147      1.0  0.7589699999999998  0.82377  0.06972000000000002  1.0000
  C   C148      1.0  0.81384  0.98488  0.17207  1.0000
  C   C149      1.0  0.81248  0.85515  0.01863  1.0000
  C   C150      1.0  0.9433799999999998  0.3135899999999999  0.8750900000000003  1.0000
  C   C151      1.0  0.86578  0.9718  0.06675  1.0000
  C   C152      1.0  0.88953  0.79455  0.9350200000000001  1.0000
  C   C153      1.0  0.95125  0.58135  0.6091700000000001  1.0000
  C   C154      1.0  0.7201399999999999  0.008609999999999998  0.56049  1.0000
  C   C155      1.0  0.68716  0.061470000000000004  0.51643  1.0000
  C   C156      1.0  0.62713  0.07854  0.6358400000000001  1.0000
  C   C157      1.0  0.54433  0.04336000000000001  0.63295  1.0000
  C   C158      1.0  0.19158999999999995  0.9315700000000002  0.17431  1.0000
  C   C159      1.0  0.23939999999999997  0.029509999999999998  0.23981000000000005  1.0000
  C   C160      1.0  0.25922000000000006  0.9768700000000002  0.19284000000000004  1.0000
  C   C161      1.0  0.46649  0.08995  0.65404  1.0000
  C   C162      1.0  0.86641  0.92887  0.01672  1.0000
  C   C163      1.0  0.38813  0.22000000000000003  0.70128  1.0000
  C   C164      1.0  0.55016  0.018309999999999996  0.21333000000000002  1.0000
  C   C165      1.0  0.4813  0.9696600000000002  0.20002000000000003  1.0000
  C   C166      1.0  0.41287999999999997  0.014439999999999998  0.17545  1.0000
  C   C167      1.0  0.48240999999999995  0.15439  0.17555000000000004  1.0000
  C   C168      1.0  0.41349  0.10624  0.16186  1.0000
  O   O1        1.0  0.32610999999999996  0.8792500000000002  0.74846  1.0000
  O   O2        1.0  0.8436  0.22431  0.22226  1.0000
  O   O3        1.0  0.036100000000000014  0.91457  0.70871  1.0000
  O   O4        1.0  0.06755  0.04794000000000001  0.73208  1.0000
  O   O5        1.0  0.68282  0.29016  0.3226  1.0000
  O   O6        1.0  0.6028999999999999  0.7056900000000003  0.2799  1.0000
  O   O7        1.0  0.83018  0.38835  0.26751  1.0000
  O   O8        1.0  0.8397500000000001  0.52224  0.30032  1.0000
  O   O9        1.0  0.80711  0.3179700000000001  0.15129  1.0000
  O   O10       1.0  0.83333  0.7004600000000002  0.21353000000000005  1.0000
  O   O11       1.0  0.94343  0.79478  0.20319000000000004  1.0000
  O   O12       1.0  0.44648  0.59036  0.74635  1.0000
  O   O13       1.0  0.3626999999999999  0.5097000000000003  0.7027000000000001  1.0000
  O   O14       1.0  0.7502799999999998  0.4193600000000001  0.5624100000000001  1.0000
  O   O15       1.0  0.22293  0.053550000000000014  0.77821  1.0000
  O   O16       1.0  0.25014  0.49983999999999995  0.81114  1.0000
  O   O17       1.0  0.31740000000000007  0.37028  0.83103  1.0000
  O   O18       1.0  0.29754  0.37485  0.63104  1.0000
  O   O19       1.0  0.17378  0.30340999999999996  0.66971  1.0000
  O   O20       1.0  0.16489999999999996  0.13369999999999999  0.62512  1.0000
  O   O21       1.0  0.24102999999999994  0.013529999999999988  0.6545400000000001  1.0000
  O   O22       1.0  0.16478  0.4729800000000001  0.08648000000000002  1.0000
  O   O23       1.0  0.15158  0.93943  0.82851  1.0000
  O   O24       1.0  0.78138  0.18355000000000005  0.34673  1.0000
  O   O25       1.0  0.37062000000000006  0.7549300000000002  0.79702  1.0000
  O   O26       1.0  0.15204  0.2948799999999999  0.40237  1.0000
  O   O27       1.0  0.19171  0.18717  0.03042  1.0000
  O   O28       1.0  0.6529699999999999  0.03600999999999999  0.83731  1.0000
  O   O29       1.0  0.68388  0.81648  0.3001400000000001  1.0000
  O   O30       1.0  0.29347999999999985  0.97375  0.38288  1.0000
  O   O31       1.0  0.67322  0.12026000000000002  0.25138  1.0000
  O   O32       1.0  0.15657999999999994  0.77298  0.7772700000000001  1.0000
  O   O33       1.0  0.9634299999999998  0.08861000000000002  0.29144000000000003  1.0000
  O   O34       1.0  0.9289399999999999  0.9559  0.26847  1.0000
  O   O35       1.0  0.31697  0.7100899999999999  0.677  1.0000
  O   O36       1.0  0.39335999999999993  0.29539999999999994  0.7205300000000002  1.0000
  O   O37       1.0  0.16912999999999997  0.61145  0.7314300000000001  1.0000
  O   O38       1.0  0.15629  0.47739999999999994  0.69988  1.0000
  O   O39       1.0  0.19216  0.68155  0.8493300000000001  1.0000
  O   O40       1.0  0.16497999999999996  0.29982  0.7866900000000001  1.0000
  O   O41       1.0  0.053449999999999984  0.20676  0.79714  1.0000
  O   O42       1.0  0.5525999999999999  0.41086  0.25242  1.0000
  O   O43       1.0  0.63514  0.49112  0.29721  1.0000
  O   O44       1.0  0.24832999999999997  0.58046  0.4374  1.0000
  O   O45       1.0  0.7763  0.94588  0.22103  1.0000
  O   O46       1.0  0.74944  0.50085  0.18885  1.0000
  O   O47       1.0  0.68164  0.63022  0.16914  1.0000
  O   O48       1.0  0.70058  0.62524  0.3688400000000001  1.0000
  O   O49       1.0  0.82468  0.69665  0.33044  1.0000
  O   O50       1.0  0.83142  0.86568  0.3768700000000001  1.0000
  O   O51       1.0  0.7579899999999999  0.9861400000000002  0.34559  1.0000
  O   O52       1.0  0.8314399999999998  0.5267600000000001  0.9134900000000002  1.0000
  O   O53       1.0  0.8488  0.05945000000000001  0.17118  1.0000
  O   O54       1.0  0.21483999999999998  0.8136800000000001  0.6538200000000001  1.0000
  O   O55       1.0  0.62516  0.24533  0.20548000000000005  1.0000
  O   O56       1.0  0.84465  0.70505  0.5979  1.0000
  O   O57       1.0  0.8079099999999999  0.8129300000000002  0.9689900000000002  1.0000
  O   O58       1.0  0.34424  0.9641500000000002  0.16286  1.0000
  O   O59       1.0  0.31341  0.18312000000000003  0.70178  1.0000
  O   O60       1.0  0.70585  0.03115999999999999  0.61715  1.0000
