data_image0
_chemical_formula_structural       Zn12H84C108N12O40
_chemical_formula_sum              "Zn12 H84 C108 N12 O40"
_cell_length_a       9.2303
_cell_length_b       18.70635
_cell_length_c       20.402729999999995
_cell_angle_alpha    90.14326000000001
_cell_angle_beta     90.0
_cell_angle_gamma    90.0

_space_group_name_H-M_alt    "P 1"
_space_group_IT_number       1

loop_
  _space_group_symop_operation_xyz
  'x, y, z'

loop_
  _atom_site_type_symbol
  _atom_site_label
  _atom_site_symmetry_multiplicity
  _atom_site_fract_x
  _atom_site_fract_y
  _atom_site_fract_z
  _atom_site_occupancy
  Zn  Zn1       1.0  0.74402  0.36275  0.33272  1.0000
  Zn  Zn2       1.0  0.4413599999999999  0.2706  0.3780800000000001  1.0000
  Zn  Zn3       1.0  0.63969  0.67715  0.07648  1.0000
  Zn  Zn4       1.0  0.74402  0.63725  0.66729  1.0000
  Zn  Zn5       1.0  0.4413599999999999  0.7294  0.6219300000000001  1.0000
  Zn  Zn6       1.0  0.63969  0.32284  0.92353  1.0000
  Zn  Zn7       1.0  0.24482  0.86438  0.16699  1.0000
  Zn  Zn8       1.0  0.94484  0.76954  0.12214  1.0000
  Zn  Zn9       1.0  0.14053  0.17608  0.4256400000000001  1.0000
  Zn  Zn10      1.0  0.24482  0.13562  0.8330100000000001  1.0000
  Zn  Zn11      1.0  0.94484  0.23046  0.87786  1.0000
  Zn  Zn12      1.0  0.14053  0.82392  0.57436  1.0000
  H   H1        1.0  0.70277  0.2353  0.36472  1.0000
  H   H2        1.0  0.17833  0.30316  0.3894000000000001  1.0000
  H   H3        1.0  0.21442  0.21121  0.07407  1.0000
  H   H4        1.0  0.54234  0.53031  0.23244  1.0000
  H   H5        1.0  0.13031  0.61635  0.17536  1.0000
  H   H6        1.0  0.00597  0.52386  0.24317000000000003  1.0000
  H   H7        1.0  0.15135  0.43233000000000005  0.30313  1.0000
  H   H8        1.0  0.25626  0.41878  0.42457000000000006  1.0000
  H   H9        1.0  0.74051  0.10379  0.45302000000000003  1.0000
  H   H10       1.0  0.9945100000000001  0.27851  0.27656  1.0000
  H   H11       1.0  0.0601  0.35712  0.07986000000000001  1.0000
  H   H12       1.0  0.86448  0.44699  0.10198  1.0000
  H   H13       1.0  0.73511  0.44341  0.21012  1.0000
  H   H14       1.0  0.11576  0.20081  0.17537000000000003  1.0000
  H   H15       1.0  0.24296  0.26227  0.20609  1.0000
  H   H16       1.0  0.39429  0.24599  0.99492  1.0000
  H   H17       1.0  0.31465  0.37341  0.16943000000000003  1.0000
  H   H18       1.0  0.51146  0.45414999999999994  0.13268  1.0000
  H   H19       1.0  0.64804  0.42493  0.029240000000000002  1.0000
  H   H20       1.0  0.70277  0.7647  0.63528  1.0000
  H   H21       1.0  0.17833  0.69684  0.6106  1.0000
  H   H22       1.0  0.21442  0.78879  0.92593  1.0000
  H   H23       1.0  0.54234  0.46969000000000005  0.76756  1.0000
  H   H24       1.0  0.13031  0.38365  0.8246400000000002  1.0000
  H   H25       1.0  0.00597  0.47613999999999995  0.75683  1.0000
  H   H26       1.0  0.15135  0.56766  0.69687  1.0000
  H   H27       1.0  0.25626  0.58121  0.57544  1.0000
  H   H28       1.0  0.7405  0.8962  0.54698  1.0000
  H   H29       1.0  0.9945100000000001  0.72148  0.72344  1.0000
  H   H30       1.0  0.0601  0.64288  0.9201400000000001  1.0000
  H   H31       1.0  0.86448  0.55301  0.89802  1.0000
  H   H32       1.0  0.7351  0.55658  0.78988  1.0000
  H   H33       1.0  0.11576  0.79919  0.82463  1.0000
  H   H34       1.0  0.24296  0.73773  0.7939100000000001  1.0000
  H   H35       1.0  0.39428  0.75401  0.00508  1.0000
  H   H36       1.0  0.31465  0.62659  0.8305700000000001  1.0000
  H   H37       1.0  0.51146  0.54585  0.86732  1.0000
  H   H38       1.0  0.64804  0.57507  0.9707600000000001  1.0000
  H   H39       1.0  0.20623  0.73572  0.13725  1.0000
  H   H40       1.0  0.68019  0.80306  0.11353000000000002  1.0000
  H   H41       1.0  0.71416  0.71103  0.42452000000000006  1.0000
  H   H42       1.0  0.04216  0.03107  0.26828  1.0000
  H   H43       1.0  0.62861  0.11537  0.32575  1.0000
  H   H44       1.0  0.50617  0.02334  0.25617  1.0000
  H   H45       1.0  0.65326  0.9324099999999999  0.19586000000000003  1.0000
  H   H46       1.0  0.75797  0.92008  0.07624  1.0000
  H   H47       1.0  0.2377  0.60384  0.04718  1.0000
  H   H48       1.0  0.49217  0.77885  0.22295000000000004  1.0000
  H   H49       1.0  0.55802  0.85641  0.42021  1.0000
  H   H50       1.0  0.36196  0.9461100000000001  0.39925  1.0000
  H   H51       1.0  0.23341999999999996  0.9438100000000001  0.29079  1.0000
  H   H52       1.0  0.61273  0.70045  0.3237  1.0000
  H   H53       1.0  0.7393  0.76178  0.29241  1.0000
  H   H54       1.0  0.89206  0.74764  0.5039000000000001  1.0000
  H   H55       1.0  0.81151  0.873  0.3288  1.0000
  H   H56       1.0  0.0062  0.955  0.36574  1.0000
  H   H57       1.0  0.14376  0.92695  0.46893  1.0000
  H   H58       1.0  0.20623  0.26428  0.8627600000000001  1.0000
  H   H59       1.0  0.68019  0.19694  0.8864700000000001  1.0000
  H   H60       1.0  0.71416  0.28896  0.57548  1.0000
  H   H61       1.0  0.04215  0.9689300000000001  0.73173  1.0000
  H   H62       1.0  0.62861  0.8846199999999999  0.67425  1.0000
  H   H63       1.0  0.50617  0.97666  0.7438300000000001  1.0000
  H   H64       1.0  0.65326  0.06759  0.80415  1.0000
  H   H65       1.0  0.75797  0.07992  0.92376  1.0000
  H   H66       1.0  0.2377  0.39616  0.95282  1.0000
  H   H67       1.0  0.49217  0.22115  0.77705  1.0000
  H   H68       1.0  0.55802  0.14359  0.57979  1.0000
  H   H69       1.0  0.36197  0.05389000000000001  0.6007500000000001  1.0000
  H   H70       1.0  0.23341999999999996  0.05619  0.70921  1.0000
  H   H71       1.0  0.61273  0.29955  0.6763  1.0000
  H   H72       1.0  0.7393  0.23822  0.7075900000000002  1.0000
  H   H73       1.0  0.89206  0.25236  0.4961  1.0000
  H   H74       1.0  0.81151  0.127  0.67121  1.0000
  H   H75       1.0  0.0062  0.045  0.6342600000000002  1.0000
  H   H76       1.0  0.14376  0.07305  0.53107  1.0000
  H   H77       1.0  0.85324  0.5  0.5  1.0000
  H   H78       1.0  0.39168  0.5  0.5  1.0000
  H   H79       1.0  0.35514  0.0  0.0  1.0000
  H   H80       1.0  0.89345  0.0  0.0  1.0000
  H   H81       1.0  0.33999  0.0  0.5  1.0000
  H   H82       1.0  0.8750199999999999  0.0  0.5  1.0000
  H   H83       1.0  0.83661  0.5  0.0  1.0000
  H   H84       1.0  0.37206  0.5  0.0  1.0000
  C   C1        1.0  0.44914  0.42095  0.30568  1.0000
  C   C2        1.0  0.35693  0.47583999999999993  0.27199  1.0000
  C   C3        1.0  0.42493  0.52881  0.23491  1.0000
  C   C4        1.0  0.34415  0.57894  0.19966  1.0000
  C   C5        1.0  0.19245  0.57744  0.20327  1.0000
  C   C6        1.0  0.1237  0.52507  0.24086  1.0000
  C   C7        1.0  0.20473  0.47384  0.27468000000000004  1.0000
  C   C8        1.0  0.42173  0.62949  0.15512  1.0000
  C   C9        1.0  0.96559  0.407  0.41074000000000005  1.0000
  C   C10       1.0  0.04642  0.45424  0.4575  1.0000
  C   C11       1.0  0.19851  0.45401  0.45810000000000006  1.0000
  C   C12       1.0  0.44161  0.11853  0.44675000000000004  1.0000
  C   C13       1.0  0.53083  0.0583  0.47357  1.0000
  C   C14       1.0  0.68285  0.05834  0.47359000000000007  1.0000
  C   C15       1.0  0.9674599999999999  0.31331  0.23558000000000004  1.0000
  C   C16       1.0  0.04199  0.30975  0.17595  1.0000
  C   C17       1.0  0.00393  0.35806  0.12676  1.0000
  C   C18       1.0  0.8940600000000001  0.40759  0.13863  1.0000
  C   C19       1.0  0.82287  0.40674  0.19853  1.0000
  C   C20       1.0  0.16124  0.25432  0.16729  1.0000
  C   C21       1.0  0.41876  0.29031  0.027880000000000002  1.0000
  C   C22       1.0  0.3394  0.30095  0.08634  1.0000
  C   C23       1.0  0.37456  0.3612  0.12491  1.0000
  C   C24       1.0  0.48521  0.4064  0.10452  1.0000
  C   C25       1.0  0.56017  0.39166  0.04701  1.0000
  C   C26       1.0  0.44914  0.57905  0.69432  1.0000
  C   C27       1.0  0.35693  0.52415  0.72801  1.0000
  C   C28       1.0  0.42493  0.47119  0.76509  1.0000
  C   C29       1.0  0.34415  0.42106  0.8003400000000002  1.0000
  C   C30       1.0  0.19246  0.42256  0.7967300000000002  1.0000
  C   C31       1.0  0.1237  0.47492999999999996  0.75914  1.0000
  C   C32       1.0  0.20473  0.52615  0.72532  1.0000
  C   C33       1.0  0.42173  0.37051  0.8448800000000001  1.0000
  C   C34       1.0  0.96559  0.593  0.58926  1.0000
  C   C35       1.0  0.04642  0.54576  0.5425000000000001  1.0000
  C   C36       1.0  0.19851  0.54599  0.5419  1.0000
  C   C37       1.0  0.44161  0.8814700000000001  0.55325  1.0000
  C   C38       1.0  0.53083  0.94169  0.52643  1.0000
  C   C39       1.0  0.68285  0.94166  0.52641  1.0000
  C   C40       1.0  0.9674599999999999  0.68668  0.7644200000000001  1.0000
  C   C41       1.0  0.04199  0.69025  0.82405  1.0000
  C   C42       1.0  0.00393  0.64194  0.87324  1.0000
  C   C43       1.0  0.8940600000000001  0.59241  0.86137  1.0000
  C   C44       1.0  0.82287  0.59326  0.80147  1.0000
  C   C45       1.0  0.16124  0.74568  0.8327100000000001  1.0000
  C   C46       1.0  0.41876  0.70968  0.97212  1.0000
  C   C47       1.0  0.3394  0.69905  0.91366  1.0000
  C   C48       1.0  0.37456  0.6388  0.8750900000000001  1.0000
  C   C49       1.0  0.48521  0.5936  0.8954800000000003  1.0000
  C   C50       1.0  0.56017  0.60834  0.95299  1.0000
  C   C51       1.0  0.9497300000000001  0.9213199999999999  0.19402  1.0000
  C   C52       1.0  0.85743  0.97624  0.22783  1.0000
  C   C53       1.0  0.9248000000000001  0.02901  0.26574  1.0000
  C   C54       1.0  0.84343  0.0785  0.30173  1.0000
  C   C55       1.0  0.6917  0.07682  0.29766  1.0000
  C   C56       1.0  0.62379  0.02481  0.25903  1.0000
  C   C57       1.0  0.70549  0.9740300000000001  0.2248  1.0000
  C   C58       1.0  0.9213100000000001  0.12919  0.34643000000000007  1.0000
  C   C59       1.0  0.46616  0.9082999999999999  0.08948  1.0000
  C   C60       1.0  0.54804  0.9549399999999999  0.04290000000000001  1.0000
  C   C61       1.0  0.70018  0.95475  0.0424  1.0000
  C   C62       1.0  0.9400100000000001  0.61903  0.0534  1.0000
  C   C63       1.0  0.0278  0.55828  0.02662  1.0000
  C   C64       1.0  0.17987  0.55835  0.02653000000000001  1.0000
  C   C65       1.0  0.46521  0.81357  0.26415000000000005  1.0000
  C   C66       1.0  0.53948  0.80946  0.32377  1.0000
  C   C67       1.0  0.5015  0.8574899999999999  0.37341  1.0000
  C   C68       1.0  0.39163  0.9071  0.36208  1.0000
  C   C69       1.0  0.32095  0.9069299999999999  0.30205  1.0000
  C   C70       1.0  0.65866  0.75393  0.33166  1.0000
  C   C71       1.0  0.91646  0.7916  0.4707300000000001  1.0000
  C   C72       1.0  0.83725  0.80136  0.41215000000000007  1.0000
  C   C73       1.0  0.87131  0.8614399999999999  0.37345  1.0000
  C   C74       1.0  0.98102  0.90726  0.39387000000000005  1.0000
  C   C75       1.0  0.05641  0.89315  0.45136  1.0000
  C   C76       1.0  0.9497300000000001  0.07868  0.80598  1.0000
  C   C77       1.0  0.85743  0.02375  0.7721700000000001  1.0000
  C   C78       1.0  0.9248000000000001  0.97099  0.73426  1.0000
  C   C79       1.0  0.84343  0.9215000000000001  0.69827  1.0000
  C   C80       1.0  0.6917  0.92318  0.70234  1.0000
  C   C81       1.0  0.62379  0.97518  0.74097  1.0000
  C   C82       1.0  0.70549  0.02597  0.7752  1.0000
  C   C83       1.0  0.9213100000000001  0.8708099999999999  0.65357  1.0000
  C   C84       1.0  0.46616  0.09169  0.9105200000000001  1.0000
  C   C85       1.0  0.54804  0.04506  0.9571  1.0000
  C   C86       1.0  0.70018  0.04525  0.95761  1.0000
  C   C87       1.0  0.9400100000000001  0.38097  0.94661  1.0000
  C   C88       1.0  0.0278  0.44171  0.97338  1.0000
  C   C89       1.0  0.17987  0.44165  0.97347  1.0000
  C   C90       1.0  0.46521  0.18643  0.7358500000000001  1.0000
  C   C91       1.0  0.53948  0.19054  0.67623  1.0000
  C   C92       1.0  0.5015  0.14251  0.62659  1.0000
  C   C93       1.0  0.39163  0.09289  0.63792  1.0000
  C   C94       1.0  0.32095  0.09306  0.6979500000000001  1.0000
  C   C95       1.0  0.65866  0.24607  0.66835  1.0000
  C   C96       1.0  0.91646  0.2084  0.52927  1.0000
  C   C97       1.0  0.83726  0.19863  0.58785  1.0000
  C   C98       1.0  0.87131  0.13856  0.62655  1.0000
  C   C99       1.0  0.98102  0.09274  0.60613  1.0000
  C   C100      1.0  0.05641  0.10685  0.54864  1.0000
  C   C101      1.0  0.97091  0.5  0.5  1.0000
  C   C102      1.0  0.27379  0.5  0.5  1.0000
  C   C103      1.0  0.47279  0.0  0.0  1.0000
  C   C104      1.0  0.77554  0.0  0.0  1.0000
  C   C105      1.0  0.45738999999999996  0.0  0.5  1.0000
  C   C106      1.0  0.75738  0.0  0.5  1.0000
  C   C107      1.0  0.9541200000000001  0.5  0.0  1.0000
  C   C108      1.0  0.25444  0.5  0.0  1.0000
  N   N1        1.0  0.85889  0.36011  0.24633  1.0000
  N   N2        1.0  0.23034  0.2543  0.10338  1.0000
  N   N3        1.0  0.52639  0.33422  0.009460000000000001  1.0000
  N   N4        1.0  0.85889  0.63988  0.75368  1.0000
  N   N5        1.0  0.23034  0.74569  0.89662  1.0000
  N   N6        1.0  0.52639  0.66578  0.9905400000000001  1.0000
  N   N7        1.0  0.35736  0.86078  0.25373  1.0000
  N   N8        1.0  0.72935  0.75398  0.39518000000000003  1.0000
  N   N9        1.0  0.02366  0.83589  0.48905000000000004  1.0000
  N   N10       1.0  0.35736  0.13922  0.74627  1.0000
  N   N11       1.0  0.72935  0.24602  0.60482  1.0000
  N   N12       1.0  0.02366  0.16411  0.51095  1.0000
  O   O1        1.0  0.58622  0.42953  0.30161  1.0000
  O   O2        1.0  0.38447  0.37007  0.33482  1.0000
  O   O3        1.0  0.55735  0.61491  0.14558000000000001  1.0000
  O   O4        1.0  0.35758  0.68056  0.12726  1.0000
  O   O5        1.0  0.82951  0.42167  0.40283  1.0000
  O   O6        1.0  0.02833  0.35696  0.38010000000000005  1.0000
  O   O7        1.0  0.5071  0.17173  0.42222  1.0000
  O   O8        1.0  0.30446  0.11014  0.45125  1.0000
  O   O9        1.0  0.64031  0.27667  0.35391000000000006  1.0000
  O   O10       1.0  0.24159  0.26157  0.39937  1.0000
  O   O11       1.0  0.58622  0.57046  0.69839  1.0000
  O   O12       1.0  0.38447  0.62993  0.66518  1.0000
  O   O13       1.0  0.55735  0.38509  0.8544200000000001  1.0000
  O   O14       1.0  0.35758  0.31944  0.87274  1.0000
  O   O15       1.0  0.82951  0.57833  0.5971700000000001  1.0000
  O   O16       1.0  0.02833  0.64303  0.6199  1.0000
  O   O17       1.0  0.5071  0.82827  0.57778  1.0000
  O   O18       1.0  0.30446  0.8898599999999999  0.54875  1.0000
  O   O19       1.0  0.64031  0.72333  0.64609  1.0000
  O   O20       1.0  0.24159  0.73843  0.6006300000000001  1.0000
  O   O21       1.0  0.08663  0.9308999999999998  0.19793  1.0000
  O   O22       1.0  0.8859599999999999  0.86953  0.16546  1.0000
  O   O23       1.0  0.056150000000000005  0.11333  0.35722000000000004  1.0000
  O   O24       1.0  0.85845  0.18167  0.37292  1.0000
  O   O25       1.0  0.33002  0.9232799999999999  0.09708  1.0000
  O   O26       1.0  0.52811  0.85816  0.12007000000000001  1.0000
  O   O27       1.0  0.007499999999999999  0.67342  0.07478  1.0000
  O   O28       1.0  0.80263  0.61039  0.05188000000000001  1.0000
  O   O29       1.0  0.1431  0.77746  0.14632  1.0000
  O   O30       1.0  0.74186  0.76021  0.10661  1.0000
  O   O31       1.0  0.08663  0.0691  0.80207  1.0000
  O   O32       1.0  0.8859599999999999  0.13047  0.83455  1.0000
  O   O33       1.0  0.056150000000000005  0.88666  0.64279  1.0000
  O   O34       1.0  0.85845  0.81833  0.62708  1.0000
  O   O35       1.0  0.33002  0.07672  0.90292  1.0000
  O   O36       1.0  0.52811  0.14183  0.87993  1.0000
  O   O37       1.0  0.007499999999999999  0.32658  0.9252300000000001  1.0000
  O   O38       1.0  0.80263  0.3896  0.94813  1.0000
  O   O39       1.0  0.14311  0.22252999999999998  0.85368  1.0000
  O   O40       1.0  0.74186  0.23979  0.8933900000000001  1.0000
