data_image0
_chemical_formula_structural       Eu6Ag10H84C120N20O42
_chemical_formula_sum              "Eu6 Ag10 H84 C120 N20 O42"
_cell_length_a       14.85343
_cell_length_b       15.582819999999998
_cell_length_c       20.23108
_cell_angle_alpha    120.24092999999999
_cell_angle_beta     113.45563000000001
_cell_angle_gamma    78.56966

_space_group_name_H-M_alt    "P 1"
_space_group_IT_number       1

loop_
  _space_group_symop_operation_xyz
  'x, y, z'

loop_
  _atom_site_type_symbol
  _atom_site_label
  _atom_site_symmetry_multiplicity
  _atom_site_fract_x
  _atom_site_fract_y
  _atom_site_fract_z
  _atom_site_occupancy
  Eu  Eu1       1.0  0.37808  0.43616000000000005  0.49553  1.0000
  Eu  Eu2       1.0  0.7593499999999995  0.34621  0.50501  1.0000
  Eu  Eu3       1.0  0.06551  0.30251  0.49041  1.0000
  Eu  Eu4       1.0  0.38989999999999997  0.94281  0.50529  1.0000
  Eu  Eu5       1.0  0.74814  0.8484600000000002  0.49646  1.0000
  Eu  Eu6       1.0  0.06352000000000005  0.8085600000000002  0.5068300000000002  1.0000
  Ag  Ag1       1.0  0.6947599999999998  0.5037400000000001  0.99957  1.0000
  Ag  Ag2       1.0  0.5789599999999998  0.68847  0.99995  1.0000
  Ag  Ag3       1.0  0.3651199999999999  0.10916000000000002  0.00638  1.0000
  Ag  Ag4       1.0  0.22254000000000004  0.2781800000000001  0.99434  1.0000
  Ag  Ag5       1.0  0.57352  0.8891900000000003  0.98167  1.0000
  Ag  Ag6       1.0  0.20760999999999996  0.49959  0.00262  1.0000
  Ag  Ag7       1.0  0.08356999999999996  0.68109  0.00927  1.0000
  Ag  Ag8       1.0  0.8576699999999998  0.09753000000000003  0.9924400000000001  1.0000
  Ag  Ag9       1.0  0.7346099999999998  0.28078  0.00522  1.0000
  Ag  Ag10      1.0  0.08636999999999996  0.9096000000000002  0.01698  1.0000
  H   H1        1.0  0.7540600000000002  0.5512600000000003  0.5310300000000002  1.0000
  H   H2        1.0  0.6414  0.53068  0.48445  1.0000
  H   H3        1.0  0.55114  0.37964000000000014  0.8226300000000002  1.0000
  H   H4        1.0  0.51858  0.3554400000000001  0.6833000000000002  1.0000
  H   H5        1.0  0.7854399999999998  0.51469  0.78239  1.0000
  H   H6        1.0  0.8061899999999997  0.53951  0.92031  1.0000
  H   H7        1.0  0.9026500000000002  0.6347100000000002  0.8625600000000002  1.0000
  H   H8        1.0  0.8560899999999998  0.55079  0.70987  1.0000
  H   H9        1.0  0.15706999999999996  0.5762300000000002  0.74657  1.0000
  H   H10       1.0  0.19544  0.65462  0.89782  1.0000
  H   H11       1.0  0.9912199999999997  0.4209600000000001  0.89175  1.0000
  H   H12       1.0  0.8952399999999998  0.34128  0.74041  1.0000
  H   H13       1.0  0.16228  0.3272399999999999  0.69988  1.0000
  H   H14       1.0  0.25014999999999993  0.40274  0.85218  1.0000
  H   H15       1.0  0.39142000000000005  0.56058  0.92133  1.0000
  H   H16       1.0  0.28201  0.4491800000000001  0.77882  1.0000
  H   H17       1.0  0.4398999999999998  0.54248  0.6882  1.0000
  H   H18       1.0  0.5442299999999998  0.6475  0.83125  1.0000
  H   H19       1.0  0.18236999999999992  0.36666  0.14912  1.0000
  H   H20       1.0  0.2754199999999999  0.43692  0.2997  1.0000
  H   H21       1.0  0.5313199999999999  0.4481800000000002  0.2545800000000001  1.0000
  H   H22       1.0  0.43201999999999996  0.3666  0.10377  1.0000
  H   H23       1.0  0.27008  0.13378000000000007  0.1264  1.0000
  H   H24       1.0  0.32262  0.20050000000000004  0.27853  1.0000
  H   H25       1.0  0.61239  0.24183  0.3003  1.0000
  H   H26       1.0  0.5515799999999997  0.1738  0.14818  1.0000
  H   H27       1.0  0.6183500000000001  0.28208  0.09999000000000002  1.0000
  H   H28       1.0  0.6494799999999997  0.31471000000000005  0.24246  1.0000
  H   H29       1.0  0.93617  0.42118000000000017  0.31624000000000013  1.0000
  H   H30       1.0  0.8964299999999997  0.38602  0.17224  1.0000
  H   H31       1.0  0.5631099999999998  0.9755800000000002  0.1538  1.0000
  H   H32       1.0  0.67096  0.06990000000000006  0.2997700000000001  1.0000
  H   H33       1.0  0.8991199999999998  0.05636000000000003  0.21592000000000006  1.0000
  H   H34       1.0  0.78408  0.9643  0.07197  1.0000
  H   H35       1.0  0.87174  0.14912  0.15814  1.0000
  H   H36       1.0  0.9843399999999998  0.23448  0.30183  1.0000
  H   H37       1.0  0.18438999999999997  0.2779300000000001  0.21513000000000004  1.0000
  H   H38       1.0  0.06802  0.18133000000000002  0.07171  1.0000
  H   H39       1.0  0.36074999999999996  0.8294100000000001  0.8818200000000003  1.0000
  H   H40       1.0  0.24845999999999988  0.7523500000000002  0.73556  1.0000
  H   H41       1.0  0.4941699999999998  0.7318800000000002  0.66657  1.0000
  H   H42       1.0  0.5973399999999998  0.8118300000000002  0.81467  1.0000
  H   H43       1.0  0.73085  0.020049999999999985  0.46648  1.0000
  H   H44       1.0  0.6504199999999998  0.05338000000000004  0.50593  1.0000
  H   H45       1.0  0.2406  0.56329  0.18037  1.0000
  H   H46       1.0  0.35242999999999997  0.67689  0.31944  1.0000
  H   H47       1.0  0.5253299999999995  0.70681  0.20493  1.0000
  H   H48       1.0  0.4024099999999999  0.5985  0.06846  1.0000
  H   H49       1.0  0.55957  0.79666  0.16243  1.0000
  H   H50       1.0  0.6667499999999998  0.8510800000000003  0.3086600000000001  1.0000
  H   H51       1.0  0.9162299999999995  0.8114100000000003  0.23847000000000004  1.0000
  H   H52       1.0  0.8011499999999997  0.75228  0.09336000000000003  1.0000
  H   H53       1.0  0.6059900000000001  0.54  0.12868  1.0000
  H   H54       1.0  0.66757  0.6064  0.28154  1.0000
  H   H55       1.0  0.9568499999999996  0.6184400000000002  0.28799  1.0000
  H   H56       1.0  0.8862099999999998  0.55375  0.13438  1.0000
  H   H57       1.0  0.9951299999999996  0.62035  0.09595  1.0000
  H   H58       1.0  0.03684999999999999  0.64888  0.23899  1.0000
  H   H59       1.0  0.25543  0.85867  0.3211  1.0000
  H   H60       1.0  0.20801999999999998  0.82367  0.17796  1.0000
  H   H61       1.0  0.5454499999999998  0.21310000000000015  0.8647900000000002  1.0000
  H   H62       1.0  0.48091999999999996  0.14119999999999996  0.71166  1.0000
  H   H63       1.0  0.7634299999999998  0.19511000000000006  0.72829  1.0000
  H   H64       1.0  0.8209899999999998  0.26025  0.88096  1.0000
  H   H65       1.0  0.6458499999999998  0.00027999999999999623  0.88914  1.0000
  H   H66       1.0  0.5421499999999998  0.9235  0.73965  1.0000
  H   H67       1.0  0.7879399999999998  0.9518600000000003  0.6901900000000002  1.0000
  H   H68       1.0  0.8835499999999997  0.024219999999999964  0.83942  1.0000
  H   H69       1.0  0.014980000000000004  0.19449  0.91322  1.0000
  H   H70       1.0  0.8985399999999998  0.09230000000000001  0.77083  1.0000
  H   H71       1.0  0.10686000000000002  0.1041600000000001  0.6777200000000002  1.0000
  H   H72       1.0  0.2156699999999999  0.20749000000000004  0.82212  1.0000
  H   H73       1.0  0.9030700000000002  0.82475  0.86288  1.0000
  H   H74       1.0  0.84822  0.77845  0.71474  1.0000
  H   H75       1.0  0.1378000000000001  0.8435400000000001  0.7554400000000002  1.0000
  H   H76       1.0  0.1859699999999999  0.8863000000000002  0.90336  1.0000
  H   H77       1.0  0.20936999999999992  0.9888400000000003  0.84438  1.0000
  H   H78       1.0  0.16971999999999987  0.9316600000000003  0.69704  1.0000
  H   H79       1.0  0.4395699999999999  0.06544000000000004  0.76208  1.0000
  H   H80       1.0  0.4755399999999999  0.11006999999999999  0.90794  1.0000
  H   H81       1.0  0.9927599999999999  0.9572500000000002  0.13936  1.0000
  H   H82       1.0  0.037670000000000044  0.034580000000000055  0.2918100000000001  1.0000
  H   H83       1.0  0.33489999999999986  0.058760000000000055  0.3170800000000001  1.0000
  H   H84       1.0  0.2773499999999999  0.99206  0.16573000000000004  1.0000
  C   C1        1.0  0.6008099999999997  0.40979  0.81191  1.0000
  C   C2        1.0  0.58324  0.39603  0.73451  1.0000
  C   C3        1.0  0.6476199999999998  0.43733  0.72297  1.0000
  C   C4        1.0  0.7312999999999998  0.48651000000000005  0.79046  1.0000
  C   C5        1.0  0.7435299999999999  0.4991600000000001  0.86636  1.0000
  C   C6        1.0  0.6263399999999998  0.43473  0.64234  1.0000
  C   C7        1.0  0.9571  0.61924  0.8345  1.0000
  C   C8        1.0  0.9314499999999998  0.5742700000000002  0.75054  1.0000
  C   C9        1.0  0.00385999999999996  0.55568  0.7167  1.0000
  C   C10       1.0  0.09997  0.58853  0.7713400000000001  1.0000
  C   C11       1.0  0.12116999999999988  0.6315200000000002  0.85452  1.0000
  C   C12       1.0  0.9813199999999996  0.4951999999999999  0.62584  1.0000
  C   C13       1.0  0.026270000000000113  0.3987500000000002  0.8474000000000003  1.0000
  C   C14       1.0  0.9738299999999999  0.3548300000000001  0.76441  1.0000
  C   C15       1.0  0.022119999999999994  0.32866  0.70935  1.0000
  C   C16       1.0  0.12332000000000005  0.34624000000000016  0.7412900000000002  1.0000
  C   C17       1.0  0.17141000000000006  0.38935  0.82504  1.0000
  C   C18       1.0  0.9657799999999996  0.28737  0.61893  1.0000
  C   C19       1.0  0.3995199999999999  0.55492  0.8681  1.0000
  C   C20       1.0  0.33935999999999983  0.49329  0.78947  1.0000
  C   C21       1.0  0.35154999999999986  0.48702000000000006  0.72172  1.0000
  C   C22       1.0  0.4253  0.54604  0.7381  1.0000
  C   C23       1.0  0.4842099999999999  0.60463  0.81795  1.0000
  C   C24       1.0  0.29165  0.41608000000000006  0.6342  1.0000
  C   C25       1.0  0.2603599999999999  0.38319000000000003  0.17458  1.0000
  C   C26       1.0  0.31176999999999994  0.42386  0.25803  1.0000
  C   C27       1.0  0.41151  0.4468  0.28838  1.0000
  C   C28       1.0  0.45476999999999995  0.42769  0.23169  1.0000
  C   C29       1.0  0.40011  0.38409000000000004  0.14912  1.0000
  C   C30       1.0  0.47295999999999977  0.48936000000000013  0.37844  1.0000
  C   C31       1.0  0.3453599999999999  0.15721000000000002  0.16666000000000006  1.0000
  C   C32       1.0  0.3743299999999997  0.19284000000000007  0.24998  1.0000
  C   C33       1.0  0.47221999999999986  0.22266000000000002  0.29995000000000005  1.0000
  C   C34       1.0  0.5365199999999998  0.21744000000000005  0.26281  1.0000
  C   C35       1.0  0.5028999999999998  0.18108000000000005  0.17907  1.0000
  C   C36       1.0  0.5071099999999998  0.2587  0.39071  1.0000
  C   C37       1.0  0.6879799999999998  0.31227  0.14932  1.0000
  C   C38       1.0  0.7053600000000001  0.3296500000000001  0.22753000000000007  1.0000
  C   C39       1.0  0.7972099999999998  0.36578  0.2888300000000001  1.0000
  C   C40       1.0  0.8652299999999998  0.3904700000000001  0.26935  1.0000
  C   C41       1.0  0.84329  0.3710200000000001  0.18964  1.0000
  C   C42       1.0  0.8252499999999999  0.36587  0.36953000000000014  1.0000
  C   C43       1.0  0.6380299999999998  0.9943400000000002  0.16942  1.0000
  C   C44       1.0  0.69819  0.04631000000000002  0.25046  1.0000
  C   C45       1.0  0.7939799999999997  0.07219000000000006  0.26958  1.0000
  C   C46       1.0  0.82515  0.03858000000000001  0.20339  1.0000
  C   C47       1.0  0.7616399999999998  0.98773  0.12375000000000001  1.0000
  C   C48       1.0  0.8572199999999999  0.14188  0.35643  1.0000
  C   C49       1.0  0.9431399999999998  0.1752  0.17261  1.0000
  C   C50       1.0  0.005680000000000061  0.22426000000000007  0.2527200000000001  1.0000
  C   C51       1.0  0.09364999999999994  0.26446  0.27018  1.0000
  C   C52       1.0  0.11616000000000003  0.24830000000000008  0.20340000000000005  1.0000
  C   C53       1.0  0.05201999999999999  0.1959  0.12449999999999999  1.0000
  C   C54       1.0  0.15850999999999996  0.32671  0.35713  1.0000
  C   C55       1.0  0.38732  0.8082600000000001  0.8326800000000002  1.0000
  C   C56       1.0  0.32533  0.76571  0.7517  1.0000
  C   C57       1.0  0.3616199999999999  0.73832  0.68943  1.0000
  C   C58       1.0  0.46198  0.7539100000000002  0.71285  1.0000
  C   C59       1.0  0.5197299999999999  0.7980400000000002  0.7953  1.0000
  C   C60       1.0  0.2942199999999999  0.6904600000000001  0.60044  1.0000
  C   C61       1.0  0.30338999999999994  0.59759  0.18796  1.0000
  C   C62       1.0  0.3660599999999998  0.66002  0.26506  1.0000
  C   C63       1.0  0.44562999999999986  0.70346  0.27241  1.0000
  C   C64       1.0  0.4610699999999999  0.67812  0.20063000000000006  1.0000
  C   C65       1.0  0.39431  0.61712  0.12544  1.0000
  C   C66       1.0  0.5095099999999998  0.78008  0.35442  1.0000
  C   C67       1.0  0.63898  0.79886  0.18134  1.0000
  C   C68       1.0  0.69835  0.8302600000000002  0.2622600000000001  1.0000
  C   C69       1.0  0.80065  0.8321  0.28437  1.0000
  C   C70       1.0  0.8374399999999997  0.80759  0.22259  1.0000
  C   C71       1.0  0.7742099999999997  0.7748200000000002  0.14256  1.0000
  C   C72       1.0  0.8676099999999998  0.84861  0.36861  1.0000
  C   C73       1.0  0.68312  0.55779  0.16568  1.0000
  C   C74       1.0  0.71701  0.5928900000000003  0.24936  1.0000
  C   C75       1.0  0.81743  0.61391  0.29416  1.0000
  C   C76       1.0  0.8792399999999999  0.6004500000000003  0.25257  1.0000
  C   C77       1.0  0.8403499999999997  0.5657100000000003  0.16891  1.0000
  C   C78       1.0  0.8585599999999997  0.6541900000000002  0.3859500000000001  1.0000
  C   C79       1.0  0.052430000000000004  0.67226  0.14751000000000006  1.0000
  C   C80       1.0  0.0755  0.6878400000000001  0.22618000000000005  1.0000
  C   C81       1.0  0.15057  0.75451  0.29135  1.0000
  C   C82       1.0  0.19719999999999982  0.8054100000000003  0.27313  1.0000
  C   C83       1.0  0.17080000000000004  0.78654  0.19321000000000005  1.0000
  C   C84       1.0  0.18393999999999996  0.7668600000000001  0.3771100000000001  1.0000
  C   C85       1.0  0.5918999999999998  0.20657  0.83236  1.0000
  C   C86       1.0  0.5563199999999999  0.16795000000000018  0.7481700000000002  1.0000
  C   C87       1.0  0.6180699999999998  0.16381000000000012  0.7093  1.0000
  C   C88       1.0  0.7149999999999997  0.19781  0.758  1.0000
  C   C89       1.0  0.74636  0.23364  0.84154  1.0000
  C   C90       1.0  0.5824899999999997  0.12505  0.61783  1.0000
  C   C91       1.0  0.6746299999999997  0.9873000000000002  0.84306  1.0000
  C   C92       1.0  0.61785  0.9451100000000002  0.76094  1.0000
  C   C93       1.0  0.6573499999999998  0.93084  0.70339  1.0000
  C   C94       1.0  0.7543899999999999  0.9610400000000002  0.73242  1.0000
  C   C95       1.0  0.8074499999999999  0.002129999999999996  0.81522  1.0000
  C   C96       1.0  0.5957  0.88933  0.61428  1.0000
  C   C97       1.0  0.03273000000000006  0.17341000000000023  0.8596700000000003  1.0000
  C   C98       1.0  0.96882  0.11684  0.78134  1.0000
  C   C99       1.0  0.9954299999999996  0.08872  0.71386  1.0000
  C   C100      1.0  0.08423999999999994  0.12466000000000005  0.72886  1.0000
  C   C101      1.0  0.14481000000000005  0.18139  0.80883  1.0000
  C   C102      1.0  0.9360699999999998  0.01269999999999997  0.62887  1.0000
  C   C103      1.0  0.9536699999999999  0.8276100000000002  0.83729  1.0000
  C   C104      1.0  0.9233899999999999  0.8020700000000001  0.7552400000000002  1.0000
  C   C105      1.0  0.9890199999999996  0.8108100000000001  0.72483  1.0000
  C   C106      1.0  0.08563000000000005  0.83895  0.77892  1.0000
  C   C107      1.0  0.11171  0.86288  0.86001  1.0000
  C   C108      1.0  0.9557799999999999  0.80141  0.63982  1.0000
  C   C109      1.0  0.25996  0.002070000000000005  0.82373  1.0000
  C   C110      1.0  0.23756  0.9721000000000002  0.7419400000000003  1.0000
  C   C111      1.0  0.30035  0.9977299999999999  0.71798  1.0000
  C   C112      1.0  0.3880499999999999  0.04743000000000009  0.7792500000000001  1.0000
  C   C113      1.0  0.4077999999999999  0.07257  0.85961  1.0000
  C   C114      1.0  0.27209000000000005  0.9803500000000002  0.6318300000000002  1.0000
  C   C115      1.0  0.06717  0.98231  0.18093  1.0000
  C   C116      1.0  0.09253000000000003  0.022720000000000032  0.26473  1.0000
  C   C117      1.0  0.19019999999999995  0.05022999999999999  0.31577  1.0000
  C   C118      1.0  0.2582  0.03832000000000003  0.27947  1.0000
  C   C119      1.0  0.22678999999999994  0.00040000000000000707  0.19538  1.0000
  C   C120      1.0  0.22095999999999993  0.08397  0.40623  1.0000
  N   N1        1.0  0.6784099999999998  0.4626400000000002  0.8782000000000002  1.0000
  N   N2        1.0  0.05147999999999999  0.6468000000000002  0.8876800000000001  1.0000
  N   N3        1.0  0.12457000000000004  0.41676000000000013  0.8788600000000002  1.0000
  N   N4        1.0  0.4727599999999999  0.6107400000000003  0.8835900000000002  1.0000
  N   N5        1.0  0.30325  0.36124  0.11937  1.0000
  N   N6        1.0  0.4085799999999999  0.14934  0.12991  1.0000
  N   N7        1.0  0.7569499999999996  0.33029  0.12909  1.0000
  N   N8        1.0  0.6670199999999996  0.9662700000000003  0.10519000000000003  1.0000
  N   N9        1.0  0.96465  0.15955  0.108  1.0000
  N   N10       1.0  0.4838699999999998  0.82627  0.85584  1.0000
  N   N11       1.0  0.31501999999999997  0.5774400000000001  0.11834  1.0000
  N   N12       1.0  0.6751400000000001  0.76675  0.12001  1.0000
  N   N13       1.0  0.7431799999999997  0.54321  0.12463  1.0000
  N   N14       1.0  0.09976999999999998  0.72025  0.12973  1.0000
  N   N15       1.0  0.6860799999999999  0.23991  0.87995  1.0000
  N   N16       1.0  0.76958  0.015820000000000077  0.8713000000000002  1.0000
  N   N17       1.0  0.12115999999999999  0.20515  0.87434  1.0000
  N   N18       1.0  0.046009999999999995  0.86047  0.89073  1.0000
  N   N19       1.0  0.34342  0.05274000000000001  0.88336  1.0000
  N   N20       1.0  0.13240999999999997  0.97086  0.14538  1.0000
  O   O1        1.0  0.5377  0.45062  0.60654  1.0000
  O   O2        1.0  0.6998699999999999  0.42068000000000016  0.6220600000000002  1.0000
  O   O3        1.0  0.8934  0.46426  0.58304  1.0000
  O   O4        1.0  0.051849999999999924  0.4763200000000001  0.60048  1.0000
  O   O5        1.0  0.8736299999999999  0.28109  0.59677  1.0000
  O   O6        1.0  0.015439999999999968  0.2665400000000001  0.57414  1.0000
  O   O7        1.0  0.22706  0.36407  0.62362  1.0000
  O   O8        1.0  0.31376999999999994  0.41542000000000023  0.57937  1.0000
  O   O9        1.0  0.43655  0.4835300000000001  0.42345  1.0000
  O   O10       1.0  0.5547999999999998  0.5250600000000002  0.39952  1.0000
  O   O11       1.0  0.44158  0.27242  0.42047  1.0000
  O   O12       1.0  0.5987299999999998  0.2713  0.4287  1.0000
  O   O13       1.0  0.7541699999999998  0.35945  0.3865  1.0000
  O   O14       1.0  0.9161999999999998  0.3667100000000001  0.40863  1.0000
  O   O15       1.0  0.81449  0.18201  0.40799  1.0000
  O   O16       1.0  0.9446999999999998  0.15601  0.36702  1.0000
  O   O17       1.0  0.13177999999999995  0.33827  0.41298  1.0000
  O   O18       1.0  0.23493999999999993  0.3634400000000001  0.36651  1.0000
  O   O19       1.0  0.21576999999999993  0.7352100000000003  0.58257  1.0000
  O   O20       1.0  0.3255100000000001  0.60877  0.55462  1.0000
  O   O21       1.0  0.6991199999999997  0.52465  0.5297  1.0000
  O   O22       1.0  0.4632599999999999  0.8430400000000003  0.3996400000000001  1.0000
  O   O23       1.0  0.6002699999999997  0.77454  0.36731  1.0000
  O   O24       1.0  0.8251799999999998  0.85878  0.41584  1.0000
  O   O25       1.0  0.95924  0.8449400000000002  0.38444  1.0000
  O   O26       1.0  0.79631  0.67495  0.42001  1.0000
  O   O27       1.0  0.9509899999999997  0.66566  0.41939  1.0000
  O   O28       1.0  0.13138000000000005  0.72724  0.3905100000000001  1.0000
  O   O29       1.0  0.26383999999999996  0.81419  0.4265800000000001  1.0000
  O   O30       1.0  0.50101  0.07833000000000004  0.5769  1.0000
  O   O31       1.0  0.63667  0.14300000000000004  0.59174  1.0000
  O   O32       1.0  0.5056099999999998  0.87385  0.59483  1.0000
  O   O33       1.0  0.63718  0.8767300000000001  0.56606  1.0000
  O   O34       1.0  0.8485999999999998  0.9986100000000002  0.61744  1.0000
  O   O35       1.0  0.9816399999999997  0.9682200000000002  0.5794300000000002  1.0000
  O   O36       1.0  0.8639099999999997  0.7973100000000004  0.6030700000000002  1.0000
  O   O37       1.0  0.023320000000000063  0.80463  0.61773  1.0000
  O   O38       1.0  0.1921599999999999  0.93564  0.58024  1.0000
  O   O39       1.0  0.33084  0.016219999999999995  0.61996  1.0000
  O   O40       1.0  0.1769  0.15600000000000003  0.44684  1.0000
  O   O41       1.0  0.2883  0.030760000000000044  0.43008  1.0000
  O   O42       1.0  0.6732199999999999  0.99513  0.46298  1.0000
