data_image0
_chemical_formula_structural       Cu24H32C144N16O96
_chemical_formula_sum              "Cu24 H32 C144 N16 O96"
_cell_length_a       19.00359
_cell_length_b       19.32524
_cell_length_c       22.616
_cell_angle_alpha    90.06262
_cell_angle_beta     90.1536
_cell_angle_gamma    90.16311999999999

_symmetry_space_group_name_H-M    'P 1'
_symmetry_Int_Tables_number       1

loop_
  _symmetry_equiv_pos_as_xyz
  'x,y,z'

loop_
  _atom_site_type_symbol
  _atom_site_label
  _atom_site_symmetry_multiplicity
  _atom_site_fract_x
  _atom_site_fract_y
  _atom_site_fract_z
  _atom_site_occupancy
  Cu  Cu1       1.0  0.48095000000000004  0.012890000000000002  0.9502100000000001  1.0000
  Cu  Cu2       1.0  0.45062  0.8528  0.75006  1.0000
  Cu  Cu3       1.0  0.4448500000000001  0.55954  0.7507  1.0000
  Cu  Cu4       1.0  0.85539  0.4471800000000001  0.25065  1.0000
  Cu  Cu5       1.0  0.35182  0.64735  0.75016  1.0000
  Cu  Cu6       1.0  0.51847  0.98626  0.44899  1.0000
  Cu  Cu7       1.0  0.9502700000000001  0.64437  0.74996  1.0000
  Cu  Cu8       1.0  0.05262  0.06008000000000001  0.25004  1.0000
  Cu  Cu9       1.0  0.64283  0.94878  0.75076  1.0000
  Cu  Cu10      1.0  0.4825  0.01283  0.55124  1.0000
  Cu  Cu11      1.0  0.5184  0.9866700000000002  0.05207  1.0000
  Cu  Cu12      1.0  0.98115  0.48651000000000005  0.95053  1.0000
  Cu  Cu13      1.0  0.04984  0.35501000000000005  0.25008  1.0000
  Cu  Cu14      1.0  0.01787  0.51347  0.052509999999999994  1.0000
  Cu  Cu15      1.0  0.9458499999999999  0.93917  0.75114  1.0000
  Cu  Cu16      1.0  0.64614  0.35279  0.25053  1.0000
  Cu  Cu17      1.0  0.35589  0.05623000000000001  0.25063  1.0000
  Cu  Cu18      1.0  0.01837  0.51327  0.44989999999999997  1.0000
  Cu  Cu19      1.0  0.55247  0.44032  0.2499  1.0000
  Cu  Cu20      1.0  0.85207  0.8511  0.75007  1.0000
  Cu  Cu21      1.0  0.9816800000000001  0.48647  0.55171  1.0000
  Cu  Cu22      1.0  0.14272  0.56411  0.7461599999999999  1.0000
  Cu  Cu23      1.0  0.54929  0.14632  0.24988  1.0000
  Cu  Cu24      1.0  0.14627  0.1482  0.25054  1.0000
  H   H1        1.0  0.56061  0.77275  0.46393999999999996  1.0000
  H   H2        1.0  0.06038  0.72795  0.46344  1.0000
  H   H3        1.0  0.45447  0.39178  0.40881  1.0000
  H   H4        1.0  0.26949  0.9367300000000001  0.96649  1.0000
  H   H5        1.0  0.22955  0.43621999999999994  0.46554  1.0000
  H   H6        1.0  0.76941  0.56279  0.53565  1.0000
  H   H7        1.0  0.2706  0.9357300000000001  0.53386  1.0000
  H   H8        1.0  0.23112  0.4336  0.0351  1.0000
  H   H9        1.0  0.0437  0.89186  0.90975  1.0000
  H   H10       1.0  0.76947  0.56207  0.96596  1.0000
  H   H11       1.0  0.9397599999999999  0.27272  0.53675  1.0000
  H   H12       1.0  0.54252  0.60675  0.9100599999999999  1.0000
  H   H13       1.0  0.60018  0.54498  0.09141000000000002  1.0000
  H   H14       1.0  0.95663  0.10687  0.08948999999999999  1.0000
  H   H15       1.0  0.6009  0.54583  0.40903  1.0000
  H   H16       1.0  0.1004  0.9544  0.09181  1.0000
  H   H17       1.0  0.04328  0.8932500000000001  0.59024  1.0000
  H   H18       1.0  0.45528  0.39299  0.08827  1.0000
  H   H19       1.0  0.060020000000000004  0.72698  0.03684  1.0000
  H   H20       1.0  0.5605  0.77232  0.03685  1.0000
  H   H21       1.0  0.9538  0.10732999999999998  0.40979999999999994  1.0000
  H   H22       1.0  0.89851  0.04339  0.90871  1.0000
  H   H23       1.0  0.90005  0.04472  0.592  1.0000
  H   H24       1.0  0.44132  0.22629  0.96242  1.0000
  H   H25       1.0  0.73096  0.061590000000000006  0.46589  1.0000
  H   H26       1.0  0.40057  0.45405000000000006  0.59005  1.0000
  H   H27       1.0  0.10008  0.9565299999999999  0.40934  1.0000
  H   H28       1.0  0.54425  0.60699  0.59012  1.0000
  H   H29       1.0  0.44005  0.22720000000000004  0.5366  1.0000
  H   H30       1.0  0.39558  0.45117999999999997  0.90559  1.0000
  H   H31       1.0  0.73128  0.06263  0.03549  1.0000
  H   H32       1.0  0.94115  0.27214  0.9627600000000001  1.0000
  C   C1        1.0  0.55885  0.68561  0.9765299999999999  1.0000
  C   C2        1.0  0.30295  0.50153  0.6162  1.0000
  C   C3        1.0  0.99146  0.298  0.04556000000000001  1.0000
  C   C4        1.0  0.96332  0.8290999999999998  0.83145  1.0000
  C   C5        1.0  0.66304  0.4631  0.16915  1.0000
  C   C6        1.0  0.83501  0.9605299999999999  0.8326500000000001  1.0000
  C   C7        1.0  0.98585  0.72447  0.8987299999999999  1.0000
  C   C8        1.0  0.44053  0.31354  0.47602  1.0000
  C   C9        1.0  0.20441  0.48978  0.9555199999999999  1.0000
  C   C10       1.0  0.29513  0.98858  0.04863  1.0000
  C   C11       1.0  0.31809  0.03678  0.34903  1.0000
  C   C12       1.0  0.51438  0.22658999999999999  0.10094999999999998  1.0000
  C   C13       1.0  0.72815  0.98685  0.89849  1.0000
  C   C14       1.0  0.29933  0.50428  0.88454  1.0000
  C   C15       1.0  0.12912  0.49404000000000003  0.53075  1.0000
  C   C16       1.0  0.70486  0.0114  0.54842  1.0000
  C   C17       1.0  0.54292  0.75329  0.50649  1.0000
  C   C18       1.0  0.65456  0.53533  0.07923  1.0000
  C   C19       1.0  0.46590999999999994  0.33965  0.07604  1.0000
  C   C20       1.0  0.96314  0.83042  0.66843  1.0000
  C   C21       1.0  0.00267  0.20322  0.38458  1.0000
  C   C22       1.0  0.51464  0.22539  0.39896999999999994  1.0000
  C   C23       1.0  0.50417  0.2962  0.38452  1.0000
  C   C24       1.0  0.66324  0.46231  0.33247  1.0000
  C   C25       1.0  0.27007  0.012939999999999998  0.10334  1.0000
  C   C26       1.0  0.37074  0.9948  0.03104  1.0000
  C   C27       1.0  0.04283  0.74707  0.50616  1.0000
  C   C28       1.0  0.2703  0.01316  0.39785  1.0000
  C   C29       1.0  0.50091  0.87211  0.52883  1.0000
  C   C30       1.0  0.15484  0.9640700000000001  0.07963  1.0000
  C   C31       1.0  0.79522  0.51144  0.45354  1.0000
  C   C32       1.0  0.00198  0.62769  0.5284  1.0000
  C   C33       1.0  0.013989999999999999  0.27431  0.10140999999999999  1.0000
  C   C34       1.0  0.33295  0.53809  0.8319700000000001  1.0000
  C   C35       1.0  0.53526  0.33165  0.16802  1.0000
  C   C36       1.0  0.29577  0.98822  0.45226  1.0000
  C   C37       1.0  0.9981200000000001  0.37248  0.47156  1.0000
  C   C38       1.0  0.04275  0.74599  0.99397  1.0000
  C   C39       1.0  0.34212  0.46219  0.9195  1.0000
  C   C40       1.0  0.4851  0.7734  0.60123  1.0000
  C   C41       1.0  0.8441399999999999  0.03432  0.9213599999999998  1.0000
  C   C42       1.0  0.25063  0.95426  0.49164  1.0000
  C   C43       1.0  0.18422  0.53246  0.65288  1.0000
  C   C44       1.0  0.45749  0.24645  0.49389  1.0000
  C   C45       1.0  0.01285  0.27426  0.39848000000000006  1.0000
  C   C46       1.0  0.31845  0.43754000000000004  0.52521  1.0000
  C   C47       1.0  0.99957  0.6271  0.9724000000000002  1.0000
  C   C48       1.0  0.6292  0.00522  0.53086  1.0000
  C   C49       1.0  0.9954599999999999  0.79544  0.88463  1.0000
  C   C50       1.0  0.1629  0.0377  0.16875  1.0000
  C   C51       1.0  0.8455200000000002  0.03515  0.57985  1.0000
  C   C52       1.0  0.69719  0.49595999999999996  0.11646  1.0000
  C   C53       1.0  0.68173  0.56206  0.47492  1.0000
  C   C54       1.0  0.00852  0.70097  0.95462  1.0000
  C   C55       1.0  0.46294  0.66837  0.66845  1.0000
  C   C56       1.0  0.9665999999999999  0.16032  0.07718  1.0000
  C   C57       1.0  0.46167  0.66972  0.83193  1.0000
  C   C58       1.0  0.69789  0.49642  0.38464  1.0000
  C   C59       1.0  0.87072  0.50509  0.47169  1.0000
  C   C60       1.0  0.37178  0.9936700000000002  0.46929  1.0000
  C   C61       1.0  0.49861000000000005  0.12747  0.02908  1.0000
  C   C62       1.0  0.74966  0.54467  0.00854  1.0000
  C   C63       1.0  0.53383  0.66023  0.57757  1.0000
  C   C64       1.0  0.22825  0.51577  0.90089  1.0000
  C   C65       1.0  0.05912  0.81337  0.9763899999999999  1.0000
  C   C66       1.0  0.95812  0.25292  0.005660000000000001  1.0000
  C   C67       1.0  0.9992  0.37224  0.02859  1.0000
  C   C68       1.0  0.80069  0.99462  0.88475  1.0000
  C   C69       1.0  0.17938  0.55358  0.8593599999999999  1.0000
  C   C70       1.0  0.0349  0.32206  0.15118  1.0000
  C   C71       1.0  0.49189  0.20162000000000002  0.45474999999999993  1.0000
  C   C72       1.0  0.24952000000000002  0.45266  0.9926099999999999  1.0000
  C   C73       1.0  0.34583  0.46333  0.57849  1.0000
  C   C74       1.0  0.49427999999999994  0.70294  0.8852499999999999  1.0000
  C   C75       1.0  0.03446  0.32184  0.34888  1.0000
  C   C76       1.0  0.19757  0.00395  0.11667999999999999  1.0000
  C   C77       1.0  0.12927  0.49687  0.97424  1.0000
  C   C78       1.0  0.53302  0.66017  0.92267  1.0000
  C   C79       1.0  0.24969999999999998  0.45371000000000006  0.50809  1.0000
  C   C80       1.0  0.31813  0.03756000000000001  0.15204  1.0000
  C   C81       1.0  0.19765  0.00522  0.3845  1.0000
  C   C82       1.0  0.49167  0.20191  0.04543  1.0000
  C   C83       1.0  0.4995  0.12739  0.47224999999999995  1.0000
  C   C84       1.0  0.80231  0.99654  0.61715  1.0000
  C   C85       1.0  0.05885  0.81466  0.52355  1.0000
  C   C86       1.0  0.7501  0.04488  0.9927199999999999  1.0000
  C   C87       1.0  0.75035  0.04441  0.50871  1.0000
  C   C88       1.0  0.50867  0.79801  0.95477  1.0000
  C   C89       1.0  0.75001  0.54535  0.49285  1.0000
  C   C90       1.0  0.50854  0.79781  0.54589  1.0000
  C   C91       1.0  0.03608  0.16998  0.16895  1.0000
  C   C92       1.0  0.7696  0.487  0.10302999999999998  1.0000
  C   C93       1.0  0.99012  0.29829000000000006  0.45418  1.0000
  C   C94       1.0  0.535  0.17958  0.15106  1.0000
  C   C95       1.0  0.77037  0.48765  0.39837  1.0000
  C   C96       1.0  0.68121  0.56131  0.02599  1.0000
  C   C97       1.0  0.03348  0.8398599999999999  0.57743  1.0000
  C   C98       1.0  0.00901  0.70202  0.54558  1.0000
  C   C99       1.0  0.81889  0.06079999999999999  0.52639  1.0000
  C   C100      1.0  0.03407  0.16883  0.33149  1.0000
  C   C101      1.0  0.93996  0.18596  0.47656  1.0000
  C   C102      1.0  0.23044  0.50988  0.60306  1.0000
  C   C103      1.0  0.31708  0.43564  0.97304  1.0000
  C   C104      1.0  0.03396  0.83844  0.92235  1.0000
  C   C105      1.0  0.18139  0.93799  0.02642  1.0000
  C   C106      1.0  0.9650599999999999  0.67653  0.84904  1.0000
  C   C107      1.0  0.96426  0.16066  0.42239999999999994  1.0000
  C   C108      1.0  0.81771  0.46439  0.15217  1.0000
  C   C109      1.0  0.87029  0.50381  0.03074  1.0000
  C   C110      1.0  0.46454  0.82074  0.65112  1.0000
  C   C111      1.0  0.6288  0.00505  0.97183  1.0000
  C   C112      1.0  0.9949099999999999  0.79698  0.61497  1.0000
  C   C113      1.0  0.50426  0.29761  0.11438  1.0000
  C   C114      1.0  0.81828  0.46457  0.34927  1.0000
  C   C115      1.0  0.44168999999999997  0.31366  0.02186  1.0000
  C   C116      1.0  0.95647  0.25344  0.49386  1.0000
  C   C117      1.0  0.24993999999999997  0.95445  0.00905  1.0000
  C   C118      1.0  0.50097  0.8722899999999999  0.97195  1.0000
  C   C119      1.0  0.00466  0.20327  0.11526  1.0000
  C   C120      1.0  0.81838  0.06119  0.97451  1.0000
  C   C121      1.0  0.45829  0.24617  0.00514  1.0000
  C   C122      1.0  0.55927  0.68592  0.52388  1.0000
  C   C123      1.0  0.53535  0.32977  0.33084  1.0000
  C   C124      1.0  0.9649600000000002  0.67818  0.65107  1.0000
  C   C125      1.0  0.46525000000000005  0.33873  0.42189  1.0000
  C   C126      1.0  0.49463000000000007  0.70237  0.61511  1.0000
  C   C127      1.0  0.48512999999999995  0.77392  0.8992699999999999  1.0000
  C   C128      1.0  0.18164  0.93889  0.47435999999999995  1.0000
  C   C129      1.0  0.67918  0.9642200000000001  0.84973  1.0000
  C   C130      1.0  0.83556  0.96251  0.66978  1.0000
  C   C131      1.0  0.98554  0.72585  0.60113  1.0000
  C   C132      1.0  0.68191  0.9673799999999999  0.65322  1.0000
  C   C133      1.0  0.1547  0.96581  0.42147  1.0000
  C   C134      1.0  0.46472  0.82098  0.84916  1.0000
  C   C135      1.0  0.79467  0.51067  0.04813  1.0000
  C   C136      1.0  0.20481  0.48704  0.54802  1.0000
  C   C137      1.0  0.16394  0.03912  0.33194  1.0000
  C   C138      1.0  0.9417700000000001  0.18547  0.023019999999999995  1.0000
  C   C139      1.0  0.54285  0.7531  0.9940800000000001  1.0000
  C   C140      1.0  0.33632  0.5357  0.66879  1.0000
  C   C141      1.0  0.70417  0.01107  0.9536199999999999  1.0000
  C   C142      1.0  0.53523  0.1778  0.34908  1.0000
  C   C143      1.0  0.72973  0.98843  0.60361  1.0000
  C   C144      1.0  0.65524  0.53609  0.42148  1.0000
  N   N1        1.0  0.8588700000000001  0.10405  0.012269999999999998  1.0000
  N   N2        1.0  0.10043  0.85532  0.48489  1.0000
  N   N3        1.0  0.10067  0.85409  0.01521  1.0000
  N   N4        1.0  0.8989799999999999  0.14522  0.51551  1.0000
  N   N5        1.0  0.60066  0.64514  0.015159999999999998  1.0000
  N   N6        1.0  0.6414  0.60394  0.98765  1.0000
  N   N7        1.0  0.39998  0.35342  0.9826400000000001  1.0000
  N   N8        1.0  0.14188  0.89607  0.51253  1.0000
  N   N9        1.0  0.85837  0.10349  0.48804  1.0000
  N   N10       1.0  0.8998699999999998  0.14479  0.98437  1.0000
  N   N11       1.0  0.14147  0.8954800000000002  0.98786  1.0000
  N   N12       1.0  0.35806  0.39518  0.48674  1.0000
  N   N13       1.0  0.64193  0.60466  0.51304  1.0000
  N   N14       1.0  0.39841  0.35367  0.51443  1.0000
  N   N15       1.0  0.6012  0.64574  0.4853  1.0000
  N   N16       1.0  0.35746  0.39267  0.01031  1.0000
  O   O1        1.0  0.40956  0.69775  0.69158  1.0000
  O   O2        1.0  0.98256  0.38874  0.97566  1.0000
  O   O3        1.0  0.09126  0.19491  0.3122  1.0000
  O   O4        1.0  0.40261  0.6941  0.81501  1.0000
  O   O5        1.0  0.47929  0.91345  0.93164  1.0000
  O   O6        1.0  0.49366  0.61771  0.80975  1.0000
  O   O7        1.0  0.58262  0.01378  0.9314599999999998  1.0000
  O   O8        1.0  0.33469  0.09956  0.16383  1.0000
  O   O9        1.0  0.51713  0.88885  0.02507  1.0000
  O   O10       1.0  0.00358  0.11418  0.31225  1.0000
  O   O11       1.0  0.47904  0.91334  0.56887  1.0000
  O   O12       1.0  0.60706  0.48995  0.31226  1.0000
  O   O13       1.0  0.83335  0.51408  0.18801  1.0000
  O   O14       1.0  0.40285  0.83716  0.8329100000000002  1.0000
  O   O15       1.0  0.9067100000000001  0.80298  0.68822  1.0000
  O   O16       1.0  0.9820999999999999  0.58617  0.56898  1.0000
  O   O17       1.0  0.11748  0.50676  0.47619999999999996  1.0000
  O   O18       1.0  0.3332  0.98823  0.31215  1.0000
  O   O19       1.0  0.33662  0.98888  0.18772  1.0000
  O   O20       1.0  0.19126  0.09337  0.18789999999999998  1.0000
  O   O21       1.0  0.59692  0.16302  0.167  1.0000
  O   O22       1.0  0.59268  0.30597  0.18751  1.0000
  O   O23       1.0  0.006570000000000001  0.11449  0.18734  1.0000
  O   O24       1.0  0.88231  0.49307000000000006  0.52647  1.0000
  O   O25       1.0  0.15926  0.59305  0.6611  1.0000
  O   O26       1.0  0.61718  0.9959900000000002  0.47581  1.0000
  O   O27       1.0  0.9795200000000001  0.5855  0.9316899999999999  1.0000
  O   O28       1.0  0.9830099999999999  0.33961  0.18472  1.0000
  O   O29       1.0  0.48281999999999997  0.16336  0.18482  1.0000
  O   O30       1.0  0.83468  0.40292  0.33626  1.0000
  O   O31       1.0  0.80622  0.9068799999999999  0.6879  1.0000
  O   O32       1.0  0.30175  0.59019  0.80914  1.0000
  O   O33       1.0  0.59681  0.15986  0.33343  1.0000
  O   O34       1.0  0.01724  0.66316  0.68528  1.0000
  O   O35       1.0  0.61761  0.9931800000000001  0.026620000000000005  1.0000
  O   O36       1.0  0.51704  0.8368500000000001  0.81541  1.0000
  O   O37       1.0  0.01708  0.65999  0.81517  1.0000
  O   O38       1.0  0.01314  0.61136  0.0262  1.0000
  O   O39       1.0  0.9030800000000001  0.65974  0.8330999999999998  1.0000
  O   O40       1.0  0.69099  0.40606  0.31451  1.0000
  O   O41       1.0  0.51701  0.83674  0.68487  1.0000
  O   O42       1.0  0.51753  0.08572  0.43117999999999995  1.0000
  O   O43       1.0  0.90332  0.65994  0.66652  1.0000
  O   O44       1.0  0.30918  0.59314  0.68501  1.0000
  O   O45       1.0  0.99335  0.88406  0.81247  1.0000
  O   O46       1.0  0.9930099999999998  0.8854500000000001  0.68767  1.0000
  O   O47       1.0  0.50653  0.38564000000000004  0.31279  1.0000
  O   O48       1.0  0.39081  0.50684  0.69075  1.0000
  O   O49       1.0  0.51865  0.08634  0.06994  1.0000
  O   O50       1.0  0.83698  0.4033  0.1641  1.0000
  O   O51       1.0  0.48642  0.11131  0.52604  1.0000
  O   O52       1.0  0.08339  0.48552  0.57141  1.0000
  O   O53       1.0  0.38439  0.00729  0.52363  1.0000
  O   O54       1.0  0.8921299999999999  0.98968  0.69018  1.0000
  O   O55       1.0  0.9163199999999999  0.51075  0.07159  1.0000
  O   O56       1.0  0.17564  0.48663999999999996  0.69331  1.0000
  O   O57       1.0  0.66999  0.01695  0.69003  1.0000
  O   O58       1.0  0.59055  0.30192  0.30954  1.0000
  O   O59       1.0  0.98273  0.33999  0.31526  1.0000
  O   O60       1.0  0.38216  0.006870000000000001  0.97633  1.0000
  O   O61       1.0  0.1596  0.51401  0.81531  1.0000
  O   O62       1.0  0.90641  0.80237  0.81161  1.0000
  O   O63       1.0  0.58345  0.01107  0.57179  1.0000
  O   O64       1.0  0.41684  0.98579  0.07145  1.0000
  O   O65       1.0  0.80545  0.90624  0.81201  1.0000
  O   O66       1.0  0.48277  0.16301  0.31498  1.0000
  O   O67       1.0  0.8931999999999999  0.9866200000000002  0.81501  1.0000
  O   O68       1.0  0.40276  0.83739  0.66694  1.0000
  O   O69       1.0  0.66008  0.01415  0.8154700000000001  1.0000
  O   O70       1.0  0.01906  0.41396  0.4313199999999999  1.0000
  O   O71       1.0  0.08307  0.48591000000000006  0.93421  1.0000
  O   O72       1.0  0.9167500000000001  0.51393  0.43138000000000004  1.0000
  O   O73       1.0  0.88199  0.49298000000000003  0.9759400000000001  1.0000
  O   O74       1.0  0.09685  0.337  0.3332  1.0000
  O   O75       1.0  0.19397  0.0935  0.31205  1.0000
  O   O76       1.0  0.0918  0.19764  0.19008000000000003  1.0000
  O   O77       1.0  0.65961  0.9069500000000001  0.66457  1.0000
  O   O78       1.0  0.1632  0.61501  0.86597  1.0000
  O   O79       1.0  0.83649  0.51415  0.31441  1.0000
  O   O80       1.0  0.09712  0.3376  0.16719  1.0000
  O   O81       1.0  0.9828  0.38879  0.52485  1.0000
  O   O82       1.0  0.39251  0.51392  0.8154899999999999  1.0000
  O   O83       1.0  0.51755  0.88871  0.47591  1.0000
  O   O84       1.0  0.48297999999999996  0.11079  0.97587  1.0000
  O   O85       1.0  0.02113  0.41345  0.06882  1.0000
  O   O86       1.0  0.1064  0.01272  0.31292  1.0000
  O   O87       1.0  0.48977  0.61083  0.68471  1.0000
  O   O88       1.0  0.33775  0.09811  0.33862  1.0000
  O   O89       1.0  0.50391  0.38541  0.18775  1.0000
  O   O90       1.0  0.69375  0.41011  0.19082  1.0000
  O   O91       1.0  0.11782  0.51057  0.02871  1.0000
  O   O92       1.0  0.41698  0.9827600000000001  0.42869  1.0000
  O   O93       1.0  0.60456  0.48878  0.18655  1.0000
  O   O94       1.0  0.10600999999999998  0.01021  0.18784  1.0000
  O   O95       1.0  0.01716  0.61132  0.47514  1.0000
  O   O96       1.0  0.66286  0.90265  0.83627  1.0000
