data_image0
_chemical_formula_structural       Zn4H72C132N4O24
_chemical_formula_sum              "Zn4 H72 C132 N4 O24"
_cell_length_a       16.3069
_cell_length_b       18.28777
_cell_length_c       19.0658
_cell_angle_alpha    99.25297999999998
_cell_angle_beta     106.06359
_cell_angle_gamma    116.47476

_space_group_name_H-M_alt    "P 1"
_space_group_IT_number       1

loop_
  _space_group_symop_operation_xyz
  'x, y, z'

loop_
  _atom_site_type_symbol
  _atom_site_label
  _atom_site_symmetry_multiplicity
  _atom_site_fract_x
  _atom_site_fract_y
  _atom_site_fract_z
  _atom_site_occupancy
  Zn  Zn1       1.0  0.30291  0.87828  0.21446  1.0000
  Zn  Zn2       1.0  0.1548099999999999  0.8597599999999997  0.00693  1.0000
  Zn  Zn3       1.0  0.69709  0.12172  0.78554  1.0000
  Zn  Zn4       1.0  0.84519  0.14023999999999998  0.9930699999999999  1.0000
  H   H1        1.0  0.63493  0.63916  0.059489999999999994  1.0000
  H   H2        1.0  0.44842  0.82834  0.14711  1.0000
  H   H3        1.0  0.00990000000000002  0.68425  0.20337  1.0000
  H   H4        1.0  0.36280000000000007  0.6856900000000001  0.27968  1.0000
  H   H5        1.0  0.37621  0.49523  0.03445  1.0000
  H   H6        1.0  0.58436  0.8025399999999998  0.20897000000000004  1.0000
  H   H7        1.0  0.2431199999999999  0.5219199999999998  0.9694  1.0000
  H   H8        1.0  0.76823  0.7363099999999999  0.02486  1.0000
  H   H9        1.0  0.5671200000000001  0.42043999999999987  0.51152  1.0000
  H   H10       1.0  0.63346  0.6687299999999998  0.5510400000000002  1.0000
  H   H11       1.0  0.40629  0.47771  0.18193  1.0000
  H   H12       1.0  0.9461800000000001  0.68706  0.78134  1.0000
  H   H13       1.0  0.9457899999999998  0.8103599999999997  0.04209  1.0000
  H   H14       1.0  0.8700799999999997  0.5789999999999997  0.23340000000000002  1.0000
  H   H15       1.0  0.34834  0.54755  0.29745  1.0000
  H   H16       1.0  0.49448  0.27153  0.51644  1.0000
  H   H17       1.0  0.2882500000000001  0.32288  0.15843  1.0000
  H   H18       1.0  0.17976  0.62356  0.95905  1.0000
  H   H19       1.0  0.56601  0.40427  0.06739  1.0000
  H   H20       1.0  0.7093600000000001  0.7837700000000001  0.67687  1.0000
  H   H21       1.0  0.6485  0.70292  0.22092  1.0000
  H   H22       1.0  0.4295600000000001  0.15715  0.23824  1.0000
  H   H23       1.0  0.22648999999999997  0.16695999999999994  0.09792  1.0000
  H   H24       1.0  0.6941000000000003  0.50896  0.21947  1.0000
  H   H25       1.0  0.40566000000000013  0.11214  0.44776  1.0000
  H   H26       1.0  0.83033  0.8537199999999997  0.81465  1.0000
  H   H27       1.0  0.5842499999999999  0.46677999999999986  0.29948  1.0000
  H   H28       1.0  0.4265500000000001  0.47065000000000007  0.35497  1.0000
  H   H29       1.0  0.7155100000000002  0.70473  0.44759  1.0000
  H   H30       1.0  0.88022  0.58122  0.65015  1.0000
  H   H31       1.0  0.50975  0.3097499999999999  0.23525  1.0000
  H   H32       1.0  0.7608899999999998  0.5105099999999998  0.51338  1.0000
  H   H33       1.0  0.73055  0.84074  0.42943  1.0000
  H   H34       1.0  0.39521  0.09466999999999998  0.99668  1.0000
  H   H35       1.0  0.64802  0.91905  0.37712000000000007  1.0000
  H   H36       1.0  0.51424  0.2501  0.01852  1.0000
  H   H37       1.0  0.36507000000000006  0.36084000000000005  0.9405100000000001  1.0000
  H   H38       1.0  0.55158  0.17166  0.85289  1.0000
  H   H39       1.0  0.9901  0.31575  0.79664  1.0000
  H   H40       1.0  0.6372  0.31430999999999987  0.72032  1.0000
  H   H41       1.0  0.62379  0.50477  0.96555  1.0000
  H   H42       1.0  0.41564  0.19746000000000005  0.79103  1.0000
  H   H43       1.0  0.7568799999999999  0.4780799999999999  0.0306  1.0000
  H   H44       1.0  0.23177000000000006  0.26369  0.97514  1.0000
  H   H45       1.0  0.43288  0.57956  0.4884800000000001  1.0000
  H   H46       1.0  0.36654  0.33127  0.44896  1.0000
  H   H47       1.0  0.5937100000000002  0.52229  0.81807  1.0000
  H   H48       1.0  0.05382000000000005  0.31294  0.21866000000000005  1.0000
  H   H49       1.0  0.05421  0.18964  0.95791  1.0000
  H   H50       1.0  0.1299200000000001  0.4210000000000001  0.7666000000000002  1.0000
  H   H51       1.0  0.6516600000000001  0.4524500000000001  0.7025600000000001  1.0000
  H   H52       1.0  0.50552  0.72847  0.48356  1.0000
  H   H53       1.0  0.7117499999999999  0.6771199999999998  0.84157  1.0000
  H   H54       1.0  0.82024  0.37644  0.04095  1.0000
  H   H55       1.0  0.43399  0.59573  0.93261  1.0000
  H   H56       1.0  0.29064  0.21623  0.32313  1.0000
  H   H57       1.0  0.3515  0.29708  0.77909  1.0000
  H   H58       1.0  0.5704399999999998  0.8428499999999999  0.76176  1.0000
  H   H59       1.0  0.7735100000000001  0.8330399999999999  0.90208  1.0000
  H   H60       1.0  0.3058999999999999  0.4910399999999999  0.78053  1.0000
  H   H61       1.0  0.5943399999999999  0.8878599999999999  0.55224  1.0000
  H   H62       1.0  0.16967  0.14628  0.18535  1.0000
  H   H63       1.0  0.4157500000000001  0.53322  0.70052  1.0000
  H   H64       1.0  0.57345  0.52935  0.64504  1.0000
  H   H65       1.0  0.28448999999999997  0.29526999999999987  0.55241  1.0000
  H   H66       1.0  0.11978  0.41878  0.34985  1.0000
  H   H67       1.0  0.4902500000000001  0.6902499999999998  0.76476  1.0000
  H   H68       1.0  0.23911000000000002  0.48949  0.48663000000000006  1.0000
  H   H69       1.0  0.2694500000000001  0.15925999999999996  0.57057  1.0000
  H   H70       1.0  0.60479  0.90533  0.003320000000000001  1.0000
  H   H71       1.0  0.35198  0.08095000000000001  0.62288  1.0000
  H   H72       1.0  0.48576000000000025  0.7499  0.98148  1.0000
  C   C1        1.0  0.95921  0.80904  0.8901700000000002  1.0000
  C   C2        1.0  0.27008  0.79027  0.05169  1.0000
  C   C3        1.0  0.3622600000000001  0.03062000000000002  0.30193000000000003  1.0000
  C   C4        1.0  0.23375  0.030060000000000003  0.03532  1.0000
  C   C5        1.0  0.68654  0.62622  0.09745  1.0000
  C   C6        1.0  0.4048600000000001  0.76146  0.10853  1.0000
  C   C7        1.0  0.9556299999999999  0.69392  0.1643  1.0000
  C   C8        1.0  0.44281  0.71808  0.31228  1.0000
  C   C9        1.0  0.3832600000000001  0.61774  0.06492  1.0000
  C   C10       1.0  0.85469  0.64991  0.15486  1.0000
  C   C11       1.0  0.78614  0.66647  0.10427  1.0000
  C   C12       1.0  0.65377  0.5709800000000002  0.13893000000000005  1.0000
  C   C13       1.0  0.42096999999999984  0.5620599999999998  0.07286000000000002  1.0000
  C   C14       1.0  0.51065  0.30618  0.41545  1.0000
  C   C15       1.0  0.44354  0.70641  0.11488000000000002  1.0000
  C   C16       1.0  0.53999  0.73572  0.17063000000000003  1.0000
  C   C17       1.0  0.28778  0.5888  0.00786  1.0000
  C   C18       1.0  0.51558  0.59289  0.12814  1.0000
  C   C19       1.0  0.82037  0.72424  0.06331  1.0000
  C   C20       1.0  0.55529  0.3959499999999999  0.45143  1.0000
  C   C21       1.0  0.49246  0.45037  0.12454000000000001  1.0000
  C   C22       1.0  0.9873300000000002  0.75152  0.12465  1.0000
  C   C23       1.0  0.68792  0.6502299999999998  0.57219  1.0000
  C   C24       1.0  0.09476999999999998  0.80186  0.13568  1.0000
  C   C25       1.0  0.41349999999999987  0.4269999999999998  0.15107  1.0000
  C   C26       1.0  0.49215000000000003  0.27376999999999996  0.3353  1.0000
  C   C27       1.0  0.45562  0.85519  0.29205  1.0000
  C   C28       1.0  0.89295  0.70622  0.75743  1.0000
  C   C29       1.0  0.75685  0.69264  0.64975  1.0000
  C   C30       1.0  0.58016  0.45282  0.40986  1.0000
  C   C31       1.0  0.919  0.76595  0.07334  1.0000
  C   C32       1.0  0.81807  0.59119  0.19484  1.0000
  C   C33       1.0  0.42871999999999993  0.5816099999999997  0.32954  1.0000
  C   C34       1.0  0.35924  0.27471  0.09944  1.0000
  C   C35       1.0  0.47945  0.24658999999999998  0.45571  1.0000
  C   C36       1.0  0.3486500000000001  0.34145  0.13828000000000001  1.0000
  C   C37       1.0  0.89296  0.77209  0.80551  1.0000
  C   C38       1.0  0.25253  0.6445  0.00216  1.0000
  C   C39       1.0  0.50634  0.38658  0.08813  1.0000
  C   C40       1.0  0.44097  0.29843  0.07514  1.0000
  C   C41       1.0  0.6882  0.58452  0.52323  1.0000
  C   C42       1.0  0.75979  0.7616499999999999  0.69979  1.0000
  C   C43       1.0  0.8260800000000001  0.66563  0.67937  1.0000
  C   C44       1.0  0.31041999999999986  0.7310299999999997  0.05374000000000002  1.0000
  C   C45       1.0  0.5754899999999998  0.6806799999999997  0.17760000000000006  1.0000
  C   C46       1.0  0.4438700000000001  0.18342000000000006  0.2987400000000001  1.0000
  C   C47       1.0  0.29218  0.18661  0.08427  1.0000
  C   C48       1.0  0.50077  0.8061399999999997  0.32606  1.0000
  C   C49       1.0  0.72027  0.5522399999999997  0.18737  1.0000
  C   C50       1.0  0.43095  0.15887  0.41825  1.0000
  C   C51       1.0  0.41317  0.12668999999999997  0.33937  1.0000
  C   C52       1.0  0.30629  0.12308999999999999  0.048590000000000015  1.0000
  C   C53       1.0  0.8265100000000002  0.80041  0.77593  1.0000
  C   C54       1.0  0.5634800000000001  0.4214500000000001  0.33095000000000013  1.0000
  C   C55       1.0  0.47182000000000013  0.53849  0.3614700000000001  1.0000
  C   C56       1.0  0.63541  0.6708599999999998  0.41477  1.0000
  C   C57       1.0  0.82524  0.59913  0.62805  1.0000
  C   C58       1.0  0.59241  0.71635  0.3834  1.0000
  C   C59       1.0  0.52162  0.33418  0.29531  1.0000
  C   C60       1.0  0.57636  0.58414  0.40641  1.0000
  C   C61       1.0  0.75906  0.55978  0.55208  1.0000
  C   C62       1.0  0.4863699999999999  0.6713999999999997  0.3403  1.0000
  C   C63       1.0  0.65044  0.80662  0.39614  1.0000
  C   C64       1.0  0.38683  0.1462  0.02462  1.0000
  C   C65       1.0  0.60544  0.85015  0.36819  1.0000
  C   C66       1.0  0.45243999999999995  0.23195  0.03699  1.0000
  C   C67       1.0  0.04078999999999999  0.19096  0.10983  1.0000
  C   C68       1.0  0.72992  0.20973  0.94832  1.0000
  C   C69       1.0  0.6377399999999999  0.9693799999999998  0.6980700000000001  1.0000
  C   C70       1.0  0.7662500000000001  0.96994  0.9646800000000001  1.0000
  C   C71       1.0  0.31346  0.37377999999999995  0.9025500000000002  1.0000
  C   C72       1.0  0.59514  0.23854  0.89147  1.0000
  C   C73       1.0  0.04437000000000009  0.3060800000000001  0.8357000000000002  1.0000
  C   C74       1.0  0.55719  0.28192  0.68772  1.0000
  C   C75       1.0  0.61674  0.38226  0.93509  1.0000
  C   C76       1.0  0.14531  0.35009  0.84514  1.0000
  C   C77       1.0  0.21386000000000005  0.33353  0.89574  1.0000
  C   C78       1.0  0.34622999999999987  0.4290199999999999  0.86108  1.0000
  C   C79       1.0  0.5790299999999999  0.43793999999999994  0.92714  1.0000
  C   C80       1.0  0.4893600000000002  0.69382  0.5845600000000002  1.0000
  C   C81       1.0  0.5564600000000001  0.29359000000000013  0.8851200000000002  1.0000
  C   C82       1.0  0.4600099999999999  0.2642799999999999  0.82937  1.0000
  C   C83       1.0  0.71222  0.4112  0.99214  1.0000
  C   C84       1.0  0.4844200000000001  0.4071100000000001  0.8718600000000001  1.0000
  C   C85       1.0  0.17963000000000004  0.27575999999999995  0.9366899999999999  1.0000
  C   C86       1.0  0.4447099999999999  0.6040499999999998  0.54857  1.0000
  C   C87       1.0  0.50754  0.54963  0.87546  1.0000
  C   C88       1.0  0.012669999999999976  0.24847999999999998  0.87535  1.0000
  C   C89       1.0  0.31208  0.34977  0.42781  1.0000
  C   C90       1.0  0.90523  0.1981399999999999  0.86432  1.0000
  C   C91       1.0  0.5865000000000002  0.573  0.84894  1.0000
  C   C92       1.0  0.5078499999999998  0.7262299999999998  0.6647  1.0000
  C   C93       1.0  0.54438  0.14481  0.70795  1.0000
  C   C94       1.0  0.10705000000000005  0.29378  0.24257000000000004  1.0000
  C   C95       1.0  0.24315  0.30736  0.35025  1.0000
  C   C96       1.0  0.41984  0.54718  0.59014  1.0000
  C   C97       1.0  0.08099999999999993  0.23404999999999995  0.92666  1.0000
  C   C98       1.0  0.18193000000000006  0.40881  0.8051700000000002  1.0000
  C   C99       1.0  0.57128  0.4183899999999999  0.67047  1.0000
  C   C100      1.0  0.64076  0.72529  0.90056  1.0000
  C   C101      1.0  0.5205500000000001  0.7534099999999999  0.5442900000000003  1.0000
  C   C102      1.0  0.6513500000000001  0.65855  0.8617300000000002  1.0000
  C   C103      1.0  0.10705  0.22791  0.19449  1.0000
  C   C104      1.0  0.7474700000000001  0.35550000000000004  0.9978400000000001  1.0000
  C   C105      1.0  0.49366  0.61342  0.91187  1.0000
  C   C106      1.0  0.55903  0.70157  0.92486  1.0000
  C   C107      1.0  0.3118  0.4154799999999999  0.47677  1.0000
  C   C108      1.0  0.24020999999999998  0.23834999999999998  0.30021  1.0000
  C   C109      1.0  0.17393000000000003  0.33437  0.32063  1.0000
  C   C110      1.0  0.6895799999999999  0.2689699999999999  0.94626  1.0000
  C   C111      1.0  0.4245100000000001  0.3193200000000001  0.8224000000000002  1.0000
  C   C112      1.0  0.55613  0.81658  0.70126  1.0000
  C   C113      1.0  0.70782  0.81339  0.91573  1.0000
  C   C114      1.0  0.49923000000000006  0.19386  0.67394  1.0000
  C   C115      1.0  0.27973  0.44775999999999994  0.81263  1.0000
  C   C116      1.0  0.5690499999999998  0.8411299999999999  0.5817600000000002  1.0000
  C   C117      1.0  0.5868300000000001  0.8733100000000001  0.66063  1.0000
  C   C118      1.0  0.6937100000000003  0.8769100000000001  0.95141  1.0000
  C   C119      1.0  0.17349  0.19959  0.22407  1.0000
  C   C120      1.0  0.43652  0.57855  0.66905  1.0000
  C   C121      1.0  0.52818  0.46151  0.63853  1.0000
  C   C122      1.0  0.36459  0.32914  0.58523  1.0000
  C   C123      1.0  0.17476  0.40087  0.37195  1.0000
  C   C124      1.0  0.40759  0.28365  0.6166  1.0000
  C   C125      1.0  0.47838  0.66582  0.70469  1.0000
  C   C126      1.0  0.42364  0.4158599999999999  0.59359  1.0000
  C   C127      1.0  0.24093999999999996  0.44021999999999994  0.44792  1.0000
  C   C128      1.0  0.51363  0.3286  0.6597  1.0000
  C   C129      1.0  0.3495600000000001  0.19338000000000002  0.6038600000000001  1.0000
  C   C130      1.0  0.6131700000000001  0.8538  0.9753800000000001  1.0000
  C   C131      1.0  0.3945600000000001  0.14985  0.63181  1.0000
  C   C132      1.0  0.54756  0.76805  0.96301  1.0000
  N   N1        1.0  0.55474  0.53766  0.13389  1.0000
  N   N2        1.0  0.61902  0.54212  0.44569  1.0000
  N   N3        1.0  0.4452600000000001  0.46234  0.86611  1.0000
  N   N4        1.0  0.38098  0.4578799999999999  0.55431  1.0000
  O   O1        1.0  0.3141  0.8594  0.10858000000000002  1.0000
  O   O2        1.0  0.11561999999999999  0.8524  0.09655000000000002  1.0000
  O   O3        1.0  0.19324999999999995  0.76846  0.99209  1.0000
  O   O4        1.0  0.9271399999999999  0.8326399999999998  0.93612  1.0000
  O   O5        1.0  0.15755999999999987  0.7928499999999998  0.18515  1.0000
  O   O6        1.0  0.3575  0.003929999999999992  0.2331  1.0000
  O   O7        1.0  0.04092999999999995  0.80831  0.90618  1.0000
  O   O8        1.0  0.35938000000000003  0.8165100000000001  0.26690000000000014  1.0000
  O   O9        1.0  0.15493  0.011029999999999996  0.04504  1.0000
  O   O10       1.0  0.5126499999999998  0.9261199999999997  0.28752  1.0000
  O   O11       1.0  0.25871000000000005  0.97468  0.014050000000000002  1.0000
  O   O12       1.0  0.32791  0.98071  0.33796  1.0000
  O   O13       1.0  0.6859  0.14059999999999995  0.89142  1.0000
  O   O14       1.0  0.88438  0.14760000000000006  0.90345  1.0000
  O   O15       1.0  0.80675  0.23153999999999994  0.00791  1.0000
  O   O16       1.0  0.07286  0.16736  0.06388  1.0000
  O   O17       1.0  0.84244  0.20715000000000003  0.81485  1.0000
  O   O18       1.0  0.6424999999999998  0.9960699999999999  0.7669  1.0000
  O   O19       1.0  0.95907  0.19168999999999997  0.09382  1.0000
  O   O20       1.0  0.64062  0.18349000000000004  0.73311  1.0000
  O   O21       1.0  0.8450700000000001  0.9889700000000001  0.9549600000000001  1.0000
  O   O22       1.0  0.48735000000000017  0.0738800000000001  0.7124800000000001  1.0000
  O   O23       1.0  0.74129  0.025319999999999968  0.9859499999999999  1.0000
  O   O24       1.0  0.67209  0.01928999999999999  0.66204  1.0000
