data_image0
_chemical_formula_structural       Mg6H90C114O18
_chemical_formula_sum              "Mg6 H90 C114 O18"
_cell_length_a       6.9275
_cell_length_b       39.72639
_cell_length_c       39.64437
_cell_angle_alpha    119.54836
_cell_angle_beta     93.29129
_cell_angle_gamma    93.38756999999998

_space_group_name_H-M_alt    "P 1"
_space_group_IT_number       1

loop_
  _space_group_symop_operation_xyz
  'x, y, z'

loop_
  _atom_site_type_symbol
  _atom_site_label
  _atom_site_symmetry_multiplicity
  _atom_site_fract_x
  _atom_site_fract_y
  _atom_site_fract_z
  _atom_site_occupancy
  Mg  Mg1       1.0  0.49925000000000014  0.69264  0.33025  1.0000
  Mg  Mg2       1.0  0.50736  0.30753  0.66997  1.0000
  Mg  Mg3       1.0  0.80706  0.63895  0.30813  1.0000
  Mg  Mg4       1.0  0.1987  0.36109  0.69189  1.0000
  Mg  Mg5       1.0  0.16986  0.66989  0.36183  1.0000
  Mg  Mg6       1.0  0.837  0.32971  0.63798  1.0000
  H   H1        1.0  0.53414  0.97601  0.52008  1.0000
  H   H2        1.0  0.68369  0.99125  0.56375  1.0000
  H   H3        1.0  0.5953300000000004  0.026370000000000077  0.5533300000000001  1.0000
  H   H4        1.0  0.7808400000000001  0.92219  0.38511  1.0000
  H   H5        1.0  0.53207  0.9301899999999999  0.38622  1.0000
  H   H6        1.0  0.7089299999999998  0.9658299999999997  0.42277000000000003  1.0000
  H   H7        1.0  0.6349799999999999  0.8243399999999997  0.47788  1.0000
  H   H8        1.0  0.63353  0.86926  0.52162  1.0000
  H   H9        1.0  0.4122100000000001  0.84372  0.49238000000000004  1.0000
  H   H10       1.0  0.06989000000000008  0.9438499999999999  0.44125  1.0000
  H   H11       1.0  0.7921900000000002  0.9184700000000001  0.5135500000000001  1.0000
  H   H12       1.0  0.42388000000000003  0.8711799999999998  0.38578  1.0000
  H   H13       1.0  0.91142  0.13982999999999995  0.58301  1.0000
  H   H14       1.0  0.1565200000000001  0.19778000000000007  0.6159300000000002  1.0000
  H   H15       1.0  0.46629  0.21503  0.59375  1.0000
  H   H16       1.0  0.54007  0.7848499999999999  0.40743  1.0000
  H   H17       1.0  0.8487400000000003  0.80164  0.38539  1.0000
  H   H18       1.0  0.09182999999999995  0.8599499999999999  0.4196  1.0000
  H   H19       1.0  0.5819300000000002  0.12866999999999995  0.61655  1.0000
  H   H20       1.0  0.19964  0.08262  0.4904  1.0000
  H   H21       1.0  0.92304  0.05741999999999998  0.56277  1.0000
  H   H22       1.0  0.5827100000000001  0.15640999999999997  0.50998  1.0000
  H   H23       1.0  0.36091  0.1305  0.48115  1.0000
  H   H24       1.0  0.35956999999999995  0.17561999999999997  0.52459  1.0000
  H   H25       1.0  0.28665  0.03528999999999999  0.58097  1.0000
  H   H26       1.0  0.46580000000000016  0.07052000000000004  0.6172700000000001  1.0000
  H   H27       1.0  0.2179000000000001  0.07927000000000001  0.61864  1.0000
  H   H28       1.0  0.39498  0.97436  0.45006  1.0000
  H   H29       1.0  0.30847000000000013  0.010059999999999979  0.4403  1.0000
  H   H30       1.0  0.46025  0.02454999999999999  0.48356  1.0000
  H   H31       1.0  0.55815  0.54394  0.02376  1.0000
  H   H32       1.0  0.6931300000000002  0.57219  0.00836  1.0000
  H   H33       1.0  0.56946  0.5267  0.97327  1.0000
  H   H34       1.0  0.85824  0.4633  0.07836  1.0000
  H   H35       1.0  0.60131  0.45638  0.07036  1.0000
  H   H36       1.0  0.7426399999999999  0.45715  0.03453  1.0000
  H   H37       1.0  0.81252  0.6533799999999998  0.17531  1.0000
  H   H38       1.0  0.7655300000000003  0.65196  0.13018  1.0000
  H   H39       1.0  0.57004  0.64857  0.15602  1.0000
  H   H40       1.0  0.12482999999999998  0.4972399999999999  0.05627  1.0000
  H   H41       1.0  0.8741700000000002  0.59469  0.08115  1.0000
  H   H42       1.0  0.55234  0.5149899999999998  0.1293  1.0000
  H   H43       1.0  0.7701799999999999  0.44311999999999996  0.85966  1.0000
  H   H44       1.0  0.9575600000000004  0.41751  0.80157  1.0000
  H   H45       1.0  0.2501100000000001  0.37787  0.78464  1.0000
  H   H46       1.0  0.75449  0.62305  0.21548  1.0000
  H   H47       1.0  0.04595000000000001  0.58411  0.19837  1.0000
  H   H48       1.0  0.2321200000000001  0.55936  0.14012  1.0000
  H   H49       1.0  0.45355000000000006  0.48743  0.8707200000000002  1.0000
  H   H50       1.0  0.11677000000000005  0.4081199999999999  0.9176800000000002  1.0000
  H   H51       1.0  0.86672  0.50541  0.9424  1.0000
  H   H52       1.0  0.4251300000000001  0.35379  0.84374  1.0000
  H   H53       1.0  0.22944999999999993  0.3509299999999999  0.8698  1.0000
  H   H54       1.0  0.18257000000000007  0.34910999999999986  0.8245  1.0000
  H   H55       1.0  0.25175999999999993  0.5454899999999999  0.9641999999999998  1.0000
  H   H56       1.0  0.39559  0.54635  0.92873  1.0000
  H   H57       1.0  0.13895000000000002  0.5388  0.91996  1.0000
  H   H58       1.0  0.42087000000000013  0.47578  0.0257  1.0000
  H   H59       1.0  0.2979700000000001  0.4304299999999999  0.9900900000000001  1.0000
  H   H60       1.0  0.43500000000000016  0.4590400000000001  0.9753700000000001  1.0000
  H   H61       1.0  0.014120000000000011  0.47992  0.45612  1.0000
  H   H62       1.0  0.12050000000000001  0.4364  0.42778  1.0000
  H   H63       1.0  0.0427  0.4467199999999999  0.4733800000000001  1.0000
  H   H64       1.0  0.39558  0.6147999999999998  0.53659  1.0000
  H   H65       1.0  0.14589  0.61384  0.54372  1.0000
  H   H66       1.0  0.28614  0.57741  0.54314  1.0000
  H   H67       1.0  0.15696000000000007  0.5224  0.34653  1.0000
  H   H68       1.0  0.11136000000000001  0.47861  0.34768  1.0000
  H   H69       1.0  0.9193799999999999  0.50787  0.35138  1.0000
  H   H70       1.0  0.6282799999999998  0.5588399999999999  0.50258  1.0000
  H   H71       1.0  0.27833  0.48662999999999995  0.40507  1.0000
  H   H72       1.0  0.036559999999999995  0.61401  0.48522  1.0000
  H   H73       1.0  0.32860000000000006  0.4164900000000001  0.5567700000000002  1.0000
  H   H74       1.0  0.54049  0.38397  0.58241  1.0000
  H   H75       1.0  0.8721100000000002  0.40601  0.62163  1.0000
  H   H76       1.0  0.13238000000000005  0.59276  0.37737  1.0000
  H   H77       1.0  0.4615800000000001  0.61419  0.41553  1.0000
  H   H78       1.0  0.6701100000000002  0.58033  0.44015  1.0000
  H   H79       1.0  0.96433  0.38339  0.51246  1.0000
  H   H80       1.0  0.70975  0.50941  0.59216  1.0000
  H   H81       1.0  0.36118000000000006  0.4371999999999999  0.49471000000000004  1.0000
  H   H82       1.0  0.07336999999999999  0.4895999999999999  0.64635  1.0000
  H   H83       1.0  0.8805200000000001  0.5185100000000001  0.6495000000000001  1.0000
  H   H84       1.0  0.8356800000000001  0.47495  0.65107  1.0000
  H   H85       1.0  0.70636  0.41867  0.45423  1.0000
  H   H86       1.0  0.84932  0.38263  0.45376  1.0000
  H   H87       1.0  0.5999  0.38124  0.46105  1.0000
  H   H88       1.0  0.9456000000000003  0.54984  0.52413  1.0000
  H   H89       1.0  0.86852  0.55949  0.56961  1.0000
  H   H90       1.0  0.9765200000000005  0.5162799999999999  0.54088  1.0000
  C   C1        1.0  0.6506900000000001  0.9977599999999999  0.54022  1.0000
  C   C2        1.0  0.66624  0.93454  0.40461  1.0000
  C   C3        1.0  0.56583  0.85163  0.49159  1.0000
  C   C4        1.0  0.16439  0.003099999999999978  0.48394  1.0000
  C   C5        1.0  0.03670000000000005  0.96913  0.46789  1.0000
  C   C6        1.0  0.8703400000000003  0.9657999999999999  0.4850400000000001  1.0000
  C   C7        1.0  0.50738  0.8816299999999999  0.41381  1.0000
  C   C8        1.0  0.63905  0.9149899999999999  0.42863  1.0000
  C   C9        1.0  0.7401700000000002  0.9288299999999999  0.46572000000000013  1.0000
  C   C10       1.0  0.7127900000000001  0.9075699999999999  0.48505  1.0000
  C   C11       1.0  0.58756  0.87331  0.4694999999999999  1.0000
  C   C12       1.0  0.47957999999999995  0.86067  0.43333  1.0000
  C   C13       1.0  0.004399999999999957  0.20110999999999996  0.61086  1.0000
  C   C14       1.0  0.8680199999999999  0.16886999999999994  0.5929  1.0000
  C   C15       1.0  0.6710700000000002  0.17362999999999995  0.5867  1.0000
  C   C16       1.0  0.61745  0.21080000000000004  0.59816  1.0000
  C   C17       1.0  0.25397  0.7556099999999999  0.38414  1.0000
  C   C18       1.0  0.05447999999999996  0.7606999999999999  0.3777  1.0000
  C   C19       1.0  0.9007500000000003  0.7281599999999999  0.35677  1.0000
  C   C20       1.0  0.10639999999999995  0.2716199999999999  0.64359  1.0000
  C   C21       1.0  0.9521100000000001  0.23900999999999997  0.62326  1.0000
  C   C22       1.0  0.7527600000000002  0.24414999999999998  0.61679  1.0000
  C   C23       1.0  0.3885200000000001  0.78903  0.40321  1.0000
  C   C24       1.0  0.33327000000000007  0.82619  0.41526  1.0000
  C   C25       1.0  0.13622000000000006  0.8309  0.40917  1.0000
  C   C26       1.0  0.0010299999999999877  0.79855  0.39059  1.0000
  C   C27       1.0  0.52245  0.13946  0.56924  1.0000
  C   C28       1.0  0.4100000000000001  0.12713000000000002  0.5335600000000001  1.0000
  C   C29       1.0  0.28181000000000006  0.09331000000000003  0.5186  1.0000
  C   C30       1.0  0.25485  0.07220999999999997  0.5381  1.0000
  C   C31       1.0  0.35995  0.0858  0.57478  1.0000
  C   C32       1.0  0.49519  0.11858999999999992  0.58891  1.0000
  C   C33       1.0  0.1231  0.035409999999999955  0.51904  1.0000
  C   C34       1.0  0.95651  0.03209999999999999  0.53617  1.0000
  C   C35       1.0  0.8288700000000001  0.99808  0.52011  1.0000
  C   C36       1.0  0.42964000000000013  0.14843999999999996  0.51107  1.0000
  C   C37       1.0  0.33167  0.06650999999999997  0.59902  1.0000
  C   C38       1.0  0.34195000000000003  0.003199999999999993  0.46358  1.0000
  C   C39       1.0  0.65328  0.54226  0.00196  1.0000
  C   C40       1.0  0.7312400000000002  0.4703199999999999  0.06590000000000001  1.0000
  C   C41       1.0  0.7154600000000002  0.63977  0.14804  1.0000
  C   C42       1.0  0.16112  0.48086  0.9969299999999999  1.0000
  C   C43       1.0  0.06700999999999997  0.49865999999999994  0.030909999999999997  1.0000
  C   C44       1.0  0.9042600000000001  0.51909  0.03415  1.0000
  C   C45       1.0  0.62568  0.5324  0.11867000000000001  1.0000
  C   C46       1.0  0.7238800000000001  0.5137599999999999  0.08527  1.0000
  C   C47       1.0  0.8112  0.53679  0.07118  1.0000
  C   C48       1.0  0.80537  0.57728  0.09225  1.0000
  C   C49       1.0  0.7147500000000002  0.5961099999999999  0.12659  1.0000
  C   C50       1.0  0.61912  0.57277  0.13947  1.0000
  C   C51       1.0  0.8021900000000001  0.40914999999999996  0.79839  1.0000
  C   C52       1.0  0.6977300000000001  0.42375  0.83063  1.0000
  C   C53       1.0  0.49612  0.4127  0.82597  1.0000
  C   C54       1.0  0.40547  0.38661  0.78882  1.0000
  C   C55       1.0  0.49696  0.6290799999999999  0.24461  1.0000
  C   C56       1.0  0.2922199999999999  0.6176399999999999  0.23951  1.0000
  C   C57       1.0  0.17067000000000004  0.62963  0.27214  1.0000
  C   C58       1.0  0.8348900000000001  0.37072  0.72792  1.0000
  C   C59       1.0  0.7125300000000001  0.38325  0.76053  1.0000
  C   C60       1.0  0.50826  0.37161  0.75549  1.0000
  C   C61       1.0  0.59873  0.6145699999999997  0.21118000000000003  1.0000
  C   C62       1.0  0.50688  0.58924  0.17397000000000007  1.0000
  C   C63       1.0  0.3050600000000001  0.57829  0.16922  1.0000
  C   C64       1.0  0.20148999999999995  0.5923899999999998  0.20157  1.0000
  C   C65       1.0  0.38227000000000005  0.4295999999999999  0.86026  1.0000
  C   C66       1.0  0.28215  0.40646999999999994  0.87287  1.0000
  C   C67       1.0  0.18834000000000006  0.42545000000000005  0.9067800000000003  1.0000
  C   C68       1.0  0.18292000000000003  0.4659299999999999  0.92768  1.0000
  C   C69       1.0  0.27454  0.48881  0.91384  1.0000
  C   C70       1.0  0.37664000000000003  0.47003999999999996  0.88098  1.0000
  C   C71       1.0  0.08807999999999995  0.4837099999999999  0.9645499999999999  1.0000
  C   C72       1.0  0.925  0.50407  0.96778  1.0000
  C   C73       1.0  0.83095  0.52192  0.00179  1.0000
  C   C74       1.0  0.2800600000000001  0.3628  0.85171  1.0000
  C   C75       1.0  0.26562  0.53218  0.93289  1.0000
  C   C76       1.0  0.33844  0.4604599999999999  0.9968500000000001  1.0000
  C   C77       1.0  0.11091000000000005  0.45985  0.4577800000000001  1.0000
  C   C78       1.0  0.26145  0.59541  0.52975  1.0000
  C   C79       1.0  0.07367999999999998  0.5086  0.36007  1.0000
  C   C80       1.0  0.68067  0.51605  0.51913  1.0000
  C   C81       1.0  0.56877  0.53217  0.50124  1.0000
  C   C82       1.0  0.3852999999999999  0.5150599999999999  0.48085  1.0000
  C   C83       1.0  0.09219000000000001  0.5860499999999998  0.46769  1.0000
  C   C84       1.0  0.20972000000000005  0.57132  0.48627000000000004  1.0000
  C   C85       1.0  0.2741  0.53434  0.46314  1.0000
  C   C86       1.0  0.22707999999999998  0.5150399999999999  0.42259  1.0000
  C   C87       1.0  0.11706000000000005  0.53055  0.40381  1.0000
  C   C88       1.0  0.04476000000000001  0.5666  0.42725  1.0000
  C   C89       1.0  0.39337000000000016  0.38906  0.5907300000000002  1.0000
  C   C90       1.0  0.2749  0.4068  0.57614  1.0000
  C   C91       1.0  0.08418000000000002  0.41312  0.5871600000000001  1.0000
  C   C92       1.0  0.01894000000000003  0.40167  0.61299  1.0000
  C   C93       1.0  0.86968  0.61607  0.37132  1.0000
  C   C94       1.0  0.67626  0.62232  0.38258000000000003  1.0000
  C   C95       1.0  0.54405  0.6432899999999999  0.37083  1.0000
  C   C96       1.0  0.46297  0.35659  0.62889  1.0000
  C   C97       1.0  0.32882  0.37682  0.61646  1.0000
  C   C98       1.0  0.1356200000000001  0.38311000000000006  0.6278700000000002  1.0000
  C   C99       1.0  0.9848500000000002  0.5969199999999999  0.3857  1.0000
  C   C100      1.0  0.9167700000000002  0.5847  0.41075  1.0000
  C   C101      1.0  0.7254000000000003  0.59069  0.4214  1.0000
  C   C102      1.0  0.60907  0.6091899999999999  0.40744  1.0000
  C   C103      1.0  0.95341  0.43067  0.5704200000000003  1.0000
  C   C104      1.0  0.8770100000000002  0.46633  0.59368  1.0000
  C   C105      1.0  0.7638500000000001  0.4812799999999999  0.57474  1.0000
  C   C106      1.0  0.7171500000000002  0.46184  0.53418  1.0000
  C   C107      1.0  0.78507  0.42518  0.51122  1.0000
  C   C108      1.0  0.9059900000000002  0.41105  0.52995  1.0000
  C   C109      1.0  0.6046  0.48093  0.51639  1.0000
  C   C110      1.0  0.42104000000000014  0.46382999999999996  0.49599  1.0000
  C   C111      1.0  0.30912  0.47996  0.4781  1.0000
  C   C112      1.0  0.9191900000000002  0.48861999999999994  0.63743  1.0000
  C   C113      1.0  0.7330599999999999  0.40083999999999986  0.46775  1.0000
  C   C114      1.0  0.8785900000000002  0.53631  0.5395  1.0000
  O   O1        1.0  0.32115  0.72065  0.37246  1.0000
  O   O2        1.0  0.9431800000000002  0.69322  0.34647  1.0000
  O   O3        1.0  0.7291600000000003  0.73414  0.34898  1.0000
  O   O4        1.0  0.2780800000000001  0.26570999999999995  0.65135  1.0000
  O   O5        1.0  0.06533999999999995  0.3065499999999999  0.65337  1.0000
  O   O6        1.0  0.6866  0.27912  0.62793  1.0000
  O   O7        1.0  0.59854  0.65252  0.27964  1.0000
  O   O8        1.0  0.24853000000000003  0.65384  0.30725  1.0000
  O   O9        1.0  0.9918300000000001  0.6165099999999998  0.26602  1.0000
  O   O10       1.0  0.013329999999999986  0.38402  0.73404  1.0000
  O   O11       1.0  0.7592400000000001  0.34584999999999994  0.69283  1.0000
  O   O12       1.0  0.40857  0.3475  0.72044  1.0000
  O   O13       1.0  0.9482300000000002  0.62801  0.34813  1.0000
  O   O14       1.0  0.5987900000000003  0.65482  0.34707  1.0000
  O   O15       1.0  0.37813  0.64997  0.38383  1.0000
  O   O16       1.0  0.6289000000000001  0.34978  0.61589  1.0000
  O   O17       1.0  0.4099300000000001  0.34580999999999995  0.65332  1.0000
  O   O18       1.0  0.05811  0.37183  0.65166  1.0000
