data_image0
_chemical_formula_structural       Cu4H92C100N16O24
_chemical_formula_sum              "Cu4 H92 C100 N16 O24"
_cell_length_a       9.80063
_cell_length_b       14.28627
_cell_length_c       20.360960000000002
_cell_angle_alpha    90.02055
_cell_angle_beta     90.08577
_cell_angle_gamma    97.55407999999998

_symmetry_space_group_name_H-M    'P 1'
_symmetry_Int_Tables_number       1

loop_
  _symmetry_equiv_pos_as_xyz
  'x,y,z'

loop_
  _atom_site_type_symbol
  _atom_site_label
  _atom_site_symmetry_multiplicity
  _atom_site_fract_x
  _atom_site_fract_y
  _atom_site_fract_z
  _atom_site_occupancy
  Cu  Cu1       1.0  0.69379  0.19047000000000003  0.73509  1.0000
  Cu  Cu2       1.0  0.80265  0.8093700000000003  0.23532  1.0000
  Cu  Cu3       1.0  0.30619  0.8095300000000002  0.26491  1.0000
  Cu  Cu4       1.0  0.19734  0.19062000000000007  0.76467  1.0000
  H   H1        1.0  0.49279  0.00823  0.83133  1.0000
  H   H2        1.0  0.60862  0.88538  0.88917  1.0000
  H   H3        1.0  0.21444  0.72817  0.9305700000000001  1.0000
  H   H4        1.0  0.09985  0.8526600000000002  0.87481  1.0000
  H   H5        1.0  0.56656  0.20404000000000003  0.8792099999999999  1.0000
  H   H6        1.0  0.6463599999999999  0.08895  0.97962  1.0000
  H   H7        1.0  0.8712999999999999  0.04749  0.80685  1.0000
  H   H8        1.0  0.7787900000000001  0.9342400000000001  0.9664800000000001  1.0000
  H   H9        1.0  0.8970199999999999  0.93916  0.8996400000000001  1.0000
  H   H10       1.0  0.91909  0.08373  0.01145  1.0000
  H   H11       1.0  0.03876  0.07620000000000003  0.94723  1.0000
  H   H12       1.0  0.48904999999999993  0.3140600000000001  0.66857  1.0000
  H   H13       1.0  0.81765  0.18611000000000005  0.58617  1.0000
  H   H14       1.0  0.6416500000000002  0.4648700000000001  0.49301  1.0000
  H   H15       1.0  0.57809  0.50819  0.56595  1.0000
  H   H16       1.0  0.38517000000000007  0.3764800000000001  0.5692  1.0000
  H   H17       1.0  0.43389999999999995  0.33605  0.49099  1.0000
  H   H18       1.0  0.7717  0.50272  0.88129  1.0000
  H   H19       1.0  0.64223  0.6105300000000001  0.9455000000000001  1.0000
  H   H20       1.0  0.26148  0.46251  0.8708699999999999  1.0000
  H   H21       1.0  0.39377  0.35726  0.80596  1.0000
  H   H22       1.0  0.34009  0.6924500000000001  0.01733  1.0000
  H   H23       1.0  0.50044  0.64386  0.02097  1.0000
  H   H24       1.0  0.009390000000000058  0.9899600000000002  0.33086  1.0000
  H   H25       1.0  0.89276  0.11211  0.38854  1.0000
  H   H26       1.0  0.28624000000000005  0.2706200000000001  0.43060999999999994  1.0000
  H   H27       1.0  0.40159  0.14699000000000007  0.37468  1.0000
  H   H28       1.0  0.93265  0.79557  0.37982  1.0000
  H   H29       1.0  0.85429  0.9112400000000003  0.48015  1.0000
  H   H30       1.0  0.62976  0.9537800000000001  0.30723  1.0000
  H   H31       1.0  0.72167  0.06628  0.46734999999999993  1.0000
  H   H32       1.0  0.604  0.06166000000000001  0.4002299999999999  1.0000
  H   H33       1.0  0.58132  0.9165000000000002  0.51162  1.0000
  H   H34       1.0  0.4622  0.92375  0.44705  1.0000
  H   H35       1.0  0.011590000000000003  0.68597  0.16773  1.0000
  H   H36       1.0  0.68379  0.81503  0.08564  1.0000
  H   H37       1.0  0.85862  0.53529  0.99237  1.0000
  H   H38       1.0  0.9216099999999999  0.49286000000000013  0.06576  1.0000
  H   H39       1.0  0.11533  0.62414  0.06868  1.0000
  H   H40       1.0  0.06704000000000004  0.6637800000000003  0.9902100000000001  1.0000
  H   H41       1.0  0.72763  0.4959500000000001  0.3818  1.0000
  H   H42       1.0  0.85742  0.3876400000000001  0.4455200000000001  1.0000
  H   H43       1.0  0.23775000000000002  0.53642  0.37132  1.0000
  H   H44       1.0  0.10473  0.64241  0.30706  1.0000
  H   H45       1.0  0.16052  0.3059600000000001  0.51708  1.0000
  H   H46       1.0  0.99959  0.3541400000000001  0.52066  1.0000
  H   H47       1.0  0.5072  0.99176  0.16867  1.0000
  H   H48       1.0  0.39137  0.11462000000000001  0.11082999999999998  1.0000
  H   H49       1.0  0.7855499999999997  0.27182  0.06942  1.0000
  H   H50       1.0  0.90014  0.14733  0.12518  1.0000
  H   H51       1.0  0.43343000000000004  0.7959500000000003  0.12079  1.0000
  H   H52       1.0  0.35363  0.91105  0.02038  1.0000
  H   H53       1.0  0.12869000000000005  0.9525100000000002  0.19315  1.0000
  H   H54       1.0  0.22119999999999998  0.06576000000000001  0.03352  1.0000
  H   H55       1.0  0.10297  0.06084000000000001  0.10036  1.0000
  H   H56       1.0  0.08090000000000006  0.9162700000000003  0.9885500000000002  1.0000
  H   H57       1.0  0.96123  0.9238000000000001  0.05277  1.0000
  H   H58       1.0  0.51094  0.68593  0.33143  1.0000
  H   H59       1.0  0.18234  0.81388  0.41383  1.0000
  H   H60       1.0  0.35834  0.53513  0.50698  1.0000
  H   H61       1.0  0.4219  0.49181000000000014  0.43405  1.0000
  H   H62       1.0  0.61482  0.6235200000000002  0.4308  1.0000
  H   H63       1.0  0.56609  0.66395  0.50901  1.0000
  H   H64       1.0  0.22829000000000002  0.4972700000000001  0.1187  1.0000
  H   H65       1.0  0.3577600000000001  0.3894700000000001  0.05449  1.0000
  H   H66       1.0  0.73851  0.53749  0.12913  1.0000
  H   H67       1.0  0.60622  0.6427400000000002  0.19404  1.0000
  H   H68       1.0  0.6599  0.3075500000000001  0.98267  1.0000
  H   H69       1.0  0.49954999999999994  0.35614000000000007  0.97902  1.0000
  H   H70       1.0  0.9906  0.010040000000000004  0.66914  1.0000
  H   H71       1.0  0.10722999999999999  0.88788  0.61146  1.0000
  H   H72       1.0  0.71375  0.72938  0.56939  1.0000
  H   H73       1.0  0.5984000000000002  0.8530000000000002  0.62532  1.0000
  H   H74       1.0  0.06734000000000001  0.20442000000000005  0.62018  1.0000
  H   H75       1.0  0.1457  0.08876  0.51984  1.0000
  H   H76       1.0  0.37023  0.04622000000000001  0.69277  1.0000
  H   H77       1.0  0.27832  0.93372  0.53265  1.0000
  H   H78       1.0  0.39599000000000006  0.9383400000000002  0.59977  1.0000
  H   H79       1.0  0.41867  0.08349  0.48838  1.0000
  H   H80       1.0  0.53779  0.07625000000000003  0.55294  1.0000
  H   H81       1.0  0.9883999999999998  0.31402000000000013  0.8322599999999999  1.0000
  H   H82       1.0  0.3162  0.18497  0.91436  1.0000
  H   H83       1.0  0.14137000000000002  0.4647100000000001  0.007620000000000001  1.0000
  H   H84       1.0  0.07838  0.50713  0.93423  1.0000
  H   H85       1.0  0.88466  0.37586000000000014  0.93132  1.0000
  H   H86       1.0  0.9329499999999998  0.33622  0.00979  1.0000
  H   H87       1.0  0.27236  0.50405  0.6182  1.0000
  H   H88       1.0  0.14257  0.61236  0.55448  1.0000
  H   H89       1.0  0.7622400000000001  0.46357000000000004  0.62867  1.0000
  H   H90       1.0  0.89526  0.35759  0.69293  1.0000
  H   H91       1.0  0.8394699999999999  0.69404  0.48290999999999995  1.0000
  H   H92       1.0  0.00040000000000001265  0.6458500000000001  0.47933  1.0000
  C   C1        1.0  0.21679  0.0178  0.8224800000000001  1.0000
  C   C2        1.0  0.28805  0.9409300000000003  0.8524200000000001  1.0000
  C   C3        1.0  0.4323500000000001  0.9483100000000001  0.8547  1.0000
  C   C4        1.0  0.4971999999999999  0.88015  0.88657  1.0000
  C   C5        1.0  0.41911000000000004  0.80318  0.91688  1.0000
  C   C6        1.0  0.27532  0.7910100000000002  0.91121  1.0000
  C   C7        1.0  0.21139  0.8604100000000002  0.87947  1.0000
  C   C8        1.0  0.64273  0.15573  0.87988  1.0000
  C   C9        1.0  0.68008  0.09895  0.9293100000000001  1.0000
  C   C10       1.0  0.79653  0.07393000000000001  0.83868  1.0000
  C   C11       1.0  0.85203  0.98135  0.93692  1.0000
  C   C12       1.0  0.96456  0.03417  0.9794500000000002  1.0000
  C   C13       1.0  0.56266  0.2926400000000001  0.63356  1.0000
  C   C14       1.0  0.73268  0.22713000000000003  0.588  1.0000
  C   C15       1.0  0.6700600000000001  0.27389  0.54049  1.0000
  C   C16       1.0  0.54613  0.4713200000000001  0.51995  1.0000
  C   C17       1.0  0.47246  0.3728500000000001  0.53594  1.0000
  C   C18       1.0  0.67163  0.3552800000000001  0.80535  1.0000
  C   C19       1.0  0.59123  0.42094000000000004  0.84178  1.0000
  C   C20       1.0  0.6597  0.49351000000000006  0.8806300000000001  1.0000
  C   C21       1.0  0.58694  0.55369  0.91668  1.0000
  C   C22       1.0  0.44269000000000003  0.54088  0.91372  1.0000
  C   C23       1.0  0.37317999999999996  0.47003  0.8738900000000001  1.0000
  C   C24       1.0  0.44705000000000006  0.4108900000000001  0.83811  1.0000
  C   C25       1.0  0.42341  0.66877  0.98845  1.0000
  C   C26       1.0  0.28594  0.9819900000000003  0.32211  1.0000
  C   C27       1.0  0.21378000000000003  0.058220000000000015  0.35191  1.0000
  C   C28       1.0  0.06947  0.05022  0.35414  1.0000
  C   C29       1.0  0.004190000000000007  0.11808000000000003  0.38602  1.0000
  C   C30       1.0  0.08174  0.19535  0.41648  1.0000
  C   C31       1.0  0.22559  0.20786000000000002  0.4109300000000001  1.0000
  C   C32       1.0  0.29003  0.13891000000000003  0.37911  1.0000
  C   C33       1.0  0.8571200000000001  0.84438  0.38034  1.0000
  C   C34       1.0  0.8204500000000001  0.9013600000000003  0.4298  1.0000
  C   C35       1.0  0.70418  0.9269400000000002  0.33912  1.0000
  C   C36       1.0  0.6487  0.01922  0.43748  1.0000
  C   C37       1.0  0.53589  0.9660000000000002  0.47952000000000006  1.0000
  C   C38       1.0  0.9378  0.7081200000000002  0.13294  1.0000
  C   C39       1.0  0.76854  0.7737600000000002  0.08752  1.0000
  C   C40       1.0  0.8310799999999999  0.72715  0.04  1.0000
  C   C41       1.0  0.9539699999999999  0.5290400000000001  0.01964  1.0000
  C   C42       1.0  0.028140000000000037  0.6275400000000002  0.03522  1.0000
  C   C43       1.0  0.82625  0.6431400000000002  0.30584  1.0000
  C   C44       1.0  0.9074099999999999  0.57769  0.34221  1.0000
  C   C45       1.0  0.83961  0.50501  0.38103  1.0000
  C   C46       1.0  0.9126499999999997  0.44469  0.41692  1.0000
  C   C47       1.0  0.05690000000000003  0.4576600000000001  0.41385  1.0000
  C   C48       1.0  0.12603000000000003  0.5288700000000001  0.37428  1.0000
  C   C49       1.0  0.051700000000000045  0.5881700000000002  0.33873  1.0000
  C   C50       1.0  0.07696  0.3296000000000001  0.48821999999999993  1.0000
  C   C51       1.0  0.7832  0.9822000000000002  0.17752  1.0000
  C   C52       1.0  0.71194  0.05907000000000001  0.14758  1.0000
  C   C53       1.0  0.56764  0.051690000000000014  0.1453  1.0000
  C   C54       1.0  0.50279  0.11984000000000003  0.11343000000000002  1.0000
  C   C55       1.0  0.58088  0.19682000000000005  0.08311  1.0000
  C   C56       1.0  0.72467  0.20898  0.08879  1.0000
  C   C57       1.0  0.7886  0.13959000000000005  0.12052000000000002  1.0000
  C   C58       1.0  0.3572600000000001  0.8442700000000002  0.12012  1.0000
  C   C59       1.0  0.31991  0.9010500000000001  0.07069  1.0000
  C   C60       1.0  0.20346  0.92607  0.16132  1.0000
  C   C61       1.0  0.14796  0.018650000000000007  0.06308  1.0000
  C   C62       1.0  0.035430000000000045  0.9658200000000002  0.02055  1.0000
  C   C63       1.0  0.43733  0.7073500000000003  0.36644  1.0000
  C   C64       1.0  0.26731000000000005  0.7728700000000002  0.4119999999999999  1.0000
  C   C65       1.0  0.32993  0.7261100000000003  0.45951  1.0000
  C   C66       1.0  0.45386  0.52868  0.48005000000000003  1.0000
  C   C67       1.0  0.52753  0.62714  0.46406  1.0000
  C   C68       1.0  0.32835  0.6447100000000002  0.19465  1.0000
  C   C69       1.0  0.40876  0.5790500000000002  0.15822  1.0000
  C   C70       1.0  0.34029  0.50649  0.11937  1.0000
  C   C71       1.0  0.4130499999999999  0.44631  0.08331  1.0000
  C   C72       1.0  0.5573  0.4591200000000001  0.08627  1.0000
  C   C73       1.0  0.62681  0.5299600000000001  0.12611  1.0000
  C   C74       1.0  0.55294  0.58911  0.16189  1.0000
  C   C75       1.0  0.57658  0.33123000000000014  0.01155  1.0000
  C   C76       1.0  0.71405  0.01801  0.67789  1.0000
  C   C77       1.0  0.78621  0.94177  0.64809  1.0000
  C   C78       1.0  0.93052  0.9497800000000002  0.64585  1.0000
  C   C79       1.0  0.9958  0.8819200000000003  0.61398  1.0000
  C   C80       1.0  0.91825  0.80465  0.58352  1.0000
  C   C81       1.0  0.7744  0.79213  0.58906  1.0000
  C   C82       1.0  0.70996  0.86108  0.62088  1.0000
  C   C83       1.0  0.14287  0.15562  0.61965  1.0000
  C   C84       1.0  0.17954  0.09864000000000003  0.5702  1.0000
  C   C85       1.0  0.29581  0.07306  0.66087  1.0000
  C   C86       1.0  0.35129  0.9807800000000002  0.56251  1.0000
  C   C87       1.0  0.4641  0.03399  0.52047  1.0000
  C   C88       1.0  0.062190000000000016  0.29188000000000003  0.8670499999999999  1.0000
  C   C89       1.0  0.23145  0.22624000000000005  0.91248  1.0000
  C   C90       1.0  0.16891  0.27285000000000004  0.96  1.0000
  C   C91       1.0  0.04602000000000001  0.47096000000000005  0.98036  1.0000
  C   C92       1.0  0.97185  0.37246  0.9647799999999999  1.0000
  C   C93       1.0  0.17373999999999998  0.35685000000000006  0.69415  1.0000
  C   C94       1.0  0.09258  0.42231  0.65779  1.0000
  C   C95       1.0  0.16038000000000002  0.4949900000000001  0.61896  1.0000
  C   C96       1.0  0.08734000000000003  0.5553100000000002  0.58307  1.0000
  C   C97       1.0  0.9430900000000001  0.54234  0.58614  1.0000
  C   C98       1.0  0.87396  0.47113000000000005  0.62572  1.0000
  C   C99       1.0  0.94829  0.41183  0.66127  1.0000
  C   C100      1.0  0.9230300000000001  0.6704  0.51177  1.0000
  N   N1        1.0  0.7154  0.13912000000000005  0.82378  1.0000
  N   N2        1.0  0.77643  0.04749  0.90213  1.0000
  N   N3        1.0  0.66353  0.24019  0.64631  1.0000
  N   N4        1.0  0.56369  0.3141100000000001  0.56862  1.0000
  N   N5        1.0  0.78451  0.86132  0.32418  1.0000
  N   N6        1.0  0.7245200000000002  0.95326  0.40262  1.0000
  N   N7        1.0  0.83753  0.76031  0.14588  1.0000
  N   N8        1.0  0.93732  0.68683  0.06754  1.0000
  N   N9        1.0  0.28458  0.8608800000000002  0.17622  1.0000
  N   N10       1.0  0.22356  0.9525  0.09787  1.0000
  N   N11       1.0  0.33646  0.7598000000000001  0.35369  1.0000
  N   N12       1.0  0.43629999999999997  0.68588  0.43138  1.0000
  N   N13       1.0  0.21547999999999998  0.13868000000000003  0.67582  1.0000
  N   N14       1.0  0.27547  0.04674  0.59738  1.0000
  N   N15       1.0  0.16246000000000002  0.23969  0.85411  1.0000
  N   N16       1.0  0.06267  0.31316  0.93246  1.0000
  O   O1        1.0  0.29905  0.09205  0.8031  1.0000
  O   O2        1.0  0.08814000000000001  0.008970000000000002  0.8186  1.0000
  O   O3        1.0  0.49496  0.74474  0.95189  1.0000
  O   O4        1.0  0.80009  0.36499000000000004  0.80892  1.0000
  O   O5        1.0  0.59549  0.28895  0.77266  1.0000
  O   O6        1.0  0.3591000000000001  0.5950100000000003  0.9478700000000001  1.0000
  O   O7        1.0  0.20463000000000003  0.9072800000000002  0.30252  1.0000
  O   O8        1.0  0.4144300000000001  0.99121  0.31838  1.0000
  O   O9        1.0  0.005689999999999998  0.2537  0.45135  1.0000
  O   O10       1.0  0.69774  0.63407  0.31032  1.0000
  O   O11       1.0  0.9005199999999999  0.7088300000000002  0.27232  1.0000
  O   O12       1.0  0.14089000000000002  0.4033700000000001  0.44777  1.0000
  O   O13       1.0  0.70094  0.90795  0.19689999999999996  1.0000
  O   O14       1.0  0.91185  0.9910300000000002  0.1814  1.0000
  O   O15       1.0  0.50503  0.25525000000000003  0.04811  1.0000
  O   O16       1.0  0.19989999999999997  0.635  0.19108  1.0000
  O   O17       1.0  0.40449  0.71105  0.22733999999999996  1.0000
  O   O18       1.0  0.64089  0.40499  0.05211999999999999  1.0000
  O   O19       1.0  0.79536  0.09271000000000001  0.69748  1.0000
  O   O20       1.0  0.58556  0.00879  0.68162  1.0000
  O   O21       1.0  0.9943000000000001  0.7463000000000002  0.54865  1.0000
  O   O22       1.0  0.30225  0.36593  0.68967  1.0000
  O   O23       1.0  0.09947000000000002  0.29117000000000004  0.72767  1.0000
  O   O24       1.0  0.8590999999999999  0.59663  0.55222  1.0000
