data_image0
_chemical_formula_structural       Cu18H84C204O72
_chemical_formula_sum              "Cu18 H84 C204 O72"
_cell_length_a       19.00359
_cell_length_b       19.00347
_cell_length_c       51.82029
_cell_angle_alpha    90.0
_cell_angle_beta     90.0
_cell_angle_gamma    120.06575999999998

_space_group_name_H-M_alt    "P 1"
_space_group_IT_number       1

loop_
  _space_group_symop_operation_xyz
  'x, y, z'

loop_
  _atom_site_type_symbol
  _atom_site_label
  _atom_site_symmetry_multiplicity
  _atom_site_fract_x
  _atom_site_fract_y
  _atom_site_fract_z
  _atom_site_occupancy
  Cu  Cu1       1.0  0.95876  0.47936  0.9803400000000002  1.0000
  Cu  Cu2       1.0  0.47936  0.95877  0.48034  1.0000
  Cu  Cu3       1.0  0.11147  0.05575  0.75  1.0000
  Cu  Cu4       1.0  0.52064  0.04124  0.5196600000000001  1.0000
  Cu  Cu5       1.0  0.05574000000000005  0.94426  0.25  1.0000
  Cu  Cu6       1.0  0.52064  0.04124  0.9803400000000002  1.0000
  Cu  Cu7       1.0  0.041239999999999985  0.52064  0.01966  1.0000
  Cu  Cu8       1.0  0.4794  0.5206  0.48034  1.0000
  Cu  Cu9       1.0  0.47936  0.95877  0.01966  1.0000
  Cu  Cu10      1.0  0.94426  0.05574  0.75  1.0000
  Cu  Cu11      1.0  0.05575  0.11147  0.25  1.0000
  Cu  Cu12      1.0  0.95876  0.47936  0.5196600000000001  1.0000
  Cu  Cu13      1.0  0.52059  0.47941  0.5196600000000001  1.0000
  Cu  Cu14      1.0  0.041239999999999985  0.52064  0.48034  1.0000
  Cu  Cu15      1.0  0.52059  0.47941  0.9803400000000002  1.0000
  Cu  Cu16      1.0  0.9442500000000001  0.88853  0.75  1.0000
  Cu  Cu17      1.0  0.88853  0.94425  0.25  1.0000
  Cu  Cu18      1.0  0.4794  0.5206  0.01966  1.0000
  H   H1        1.0  0.92187  0.30567  0.06535  1.0000
  H   H2        1.0  0.76136  0.52278  0.50007  1.0000
  H   H3        1.0  0.013310000000000008  0.8007  0.18520000000000003  1.0000
  H   H4        1.0  0.61621  0.92178  0.93464  1.0000
  H   H5        1.0  0.75341  0.01939  0.1419  1.0000
  H   H6        1.0  0.7872700000000001  0.9865900000000001  0.31481  1.0000
  H   H7        1.0  0.7340400000000001  0.9804700000000001  0.85808  1.0000
  H   H8        1.0  0.01938999999999998  0.75341  0.6419  1.0000
  H   H9        1.0  0.3056699999999999  0.92188  0.56535  1.0000
  H   H10       1.0  0.38379  0.07822  0.4346400000000001  1.0000
  H   H11       1.0  0.26596  0.01953  0.14192  1.0000
  H   H12       1.0  0.75351  0.73401  0.1419  1.0000
  H   H13       1.0  0.07821999999999998  0.38379  0.93464  1.0000
  H   H14       1.0  0.76136  0.52278  0.9999300000000001  1.0000
  H   H15       1.0  0.21273  0.01342  0.68519  1.0000
  H   H16       1.0  0.92187  0.30567  0.4346500000000001  1.0000
  H   H17       1.0  0.7340400000000001  0.9804700000000001  0.64192  1.0000
  H   H18       1.0  0.013420000000000005  0.21273  0.18519000000000002  1.0000
  H   H19       1.0  0.38381  0.30553  0.4346600000000001  1.0000
  H   H20       1.0  0.07821999999999998  0.38379  0.56536  1.0000
  H   H21       1.0  0.69432  0.07813  0.06535  1.0000
  H   H22       1.0  0.69447  0.61619  0.4346600000000001  1.0000
  H   H23       1.0  0.3056699999999999  0.92188  0.93465  1.0000
  H   H24       1.0  0.69447  0.61619  0.06534000000000001  1.0000
  H   H25       1.0  0.01938999999999998  0.75341  0.8581  1.0000
  H   H26       1.0  0.9217799999999999  0.61621  0.06536000000000002  1.0000
  H   H27       1.0  0.61621  0.92178  0.56536  1.0000
  H   H28       1.0  0.2465900000000001  0.98062  0.6419  1.0000
  H   H29       1.0  0.98658  0.78727  0.68519  1.0000
  H   H30       1.0  0.9866899999999998  0.1993  0.8148000000000001  1.0000
  H   H31       1.0  0.69432  0.07813  0.4346500000000001  1.0000
  H   H32       1.0  0.21273  0.01342  0.8148100000000001  1.0000
  H   H33       1.0  0.013310000000000008  0.8007  0.3148  1.0000
  H   H34       1.0  0.26599  0.24649000000000001  0.1419  1.0000
  H   H35       1.0  0.19930000000000003  0.98669  0.18520000000000003  1.0000
  H   H36       1.0  0.19930000000000003  0.98669  0.3148  1.0000
  H   H37       1.0  0.013420000000000005  0.21273  0.31481  1.0000
  H   H38       1.0  0.23864  0.47722  0.49993000000000004  1.0000
  H   H39       1.0  0.38381  0.30553  0.06534000000000001  1.0000
  H   H40       1.0  0.21259000000000003  0.19933  0.68518  1.0000
  H   H41       1.0  0.98061  0.24659000000000003  0.3581  1.0000
  H   H42       1.0  0.61619  0.69447  0.93466  1.0000
  H   H43       1.0  0.47722  0.23864  0.9999300000000001  1.0000
  H   H44       1.0  0.75341  0.01939  0.3581  1.0000
  H   H45       1.0  0.73401  0.75351  0.8581  1.0000
  H   H46       1.0  0.07812000000000001  0.69433  0.93465  1.0000
  H   H47       1.0  0.52278  0.76137  7e-05  1.0000
  H   H48       1.0  0.019530000000000002  0.26596  0.64192  1.0000
  H   H49       1.0  0.75351  0.73401  0.3581  1.0000
  H   H50       1.0  0.2465900000000001  0.98062  0.8581  1.0000
  H   H51       1.0  0.80067  0.78741  0.68518  1.0000
  H   H52       1.0  0.23859999999999998  0.7614  0.49994000000000005  1.0000
  H   H53       1.0  0.7874  0.80067  0.18518  1.0000
  H   H54       1.0  0.8007  0.01331  0.6852  1.0000
  H   H55       1.0  0.26596  0.01953  0.3580800000000001  1.0000
  H   H56       1.0  0.24649  0.26599  0.64189  1.0000
  H   H57       1.0  0.30553  0.38381  0.93466  1.0000
  H   H58       1.0  0.98047  0.7340399999999999  0.3580800000000001  1.0000
  H   H59       1.0  0.38379  0.07822  0.06536000000000002  1.0000
  H   H60       1.0  0.30553  0.38381  0.56534  1.0000
  H   H61       1.0  0.24649  0.26599  0.8581  1.0000
  H   H62       1.0  0.8007  0.01331  0.8148000000000001  1.0000
  H   H63       1.0  0.7613899999999999  0.23861  0.50006  1.0000
  H   H64       1.0  0.47722  0.23864  0.50007  1.0000
  H   H65       1.0  0.23859999999999998  0.7614  6.0000000000000015e-05  1.0000
  H   H66       1.0  0.80067  0.78741  0.8148200000000001  1.0000
  H   H67       1.0  0.019530000000000002  0.26596  0.85808  1.0000
  H   H68       1.0  0.52278  0.76137  0.49993000000000004  1.0000
  H   H69       1.0  0.07813000000000002  0.69433  0.56535  1.0000
  H   H70       1.0  0.73401  0.75351  0.64189  1.0000
  H   H71       1.0  0.61619  0.69447  0.56534  1.0000
  H   H72       1.0  0.7613899999999999  0.23861  0.9999400000000002  1.0000
  H   H73       1.0  0.98061  0.24659000000000003  0.1419  1.0000
  H   H74       1.0  0.19933  0.21259  0.18518  1.0000
  H   H75       1.0  0.21259000000000003  0.19933  0.8148200000000001  1.0000
  H   H76       1.0  0.23864  0.47722  7e-05  1.0000
  H   H77       1.0  0.7872700000000001  0.9865900000000001  0.18519000000000002  1.0000
  H   H78       1.0  0.7874  0.80067  0.31482  1.0000
  H   H79       1.0  0.98047  0.7340399999999999  0.14192  1.0000
  H   H80       1.0  0.9866899999999998  0.1993  0.6852  1.0000
  H   H81       1.0  0.19933  0.21259  0.31482  1.0000
  H   H82       1.0  0.9217799999999999  0.61621  0.4346400000000001  1.0000
  H   H83       1.0  0.98658  0.78727  0.8148100000000001  1.0000
  H   H84       1.0  0.26599  0.24649000000000001  0.3581  1.0000
  C   C1        1.0  0.9564200000000002  0.7852  0.17564  1.0000
  C   C2        1.0  0.82987  0.17013  0.40691  1.0000
  C   C3        1.0  0.15232999999999994  0.72003  0.53142  1.0000
  C   C4        1.0  0.26205  0.39651  0.9440900000000001  1.0000
  C   C5        1.0  0.82987  0.17013  0.09309  1.0000
  C   C6        1.0  0.72002  0.15233  0.4685800000000001  1.0000
  C   C7        1.0  0.13435999999999998  0.73787  0.9440900000000001  1.0000
  C   C8        1.0  0.64048  0.54562  0.01902  1.0000
  C   C9        1.0  0.84598  0.15402  0.38563  1.0000
  C   C10       1.0  0.92471  0.84941  0.28702  1.0000
  C   C11       1.0  0.15237  0.43233  0.53142  1.0000
  C   C12       1.0  0.19564000000000004  0.09782  0.1879  1.0000
  C   C13       1.0  0.06184  0.8099  0.84847  1.0000
  C   C14       1.0  0.30805  0.15405  0.11437  1.0000
  C   C15       1.0  0.09782000000000002  0.90218  0.6879000000000001  1.0000
  C   C16       1.0  0.19011  0.93816  0.6515300000000003  1.0000
  C   C17       1.0  0.9380700000000001  0.74807  0.34846  1.0000
  C   C18       1.0  0.8476700000000001  0.27997999999999995  0.4685800000000001  1.0000
  C   C19       1.0  0.86563  0.26213  0.44409  1.0000
  C   C20       1.0  0.2148  0.04358  0.17564  1.0000
  C   C21       1.0  0.90513  0.5456  0.019030000000000002  1.0000
  C   C22       1.0  0.25196  0.19005  0.15152  1.0000
  C   C23       1.0  0.3595699999999999  0.90519  0.51903  1.0000
  C   C24       1.0  0.25194  0.06193  0.34846  1.0000
  C   C25       1.0  0.86563  0.26213  0.055910000000000015  1.0000
  C   C26       1.0  0.2621299999999999  0.86564  0.55591  1.0000
  C   C27       1.0  0.13441  0.3965  0.9440900000000001  1.0000
  C   C28       1.0  0.22478  0.77522  0.98103  1.0000
  C   C29       1.0  0.64042  0.09481  0.019030000000000002  1.0000
  C   C30       1.0  0.15405  0.30805  0.8856300000000001  1.0000
  C   C31       1.0  0.90519  0.35958  0.48097  1.0000
  C   C32       1.0  0.8299  0.65974  0.40691  1.0000
  C   C33       1.0  0.7752000000000001  0.55042  0.48103000000000007  1.0000
  C   C34       1.0  0.1701  0.34026  0.59309  1.0000
  C   C35       1.0  0.22479999999999997  0.44958  0.51897  1.0000
  C   C36       1.0  0.56767  0.84763  0.53142  1.0000
  C   C37       1.0  0.60349  0.73795  0.9440900000000001  1.0000
  C   C38       1.0  0.8287  0.04351  0.32437000000000005  1.0000
  C   C39       1.0  0.15059  0.07529  0.28702  1.0000
  C   C40       1.0  0.15402  0.84598  0.61437  1.0000
  C   C41       1.0  0.7288999999999999  0.86443  0.8609600000000002  1.0000
  C   C42       1.0  0.25196  0.19005  0.34848  1.0000
  C   C43       1.0  0.80436  0.90219  0.8121  1.0000
  C   C44       1.0  0.80436  0.90219  0.6879000000000001  1.0000
  C   C45       1.0  0.13435999999999998  0.73787  0.55591  1.0000
  C   C46       1.0  0.8644299999999999  0.7289  0.36096  1.0000
  C   C47       1.0  0.7288999999999999  0.86443  0.63904  1.0000
  C   C48       1.0  0.15402  0.84598  0.8856300000000001  1.0000
  C   C49       1.0  0.92471  0.84941  0.21298  1.0000
  C   C50       1.0  0.90513  0.5456  0.48097  1.0000
  C   C51       1.0  0.60349  0.73795  0.5559  1.0000
  C   C52       1.0  0.3965  0.13441  0.44409  1.0000
  C   C53       1.0  0.8113400000000001  0.62263  0.06839  1.0000
  C   C54       1.0  0.86559  0.6035  0.44409  1.0000
  C   C55       1.0  0.77521  0.22478  0.48103000000000007  1.0000
  C   C56       1.0  0.56767  0.84763  0.9685800000000002  1.0000
  C   C57       1.0  0.22479999999999997  0.44958  0.98103  1.0000
  C   C58       1.0  0.77521  0.22478  0.01897  1.0000
  C   C59       1.0  0.7752000000000001  0.55042  0.01897  1.0000
  C   C60       1.0  0.45439  0.09487  0.019030000000000002  1.0000
  C   C61       1.0  0.45438  0.35952  0.48098  1.0000
  C   C62       1.0  0.84762  0.56767  0.03142  1.0000
  C   C63       1.0  0.9021800000000001  0.80436  0.1879  1.0000
  C   C64       1.0  0.22478  0.77522  0.51897  1.0000
  C   C65       1.0  0.4495799999999999  0.2248  0.01897  1.0000
  C   C66       1.0  0.13441  0.3965  0.55591  1.0000
  C   C67       1.0  0.2621299999999999  0.86564  0.9440900000000001  1.0000
  C   C68       1.0  0.9564799999999999  0.1713  0.17563  1.0000
  C   C69       1.0  0.3595699999999999  0.90519  0.98097  1.0000
  C   C70       1.0  0.64042  0.09481  0.48097  1.0000
  C   C71       1.0  0.9381500000000002  0.19011  0.15153  1.0000
  C   C72       1.0  0.8113400000000001  0.62263  0.43161  1.0000
  C   C73       1.0  0.21482999999999997  0.17123  0.17563  1.0000
  C   C74       1.0  0.19011  0.93816  0.84847  1.0000
  C   C75       1.0  0.09782000000000002  0.90218  0.8121  1.0000
  C   C76       1.0  0.06184  0.8099  0.6515300000000003  1.0000
  C   C77       1.0  0.82877  0.78518  0.17563  1.0000
  C   C78       1.0  0.15237  0.43233  0.9685800000000002  1.0000
  C   C79       1.0  0.80989  0.061840000000000006  0.34847  1.0000
  C   C80       1.0  0.78517  0.82877  0.82437  1.0000
  C   C81       1.0  0.26205  0.39651  0.5559  1.0000
  C   C82       1.0  0.39651  0.26205  0.0559  1.0000
  C   C83       1.0  0.34026  0.1701  0.40691  1.0000
  C   C84       1.0  0.15232999999999994  0.72003  0.9685800000000002  1.0000
  C   C85       1.0  0.09486999999999995  0.4544  0.51903  1.0000
  C   C86       1.0  0.04351000000000002  0.8287  0.6756300000000002  1.0000
  C   C87       1.0  0.73794  0.60349  0.44409  1.0000
  C   C88       1.0  0.8494  0.92471  0.71298  1.0000
  C   C89       1.0  0.07529000000000008  0.92471  0.78702  1.0000
  C   C90       1.0  0.37737  0.18866  0.06839  1.0000
  C   C91       1.0  0.74804  0.80995  0.65152  1.0000
  C   C92       1.0  0.72006  0.56767  0.03141  1.0000
  C   C93       1.0  0.90519  0.35958  0.019030000000000002  1.0000
  C   C94       1.0  0.69195  0.84595  0.8856300000000001  1.0000
  C   C95       1.0  0.17129999999999992  0.95649  0.6756300000000002  1.0000
  C   C96       1.0  0.19005  0.25196  0.65152  1.0000
  C   C97       1.0  0.2711  0.13557  0.36096  1.0000
  C   C98       1.0  0.1701  0.34026  0.90691  1.0000
  C   C99       1.0  0.8644299999999999  0.7289  0.13904  1.0000
  C   C100      1.0  0.18865  0.37737  0.93161  1.0000
  C   C101      1.0  0.18868  0.81132  0.5684  1.0000
  C   C102      1.0  0.2711  0.13557  0.13904  1.0000
  C   C103      1.0  0.061919999999999996  0.25194  0.65154  1.0000
  C   C104      1.0  0.13557  0.2711  0.8609600000000002  1.0000
  C   C105      1.0  0.92471  0.07529  0.21298  1.0000
  C   C106      1.0  0.92471  0.07529  0.28702  1.0000
  C   C107      1.0  0.7480599999999998  0.93808  0.84846  1.0000
  C   C108      1.0  0.54562  0.64048  0.98098  1.0000
  C   C109      1.0  0.35952  0.45438  0.98098  1.0000
  C   C110      1.0  0.6035  0.86559  0.55591  1.0000
  C   C111      1.0  0.55041  0.77521  0.51897  1.0000
  C   C112      1.0  0.8287  0.04351  0.17563  1.0000
  C   C113      1.0  0.9564799999999999  0.1713  0.32437000000000005  1.0000
  C   C114      1.0  0.72002  0.15233  0.03142  1.0000
  C   C115      1.0  0.7852  0.95642  0.82436  1.0000
  C   C116      1.0  0.04358000000000001  0.2148  0.6756400000000002  1.0000
  C   C117      1.0  0.86445  0.13555  0.36096  1.0000
  C   C118      1.0  0.62262  0.81135  0.56839  1.0000
  C   C119      1.0  0.17013000000000003  0.82987  0.59309  1.0000
  C   C120      1.0  0.8099399999999999  0.74804  0.15152  1.0000
  C   C121      1.0  0.27994  0.43233  0.53141  1.0000
  C   C122      1.0  0.27997000000000005  0.84767  0.9685800000000002  1.0000
  C   C123      1.0  0.84595  0.69195  0.11437  1.0000
  C   C124      1.0  0.07529  0.15059  0.78702  1.0000
  C   C125      1.0  0.56766  0.72006  0.96859  1.0000
  C   C126      1.0  0.15059  0.07529  0.21298  1.0000
  C   C127      1.0  0.72006  0.56767  0.4685900000000001  1.0000
  C   C128      1.0  0.73787  0.13437  0.44409  1.0000
  C   C129      1.0  0.43233  0.15237  0.03142  1.0000
  C   C130      1.0  0.30805  0.15405  0.38563  1.0000
  C   C131      1.0  0.5455999999999999  0.9051299999999999  0.98097  1.0000
  C   C132      1.0  0.39651  0.26205  0.44409  1.0000
  C   C133      1.0  0.84598  0.15402  0.11437  1.0000
  C   C134      1.0  0.64048  0.54562  0.48098  1.0000
  C   C135      1.0  0.09481000000000002  0.64043  0.98097  1.0000
  C   C136      1.0  0.13555  0.86445  0.63904  1.0000
  C   C137      1.0  0.15405  0.30805  0.61437  1.0000
  C   C138      1.0  0.8113199999999999  0.18868  0.0684  1.0000
  C   C139      1.0  0.17123  0.21483  0.82437  1.0000
  C   C140      1.0  0.65974  0.8299  0.59309  1.0000
  C   C141      1.0  0.09782  0.19564  0.6879000000000001  1.0000
  C   C142      1.0  0.9021800000000001  0.09782  0.3121  1.0000
  C   C143      1.0  0.9381500000000002  0.19011  0.34847  1.0000
  C   C144      1.0  0.86445  0.13555  0.13904  1.0000
  C   C145      1.0  0.43233  0.15237  0.4685800000000001  1.0000
  C   C146      1.0  0.8476700000000001  0.27997999999999995  0.03142  1.0000
  C   C147      1.0  0.86559  0.6035  0.055910000000000015  1.0000
  C   C148      1.0  0.82877  0.78518  0.32437000000000005  1.0000
  C   C149      1.0  0.45439  0.09487  0.48097  1.0000
  C   C150      1.0  0.09782  0.19564  0.8121  1.0000
  C   C151      1.0  0.65974  0.8299  0.90691  1.0000
  C   C152      1.0  0.9021800000000001  0.09782  0.1879  1.0000
  C   C153      1.0  0.17123  0.21483  0.6756300000000002  1.0000
  C   C154      1.0  0.21482999999999997  0.17123  0.32437000000000005  1.0000
  C   C155      1.0  0.13555  0.86445  0.8609600000000002  1.0000
  C   C156      1.0  0.43233  0.27994  0.03141  1.0000
  C   C157      1.0  0.09481000000000002  0.64043  0.51903  1.0000
  C   C158      1.0  0.56766  0.72006  0.53141  1.0000
  C   C159      1.0  0.07529  0.15059  0.71298  1.0000
  C   C160      1.0  0.69195  0.84595  0.61437  1.0000
  C   C161      1.0  0.45438  0.35952  0.01902  1.0000
  C   C162      1.0  0.8299  0.65974  0.09309  1.0000
  C   C163      1.0  0.4495799999999999  0.2248  0.48103000000000007  1.0000
  C   C164      1.0  0.84595  0.69195  0.38563  1.0000
  C   C165      1.0  0.27994  0.43233  0.96859  1.0000
  C   C166      1.0  0.17013000000000003  0.82987  0.90691  1.0000
  C   C167      1.0  0.62262  0.81135  0.93161  1.0000
  C   C168      1.0  0.25194  0.06193  0.15154  1.0000
  C   C169      1.0  0.73787  0.13437  0.055910000000000015  1.0000
  C   C170      1.0  0.04358000000000001  0.2148  0.82436  1.0000
  C   C171      1.0  0.7852  0.95642  0.6756400000000002  1.0000
  C   C172      1.0  0.55041  0.77521  0.98103  1.0000
  C   C173      1.0  0.37737  0.18866  0.43161  1.0000
  C   C174      1.0  0.34026  0.1701  0.09309  1.0000
  C   C175      1.0  0.6035  0.86559  0.9440900000000001  1.0000
  C   C176      1.0  0.35952  0.45438  0.51902  1.0000
  C   C177      1.0  0.2148  0.04358  0.32436  1.0000
  C   C178      1.0  0.54562  0.64048  0.51902  1.0000
  C   C179      1.0  0.7480599999999998  0.93808  0.65154  1.0000
  C   C180      1.0  0.13557  0.2711  0.63904  1.0000
  C   C181      1.0  0.061919999999999996  0.25194  0.84846  1.0000
  C   C182      1.0  0.18865  0.37737  0.56839  1.0000
  C   C183      1.0  0.5455999999999999  0.9051299999999999  0.51903  1.0000
  C   C184      1.0  0.18868  0.81132  0.9316  1.0000
  C   C185      1.0  0.19564000000000004  0.09782  0.3121  1.0000
  C   C186      1.0  0.27997000000000005  0.84767  0.53142  1.0000
  C   C187      1.0  0.73794  0.60349  0.0559  1.0000
  C   C188      1.0  0.19005  0.25196  0.84848  1.0000
  C   C189      1.0  0.17129999999999992  0.95649  0.82437  1.0000
  C   C190      1.0  0.84762  0.56767  0.4685800000000001  1.0000
  C   C191      1.0  0.43233  0.27994  0.4685900000000001  1.0000
  C   C192      1.0  0.8099399999999999  0.74804  0.34848  1.0000
  C   C193      1.0  0.9021800000000001  0.80436  0.3121  1.0000
  C   C194      1.0  0.80989  0.061840000000000006  0.15153  1.0000
  C   C195      1.0  0.9380700000000001  0.74807  0.15154  1.0000
  C   C196      1.0  0.9564200000000002  0.7852  0.32436  1.0000
  C   C197      1.0  0.74804  0.80995  0.84848  1.0000
  C   C198      1.0  0.8113199999999999  0.18868  0.4316  1.0000
  C   C199      1.0  0.78517  0.82877  0.6756300000000002  1.0000
  C   C200      1.0  0.07529000000000008  0.92471  0.71298  1.0000
  C   C201      1.0  0.8494  0.92471  0.78702  1.0000
  C   C202      1.0  0.04351000000000002  0.8287  0.82437  1.0000
  C   C203      1.0  0.09486999999999995  0.4544  0.98097  1.0000
  C   C204      1.0  0.3965  0.13441  0.055910000000000015  1.0000
  O   O1        1.0  0.51723  0.88875  0.49604000000000004  1.0000
  O   O2        1.0  0.4101  0.96603  0.9674  1.0000
  O   O3        1.0  0.12601  0.99392  0.7775400000000001  1.0000
  O   O4        1.0  0.12592  0.13209  0.72246  1.0000
  O   O5        1.0  0.40998000000000007  0.44405  0.53259  1.0000
  O   O6        1.0  0.55593  0.96594  0.5326  1.0000
  O   O7        1.0  0.006089999999999939  0.87399  0.7775400000000001  1.0000
  O   O8        1.0  0.9939099999999998  0.12601  0.27754000000000006  1.0000
  O   O9        1.0  0.62847  0.51727  0.99604  1.0000
  O   O10       1.0  0.86788  0.99385  0.7775300000000002  1.0000
  O   O11       1.0  0.13212  0.00615  0.27753000000000005  1.0000
  O   O12       1.0  0.51727  0.62848  0.00396  1.0000
  O   O13       1.0  0.9660299999999999  0.41011  0.0326  1.0000
  O   O14       1.0  0.034059999999999986  0.44407  0.5326  1.0000
  O   O15       1.0  0.034059999999999986  0.44407  0.9674  1.0000
  O   O16       1.0  0.62847  0.51727  0.50396  1.0000
  O   O17       1.0  0.44407  0.03406  0.0326  1.0000
  O   O18       1.0  0.44404000000000005  0.40998  0.03259  1.0000
  O   O19       1.0  0.11124999999999996  0.48277  0.49604000000000004  1.0000
  O   O20       1.0  0.13209  0.12592  0.27754000000000006  1.0000
  O   O21       1.0  0.006089999999999939  0.87399  0.72246  1.0000
  O   O22       1.0  0.55593  0.96594  0.9674  1.0000
  O   O23       1.0  0.40998000000000007  0.44405  0.9674100000000001  1.0000
  O   O24       1.0  0.86788  0.99385  0.72247  1.0000
  O   O25       1.0  0.12592  0.13209  0.7775400000000001  1.0000
  O   O26       1.0  0.12601  0.99392  0.72246  1.0000
  O   O27       1.0  0.87399  0.00609  0.27754000000000006  1.0000
  O   O28       1.0  0.4101  0.96603  0.5326  1.0000
  O   O29       1.0  0.9660299999999999  0.41011  0.4674  1.0000
  O   O30       1.0  0.13212  0.00615  0.22247  1.0000
  O   O31       1.0  0.006149999999999996  0.13212  0.72247  1.0000
  O   O32       1.0  0.48277  0.11125  0.99604  1.0000
  O   O33       1.0  0.88877  0.37152  0.50395  1.0000
  O   O34       1.0  0.37152  0.48273  0.49604000000000004  1.0000
  O   O35       1.0  0.59002  0.55596  0.46741  1.0000
  O   O36       1.0  0.11122999999999995  0.62848  0.49605000000000005  1.0000
  O   O37       1.0  0.8678999999999999  0.87408  0.72246  1.0000
  O   O38       1.0  0.11122999999999995  0.62848  0.00395  1.0000
  O   O39       1.0  0.55595  0.59002  0.53259  1.0000
  O   O40       1.0  0.87407  0.86791  0.27754000000000006  1.0000
  O   O41       1.0  0.96593  0.55593  0.0326  1.0000
  O   O42       1.0  0.03397  0.5899  0.9674  1.0000
  O   O43       1.0  0.58989  0.03397  0.0326  1.0000
  O   O44       1.0  0.51727  0.62848  0.49604000000000004  1.0000
  O   O45       1.0  0.88875  0.51723  0.50396  1.0000
  O   O46       1.0  0.48273  0.37153  0.99604  1.0000
  O   O47       1.0  0.48273  0.37153  0.50396  1.0000
  O   O48       1.0  0.44404000000000005  0.40998  0.46741  1.0000
  O   O49       1.0  0.88875  0.51723  0.99604  1.0000
  O   O50       1.0  0.44407  0.03406  0.4674  1.0000
  O   O51       1.0  0.62848  0.11123  0.50395  1.0000
  O   O52       1.0  0.03397  0.5899  0.5326  1.0000
  O   O53       1.0  0.87407  0.86791  0.22246  1.0000
  O   O54       1.0  0.62848  0.11123  0.99605  1.0000
  O   O55       1.0  0.55595  0.59002  0.9674100000000001  1.0000
  O   O56       1.0  0.13209  0.12592  0.22246  1.0000
  O   O57       1.0  0.87399  0.00609  0.22246  1.0000
  O   O58       1.0  0.11124999999999996  0.48277  0.00396  1.0000
  O   O59       1.0  0.8678999999999999  0.87408  0.7775400000000001  1.0000
  O   O60       1.0  0.37152  0.48273  0.00396  1.0000
  O   O61       1.0  0.9938400000000001  0.86788  0.27753000000000005  1.0000
  O   O62       1.0  0.96593  0.55593  0.4674  1.0000
  O   O63       1.0  0.37152  0.88877  0.49605000000000005  1.0000
  O   O64       1.0  0.9939099999999998  0.12601  0.22246  1.0000
  O   O65       1.0  0.9938400000000001  0.86788  0.22247  1.0000
  O   O66       1.0  0.88877  0.37152  0.99605  1.0000
  O   O67       1.0  0.58989  0.03397  0.4674  1.0000
  O   O68       1.0  0.48277  0.11125  0.50396  1.0000
  O   O69       1.0  0.006149999999999996  0.13212  0.7775300000000002  1.0000
  O   O70       1.0  0.51723  0.88875  0.00396  1.0000
  O   O71       1.0  0.59002  0.55596  0.03259  1.0000
  O   O72       1.0  0.37152  0.88877  0.00395  1.0000
