data_image0
_chemical_formula_structural       Zn6H128C128N32O16
_chemical_formula_sum              "Zn6 H128 C128 N32 O16"
_cell_length_a       12.80116
_cell_length_b       16.15971
_cell_length_c       17.26637
_cell_angle_alpha    81.19019
_cell_angle_beta     89.63542000000001
_cell_angle_gamma    85.42595000000001

_symmetry_space_group_name_H-M    'P 1'
_symmetry_Int_Tables_number       1

loop_
  _symmetry_equiv_pos_as_xyz
  'x,y,z'

loop_
  _atom_site_type_symbol
  _atom_site_label
  _atom_site_symmetry_multiplicity
  _atom_site_fract_x
  _atom_site_fract_y
  _atom_site_fract_z
  _atom_site_occupancy
  Zn  Zn1       1.0  0.8340100000000003  0.7218799999999997  0.31824  1.0000
  Zn  Zn2       1.0  0.73713  0.22633999999999993  0.98246  1.0000
  Zn  Zn3       1.0  0.4892900000000001  0.2815199999999999  0.26414  1.0000
  Zn  Zn4       1.0  0.16599  0.27812  0.68176  1.0000
  Zn  Zn5       1.0  0.2628600000000001  0.7736599999999998  0.01754  1.0000
  Zn  Zn6       1.0  0.5107  0.71848  0.73586  1.0000
  H   H1        1.0  0.9425900000000003  0.56126  0.54978  1.0000
  H   H2        1.0  0.8804600000000001  0.49084999999999995  0.50296  1.0000
  H   H3        1.0  0.8992700000000001  0.9728  0.04282  1.0000
  H   H4        1.0  0.91689  0.97976  0.9426600000000002  1.0000
  H   H5        1.0  0.37948000000000004  0.22339999999999996  0.9558400000000001  1.0000
  H   H6        1.0  0.36028  0.29401  0.02498  1.0000
  H   H7        1.0  0.44784000000000007  0.10897  0.06395  1.0000
  H   H8        1.0  0.31745  0.1444  0.08008  1.0000
  H   H9        1.0  0.89441  0.8736499999999998  0.17693  1.0000
  H   H10       1.0  0.09105000000000002  0.93303  0.17775  1.0000
  H   H11       1.0  0.060250000000000026  0.7498899999999997  0.37817  1.0000
  H   H12       1.0  0.49322  0.41358  0.11029  1.0000
  H   H13       1.0  0.52749  0.5809799999999998  0.10993  1.0000
  H   H14       1.0  0.55288  0.45056  0.34301  1.0000
  H   H15       1.0  0.23244000000000004  0.91877  0.28159  1.0000
  H   H16       1.0  0.20872  0.86018  0.37475  1.0000
  H   H17       1.0  0.3365500000000001  0.85376  0.1807  1.0000
  H   H18       1.0  0.4847800000000001  0.75306  0.16234  1.0000
  H   H19       1.0  0.41843000000000014  0.6043899999999998  0.38479  1.0000
  H   H20       1.0  0.26805  0.70465  0.40272  1.0000
  H   H21       1.0  0.6184  0.65044  0.22468  1.0000
  H   H22       1.0  0.60602  0.59785  0.3214  1.0000
  H   H23       1.0  0.9324100000000002  0.24616  0.86758  1.0000
  H   H24       1.0  0.9309700000000002  0.37966  0.74377  1.0000
  H   H25       1.0  0.65782  0.40491999999999995  0.88152  1.0000
  H   H26       1.0  0.34165  0.6548499999999998  0.88807  1.0000
  H   H27       1.0  0.22149  0.65445  0.75348  1.0000
  H   H28       1.0  0.06826000000000002  0.8158099999999998  0.8981599999999998  1.0000
  H   H29       1.0  0.67239  0.5139599999999998  0.7669  1.0000
  H   H30       1.0  0.7459600000000001  0.48084000000000005  0.68805  1.0000
  H   H31       1.0  0.7301500000000002  0.62559  0.83431  1.0000
  H   H32       1.0  0.8500000000000001  0.73768  0.83751  1.0000
  H   H33       1.0  0.054400000000000004  0.62878  0.67336  1.0000
  H   H34       1.0  0.9355600000000002  0.51496  0.67237  1.0000
  H   H35       1.0  0.06470000000000001  0.7772  0.69452  1.0000
  H   H36       1.0  0.9887000000000001  0.81809  0.76881  1.0000
  H   H37       1.0  0.3953500000000001  0.3723  0.41032  1.0000
  H   H38       1.0  0.20742000000000005  0.3266  0.47850999999999994  1.0000
  H   H39       1.0  0.29198  0.17517  0.30333  1.0000
  H   H40       1.0  0.34213  0.72971  0.58866  1.0000
  H   H41       1.0  0.17259000000000002  0.8504  0.57722  1.0000
  H   H42       1.0  0.35873  0.87068  0.77436  1.0000
  H   H43       1.0  0.10951000000000001  0.16653999999999994  0.36026  1.0000
  H   H44       1.0  0.06018000000000002  0.24361  0.4156  1.0000
  H   H45       1.0  0.3058  0.12198  0.48554  1.0000
  H   H46       1.0  0.32453000000000004  0.017969999999999996  0.60418  1.0000
  H   H47       1.0  0.9879600000000002  0.020179999999999993  0.62284  1.0000
  H   H48       1.0  0.9687000000000002  0.12494999999999996  0.50238  1.0000
  H   H49       1.0  0.20948  0.9771299999999996  0.74405  1.0000
  H   H50       1.0  0.09676000000000007  0.9291299999999997  0.71943  1.0000
  H   H51       1.0  0.8452  0.52713  0.30204  1.0000
  H   H52       1.0  0.8338200000000001  0.47254  0.15726  1.0000
  H   H53       1.0  0.80921  0.73826  0.12450000000000001  1.0000
  H   H54       1.0  0.81824  0.67254  0.00422  1.0000
  H   H55       1.0  0.74337  0.58333  0.01407  1.0000
  H   H56       1.0  0.019000000000000013  0.6488799999999998  0.01564  1.0000
  H   H57       1.0  0.71511  0.88394  0.21029  1.0000
  H   H58       1.0  0.5274700000000001  0.9580099999999997  0.25781  1.0000
  H   H59       1.0  0.62269  0.74335  0.42274  1.0000
  H   H60       1.0  0.4410900000000001  0.81402  0.439  1.0000
  H   H61       1.0  0.39097000000000004  0.89229  0.36284  1.0000
  H   H62       1.0  0.8238600000000003  0.44476  0.0031  1.0000
  H   H63       1.0  0.45122000000000007  0.04573  0.35924  1.0000
  H   H64       1.0  0.5072  0.84954  0.55899  1.0000
  H   H65       1.0  0.05740000000000001  0.43874  0.45021  1.0000
  H   H66       1.0  0.11954000000000008  0.5091499999999997  0.49704  1.0000
  H   H67       1.0  0.10071999999999999  0.02719000000000001  0.95718  1.0000
  H   H68       1.0  0.08310000000000001  0.02024  0.05734  1.0000
  H   H69       1.0  0.62052  0.77659  0.04415  1.0000
  H   H70       1.0  0.63971  0.7059899999999999  0.9750200000000001  1.0000
  H   H71       1.0  0.55216  0.8910299999999999  0.93605  1.0000
  H   H72       1.0  0.6825400000000003  0.8555999999999999  0.91992  1.0000
  H   H73       1.0  0.10558000000000001  0.12635  0.82307  1.0000
  H   H74       1.0  0.9089400000000002  0.06696999999999999  0.82225  1.0000
  H   H75       1.0  0.93975  0.2501  0.62183  1.0000
  H   H76       1.0  0.5067700000000003  0.58642  0.8897099999999999  1.0000
  H   H77       1.0  0.4725000000000001  0.41901  0.89006  1.0000
  H   H78       1.0  0.44712000000000013  0.54943  0.65698  1.0000
  H   H79       1.0  0.76755  0.08122000000000001  0.71841  1.0000
  H   H80       1.0  0.79128  0.13982  0.62525  1.0000
  H   H81       1.0  0.66344  0.14622999999999992  0.81929  1.0000
  H   H82       1.0  0.51521  0.24693  0.83766  1.0000
  H   H83       1.0  0.58156  0.3956100000000001  0.61521  1.0000
  H   H84       1.0  0.7319400000000003  0.29535  0.59727  1.0000
  H   H85       1.0  0.38159  0.34955999999999987  0.77532  1.0000
  H   H86       1.0  0.39397000000000004  0.40215  0.6786  1.0000
  H   H87       1.0  0.06758000000000003  0.75384  0.13242  1.0000
  H   H88       1.0  0.06903000000000002  0.62034  0.25623  1.0000
  H   H89       1.0  0.3421700000000001  0.59507  0.11848  1.0000
  H   H90       1.0  0.6583400000000003  0.3451499999999999  0.11193  1.0000
  H   H91       1.0  0.7785100000000003  0.34554999999999986  0.24651999999999996  1.0000
  H   H92       1.0  0.93173  0.18418999999999994  0.10184  1.0000
  H   H93       1.0  0.3276000000000001  0.48603  0.2331  1.0000
  H   H94       1.0  0.25404  0.51915  0.31195  1.0000
  H   H95       1.0  0.2698400000000001  0.3744  0.16569  1.0000
  H   H96       1.0  0.14999  0.26232  0.16249  1.0000
  H   H97       1.0  0.94559  0.37121  0.32663  1.0000
  H   H98       1.0  0.06443  0.48503999999999997  0.32763  1.0000
  H   H99       1.0  0.9353  0.22280000000000003  0.30548  1.0000
  H   H100      1.0  0.011300000000000008  0.1819099999999999  0.23119  1.0000
  H   H101      1.0  0.60464  0.62769  0.58968  1.0000
  H   H102      1.0  0.7925700000000001  0.6734  0.52149  1.0000
  H   H103      1.0  0.7080100000000005  0.82482  0.69667  1.0000
  H   H104      1.0  0.6578600000000002  0.27028999999999986  0.41134  1.0000
  H   H105      1.0  0.8274000000000002  0.14959999999999998  0.42278  1.0000
  H   H106      1.0  0.6412700000000002  0.12930999999999995  0.22563  1.0000
  H   H107      1.0  0.8904800000000003  0.8334599999999998  0.63974  1.0000
  H   H108      1.0  0.9398100000000003  0.75639  0.58439  1.0000
  H   H109      1.0  0.6942000000000003  0.8780199999999996  0.51446  1.0000
  H   H110      1.0  0.6754600000000002  0.98203  0.39582  1.0000
  H   H111      1.0  0.012030000000000029  0.9798199999999997  0.37716  1.0000
  H   H112      1.0  0.03129000000000002  0.87505  0.49761  1.0000
  H   H113      1.0  0.7905100000000003  0.022869999999999998  0.25595  1.0000
  H   H114      1.0  0.9032300000000002  0.07086999999999999  0.28057  1.0000
  H   H115      1.0  0.15479  0.47287000000000007  0.69796  1.0000
  H   H116      1.0  0.16618000000000005  0.5274499999999995  0.84274  1.0000
  H   H117      1.0  0.19078  0.26173  0.8755  1.0000
  H   H118      1.0  0.18175000000000005  0.32746  0.9957799999999999  1.0000
  H   H119      1.0  0.2566300000000001  0.41666999999999993  0.9859300000000001  1.0000
  H   H120      1.0  0.98099  0.35111  0.98436  1.0000
  H   H121      1.0  0.2848800000000001  0.11605999999999997  0.7896999999999998  1.0000
  H   H122      1.0  0.47252000000000005  0.04198999999999999  0.74219  1.0000
  H   H123      1.0  0.3773  0.25665  0.57726  1.0000
  H   H124      1.0  0.5589  0.18598  0.56099  1.0000
  H   H125      1.0  0.60902  0.10770999999999996  0.63715  1.0000
  H   H126      1.0  0.17614000000000007  0.5552399999999995  0.9969000000000001  1.0000
  H   H127      1.0  0.54877  0.9542599999999999  0.64075  1.0000
  H   H128      1.0  0.49279000000000023  0.15045  0.441  1.0000
  C   C1        1.0  0.93747  0.59441  0.42536  1.0000
  C   C2        1.0  0.9488800000000002  0.5282599999999997  0.49845999999999996  1.0000
  C   C3        1.0  0.90032  0.099  0.98398  1.0000
  C   C4        1.0  0.94106  0.00703000000000002  0.99367  1.0000
  C   C5        1.0  0.5202400000000001  0.26282000000000005  0.99755  1.0000
  C   C6        1.0  0.4078700000000001  0.23871  0.01172  1.0000
  C   C7        1.0  0.39807000000000003  0.16374999999999995  0.07655  1.0000
  C   C8        1.0  0.4286900000000001  0.17953999999999995  0.15789  1.0000
  C   C9        1.0  0.9562700000000001  0.8578  0.22032999999999997  1.0000
  C   C10       1.0  0.05328000000000002  0.88856  0.21978  1.0000
  C   C11       1.0  0.03941999999999999  0.7930000000000001  0.32542  1.0000
  C   C12       1.0  0.51014  0.44606  0.15882  1.0000
  C   C13       1.0  0.5285  0.5289099999999998  0.15813  1.0000
  C   C14       1.0  0.5402600000000001  0.46155000000000007  0.28029  1.0000
  C   C15       1.0  0.21341  0.85691  0.31153  1.0000
  C   C16       1.0  0.29455000000000003  0.78996  0.29535  1.0000
  C   C17       1.0  0.3547300000000001  0.79975  0.22602  1.0000
  C   C18       1.0  0.4385  0.7427  0.21553  1.0000
  C   C19       1.0  0.46701  0.67311  0.27418  1.0000
  C   C20       1.0  0.40097000000000016  0.6591599999999997  0.34019  1.0000
  C   C21       1.0  0.31614  0.71571  0.35041  1.0000
  C   C22       1.0  0.5640200000000001  0.61739  0.26544  1.0000
  C   C23       1.0  0.8759600000000001  0.29933000000000004  0.85143  1.0000
  C   C24       1.0  0.8764000000000002  0.36527  0.79107  1.0000
  C   C25       1.0  0.7325100000000001  0.38001999999999997  0.86178  1.0000
  C   C26       1.0  0.26692  0.68771  0.86959  1.0000
  C   C27       1.0  0.2080500000000001  0.6867199999999998  0.80339  1.0000
  C   C28       1.0  0.12770000000000006  0.77391  0.87622  1.0000
  C   C29       1.0  0.75145  0.49522999999999984  0.7479899999999999  1.0000
  C   C30       1.0  0.8239700000000001  0.56303  0.75207  1.0000
  C   C31       1.0  0.8017900000000002  0.6255399999999998  0.79992  1.0000
  C   C32       1.0  0.86898  0.68894  0.80135  1.0000
  C   C33       1.0  0.9600700000000002  0.6919799999999998  0.75488  1.0000
  C   C34       1.0  0.9836100000000003  0.6277999999999998  0.70882  1.0000
  C   C35       1.0  0.9167100000000002  0.56441  0.70769  1.0000
  C   C36       1.0  0.03104000000000003  0.7611799999999997  0.75323  1.0000
  C   C37       1.0  0.34639  0.32406  0.39858  1.0000
  C   C38       1.0  0.25227000000000005  0.30348  0.43159  1.0000
  C   C39       1.0  0.29458  0.22288  0.34082  1.0000
  C   C40       1.0  0.3195600000000002  0.7756299999999998  0.62647  1.0000
  C   C41       1.0  0.23406  0.8335299999999998  0.6207  1.0000
  C   C42       1.0  0.33131  0.8472299999999998  0.7233  1.0000
  C   C43       1.0  0.12569999999999998  0.19586  0.41199  1.0000
  C   C44       1.0  0.13644000000000003  0.13324  0.4861  1.0000
  C   C45       1.0  0.23571  0.10127999999999998  0.51579  1.0000
  C   C46       1.0  0.24663000000000004  0.042459999999999984  0.58315  1.0000
  C   C47       1.0  0.15699000000000005  0.014040000000000009  0.62395  1.0000
  C   C48       1.0  0.05761  0.043239999999999994  0.59314  1.0000
  C   C49       1.0  0.04667  0.10273999999999998  0.52526  1.0000
  C   C50       1.0  0.17186000000000007  0.9510299999999999  0.69706  1.0000
  C   C51       1.0  0.8337600000000002  0.5627499999999998  0.24402999999999997  1.0000
  C   C52       1.0  0.82713  0.53494  0.17318  1.0000
  C   C53       1.0  0.8149400000000001  0.67423  0.15465  1.0000
  C   C54       1.0  0.8167900000000001  0.60662  0.031039999999999998  1.0000
  C   C55       1.0  0.9105000000000001  0.55346  0.0097  1.0000
  C   C56       1.0  0.010469999999999997  0.584  0.00826  1.0000
  C   C57       1.0  0.66896  0.86552  0.2618  1.0000
  C   C58       1.0  0.57618  0.9032599999999997  0.28455  1.0000
  C   C59       1.0  0.6231300000000002  0.7901399999999997  0.37076  1.0000
  C   C60       1.0  0.4572500000000002  0.87377  0.40347  1.0000
  C   C61       1.0  0.9009800000000002  0.46892  0.00158  1.0000
  C   C62       1.0  0.4756200000000001  0.93913  0.45344  1.0000
  C   C63       1.0  0.47252000000000005  0.02524999999999998  0.42062  1.0000
  C   C64       1.0  0.50357  0.9155299999999998  0.53309  1.0000
  C   C65       1.0  0.06252  0.40558999999999995  0.57464  1.0000
  C   C66       1.0  0.05111999999999999  0.47174000000000005  0.50154  1.0000
  C   C67       1.0  0.09967000000000001  0.901  0.01601  1.0000
  C   C68       1.0  0.058939999999999985  0.9929700000000001  0.00633  1.0000
  C   C69       1.0  0.47976  0.73717  0.00245  1.0000
  C   C70       1.0  0.5921200000000002  0.76128  0.98828  1.0000
  C   C71       1.0  0.6019300000000001  0.83624  0.92344  1.0000
  C   C72       1.0  0.5713000000000003  0.82046  0.8421  1.0000
  C   C73       1.0  0.043720000000000016  0.14219999999999997  0.77967  1.0000
  C   C74       1.0  0.9467200000000002  0.11144  0.78021  1.0000
  C   C75       1.0  0.9605700000000003  0.20699000000000004  0.67457  1.0000
  C   C76       1.0  0.48985  0.55394  0.84118  1.0000
  C   C77       1.0  0.47149000000000013  0.47108999999999995  0.84187  1.0000
  C   C78       1.0  0.4597400000000001  0.5384500000000001  0.7197099999999998  1.0000
  C   C79       1.0  0.7865800000000002  0.14309  0.68847  1.0000
  C   C80       1.0  0.7054400000000002  0.21003999999999998  0.70465  1.0000
  C   C81       1.0  0.64527  0.20025  0.77398  1.0000
  C   C82       1.0  0.5614900000000002  0.2573  0.78447  1.0000
  C   C83       1.0  0.53298  0.32687999999999995  0.7258199999999999  1.0000
  C   C84       1.0  0.59902  0.34084  0.6598  1.0000
  C   C85       1.0  0.6838600000000002  0.2842899999999999  0.64959  1.0000
  C   C86       1.0  0.43598000000000003  0.38259999999999994  0.73456  1.0000
  C   C87       1.0  0.12403000000000006  0.70067  0.14857  1.0000
  C   C88       1.0  0.12360000000000004  0.6347299999999998  0.20893  1.0000
  C   C89       1.0  0.26749  0.61997  0.13821  1.0000
  C   C90       1.0  0.73307  0.31228  0.1304  1.0000
  C   C91       1.0  0.7919500000000003  0.3132799999999999  0.19661  1.0000
  C   C92       1.0  0.8722900000000002  0.22609  0.12378000000000002  1.0000
  C   C93       1.0  0.24854000000000007  0.5047699999999998  0.252  1.0000
  C   C94       1.0  0.17602000000000007  0.4369699999999999  0.24792999999999998  1.0000
  C   C95       1.0  0.1982  0.37445  0.20008  1.0000
  C   C96       1.0  0.13101  0.31106  0.19864  1.0000
  C   C97       1.0  0.03992000000000001  0.30802  0.24512  1.0000
  C   C98       1.0  0.016380000000000002  0.3721999999999999  0.29118  1.0000
  C   C99       1.0  0.08329  0.43559  0.2923  1.0000
  C   C100      1.0  0.96895  0.23882  0.24677  1.0000
  C   C101      1.0  0.6536000000000001  0.6759399999999998  0.60141  1.0000
  C   C102      1.0  0.74772  0.69652  0.56841  1.0000
  C   C103      1.0  0.7054100000000002  0.77712  0.65918  1.0000
  C   C104      1.0  0.6804300000000001  0.22436  0.37352  1.0000
  C   C105      1.0  0.7659300000000002  0.16646  0.37929  1.0000
  C   C106      1.0  0.6686900000000002  0.15277  0.2767  1.0000
  C   C107      1.0  0.87429  0.8041299999999998  0.58801  1.0000
  C   C108      1.0  0.86355  0.8667500000000001  0.5139  1.0000
  C   C109      1.0  0.7642800000000002  0.89871  0.4842  1.0000
  C   C110      1.0  0.7533600000000001  0.95754  0.41684  1.0000
  C   C111      1.0  0.843  0.9859599999999996  0.37605  1.0000
  C   C112      1.0  0.9423800000000001  0.95676  0.40686  1.0000
  C   C113      1.0  0.95332  0.8972599999999997  0.47474  1.0000
  C   C114      1.0  0.82813  0.048959999999999976  0.30293  1.0000
  C   C115      1.0  0.16622999999999996  0.4372500000000001  0.75597  1.0000
  C   C116      1.0  0.17286000000000007  0.46506000000000003  0.82682  1.0000
  C   C117      1.0  0.18505  0.32577  0.84535  1.0000
  C   C118      1.0  0.18321000000000004  0.39337  0.96896  1.0000
  C   C119      1.0  0.08949  0.44653  0.9903  1.0000
  C   C120      1.0  0.98952  0.41599  0.9917400000000001  1.0000
  C   C121      1.0  0.33103000000000005  0.13448  0.7382  1.0000
  C   C122      1.0  0.4238200000000001  0.09674  0.71544  1.0000
  C   C123      1.0  0.37687  0.20986  0.62923  1.0000
  C   C124      1.0  0.54274  0.12623  0.59653  1.0000
  C   C125      1.0  0.09902000000000001  0.53108  0.99841  1.0000
  C   C126      1.0  0.52438  0.06087  0.54656  1.0000
  C   C127      1.0  0.5274800000000001  0.97475  0.57938  1.0000
  C   C128      1.0  0.4964200000000001  0.08447  0.4669  1.0000
  N   N1        1.0  0.94831  0.7977899999999998  0.28624  1.0000
  N   N2        1.0  0.10466  0.84734  0.28683  1.0000
  N   N3        1.0  0.51771  0.4041099999999999  0.23523  1.0000
  N   N4        1.0  0.54707  0.53793  0.23531  1.0000
  N   N5        1.0  0.7856500000000002  0.3091400000000001  0.89495  1.0000
  N   N6        1.0  0.78511  0.41559999999999997  0.79862  1.0000
  N   N7        1.0  0.21599  0.7421499999999996  0.9144  1.0000
  N   N8        1.0  0.12048999999999999  0.74196  0.80841  1.0000
  N   N9        1.0  0.3724500000000001  0.2734  0.34219  1.0000
  N   N10       1.0  0.22001  0.2401799999999999  0.39368  1.0000
  N   N11       1.0  0.37969  0.78494  0.69032  1.0000
  N   N12       1.0  0.24213999999999997  0.8778300000000001  0.68296  1.0000
  N   N13       1.0  0.8261600000000001  0.64967  0.23214  1.0000
  N   N14       1.0  0.81463  0.60617  0.11718  1.0000
  N   N15       1.0  0.69822  0.79505  0.31597  1.0000
  N   N16       1.0  0.54793  0.8544699999999998  0.35345  1.0000
  N   N17       1.0  0.051680000000000025  0.20220999999999997  0.71376  1.0000
  N   N18       1.0  0.89533  0.15266  0.71316  1.0000
  N   N19       1.0  0.48227999999999993  0.5958800000000001  0.76477  1.0000
  N   N20       1.0  0.4529200000000001  0.46207  0.76469  1.0000
  N   N21       1.0  0.21435000000000007  0.69086  0.10505  1.0000
  N   N22       1.0  0.21488  0.5844  0.20138  1.0000
  N   N23       1.0  0.7840000000000001  0.25785  0.0856  1.0000
  N   N24       1.0  0.8795100000000001  0.2580399999999999  0.19159  1.0000
  N   N25       1.0  0.62755  0.7266  0.65781  1.0000
  N   N26       1.0  0.7799800000000001  0.75981  0.60632  1.0000
  N   N27       1.0  0.6203  0.21505999999999997  0.30968  1.0000
  N   N28       1.0  0.7578500000000002  0.12217  0.31704  1.0000
  N   N29       1.0  0.17383  0.35032999999999986  0.76786  1.0000
  N   N30       1.0  0.18536000000000002  0.39383  0.88282  1.0000
  N   N31       1.0  0.3017700000000001  0.20494000000000004  0.68403  1.0000
  N   N32       1.0  0.4520700000000001  0.14553  0.64655  1.0000
  O   O1        1.0  0.84647  0.63858  0.41691  1.0000
  O   O2        1.0  0.011029999999999995  0.60466  0.37814  1.0000
  O   O3        1.0  0.79987  0.11218999999999994  0.9726400000000001  1.0000
  O   O4        1.0  0.96257  0.15446000000000001  0.9882299999999999  1.0000
  O   O5        1.0  0.5891000000000001  0.19989999999999997  0.9965300000000001  1.0000
  O   O6        1.0  0.5396800000000002  0.33871  0.98555  1.0000
  O   O7        1.0  0.45362000000000013  0.25572  0.16121  1.0000
  O   O8        1.0  0.4287300000000001  0.12200999999999998  0.21537  1.0000
  O   O9        1.0  0.15352000000000005  0.3614200000000001  0.58309  1.0000
  O   O10       1.0  0.9889600000000002  0.39532999999999996  0.62186  1.0000
  O   O11       1.0  0.20013000000000003  0.88781  0.02735  1.0000
  O   O12       1.0  0.03742999999999999  0.84553  0.01176  1.0000
  O   O13       1.0  0.4109  0.80009  0.00347  1.0000
  O   O14       1.0  0.4603200000000001  0.6612799999999998  0.01445  1.0000
  O   O15       1.0  0.54638  0.74428  0.83879  1.0000
  O   O16       1.0  0.57127  0.8779900000000002  0.78463  1.0000
