data_image0
_chemical_formula_structural       Gd4H84C138O36
_chemical_formula_sum              "Gd4 H84 C138 O36"
_cell_length_a       14.97521
_cell_length_b       17.3386
_cell_length_c       26.08679
_cell_angle_alpha    78.35865999999999
_cell_angle_beta     73.21858
_cell_angle_gamma    64.35992

_symmetry_space_group_name_H-M    'P 1'
_symmetry_Int_Tables_number       1

loop_
  _symmetry_equiv_pos_as_xyz
  'x,y,z'

loop_
  _atom_site_type_symbol
  _atom_site_label
  _atom_site_symmetry_multiplicity
  _atom_site_fract_x
  _atom_site_fract_y
  _atom_site_fract_z
  _atom_site_occupancy
  Gd  Gd1       1.0  0.12896999999999995  0.94591  0.51297  1.0000
  Gd  Gd2       1.0  0.58818  0.5538499999999998  0.9863600000000001  1.0000
  Gd  Gd3       1.0  0.87102  0.05408  0.48704  1.0000
  Gd  Gd4       1.0  0.41182  0.44615  0.01364  1.0000
  H   H1        1.0  0.7254799999999999  0.18768  0.6108900000000002  1.0000
  H   H2        1.0  0.27998000000000006  0.59096  0.9061900000000002  1.0000
  H   H3        1.0  0.14015000000000014  0.8888999999999998  0.66144  1.0000
  H   H4        1.0  0.027849999999999986  0.017399999999999978  0.6497600000000001  1.0000
  H   H5        1.0  0.6223599999999999  0.21893  0.78052  1.0000
  H   H6        1.0  0.76073  0.18321999999999997  0.8298700000000001  1.0000
  H   H7        1.0  0.9001699999999999  0.10149  0.8756900000000001  1.0000
  H   H8        1.0  0.45139999999999997  0.7487299999999999  0.9010400000000001  1.0000
  H   H9        1.0  0.19539  0.68024  0.7989600000000001  1.0000
  H   H10       1.0  0.15121000000000007  0.7911799999999998  0.78066  1.0000
  H   H11       1.0  0.25604000000000005  0.87029  0.73192  1.0000
  H   H12       1.0  0.3915699999999999  0.68003  0.56735  1.0000
  H   H13       1.0  0.3587999999999999  0.57374  0.7861500000000001  1.0000
  H   H14       1.0  0.49504999999999993  0.43694000000000005  0.7574500000000001  1.0000
  H   H15       1.0  0.33036000000000004  0.97683  0.71019  1.0000
  H   H16       1.0  0.50413  0.53245  0.59115  1.0000
  H   H17       1.0  0.09587999999999985  0.9863200000000001  0.73056  1.0000
  H   H18       1.0  0.07063999999999998  0.004779999999999999  0.82585  1.0000
  H   H19       1.0  0.44609  0.97535  0.7633900000000002  1.0000
  H   H20       1.0  0.48105999999999993  0.8667799999999998  0.8412600000000002  1.0000
  H   H21       1.0  0.56886  0.4141699999999998  0.6601600000000002  1.0000
  H   H22       1.0  0.5217999999999996  0.31376  0.88872  1.0000
  H   H23       1.0  0.7776299999999999  0.90954  0.59403  1.0000
  H   H24       1.0  0.6900700000000001  0.61149  0.83853  1.0000
  H   H25       1.0  0.6952199999999998  0.48179999999999995  0.8501600000000002  1.0000
  H   H26       1.0  0.62208  0.2814  0.71902  1.0000
  H   H27       1.0  0.7742699999999997  0.31734999999999997  0.6697600000000002  1.0000
  H   H28       1.0  0.87799  0.3990399999999999  0.62417  1.0000
  H   H29       1.0  0.10147999999999992  0.75066  0.59902  1.0000
  H   H30       1.0  0.67394  0.81994  0.70104  1.0000
  H   H31       1.0  0.7226200000000002  0.70906  0.71965  1.0000
  H   H32       1.0  0.8582699999999999  0.6291  0.76852  1.0000
  H   H33       1.0  0.63954  0.81922  0.93261  1.0000
  H   H34       1.0  0.7185500000000001  0.9264099999999998  0.7138300000000002  1.0000
  H   H35       1.0  0.68948  0.06315999999999998  0.7424400000000001  1.0000
  H   H36       1.0  0.01769999999999988  0.52303  0.7900100000000001  1.0000
  H   H37       1.0  0.6276899999999994  0.96767  0.9087800000000003  1.0000
  H   H38       1.0  0.8128900000000001  0.51329  0.76956  1.0000
  H   H39       1.0  0.9017300000000004  0.4954100000000001  0.67414  1.0000
  H   H40       1.0  0.18516999999999992  0.52466  0.73646  1.0000
  H   H41       1.0  0.18899000000000002  0.63319  0.6584  1.0000
  H   H42       1.0  0.6431499999999999  0.08589000000000001  0.8397  1.0000
  H   H43       1.0  0.2745199999999999  0.8123199999999999  0.38911  1.0000
  H   H44       1.0  0.72001  0.40904  0.09381000000000003  1.0000
  H   H45       1.0  0.8598400000000002  0.11108999999999998  0.33857  1.0000
  H   H46       1.0  0.9721400000000002  0.9825999999999996  0.35025  1.0000
  H   H47       1.0  0.3776399999999998  0.78107  0.21948000000000006  1.0000
  H   H48       1.0  0.23926000000000003  0.81678  0.17013000000000003  1.0000
  H   H49       1.0  0.09982000000000003  0.89851  0.12431  1.0000
  H   H50       1.0  0.5486  0.25126  0.09896  1.0000
  H   H51       1.0  0.80461  0.31975  0.20104000000000002  1.0000
  H   H52       1.0  0.8487899999999998  0.20880999999999994  0.21935  1.0000
  H   H53       1.0  0.74396  0.12971  0.26808  1.0000
  H   H54       1.0  0.60842  0.31997  0.4326600000000001  1.0000
  H   H55       1.0  0.64119  0.42625  0.21386  1.0000
  H   H56       1.0  0.50494  0.56305  0.24256  1.0000
  H   H57       1.0  0.66964  0.023169999999999996  0.28981  1.0000
  H   H58       1.0  0.4958699999999999  0.46753999999999996  0.40885  1.0000
  H   H59       1.0  0.90412  0.013679999999999996  0.26944  1.0000
  H   H60       1.0  0.9293500000000001  0.99521  0.17415  1.0000
  H   H61       1.0  0.5539  0.024639999999999985  0.23661  1.0000
  H   H62       1.0  0.51893  0.13322  0.15875000000000003  1.0000
  H   H63       1.0  0.43113999999999997  0.58583  0.33984000000000003  1.0000
  H   H64       1.0  0.47819  0.68623  0.11129  1.0000
  H   H65       1.0  0.22236999999999996  0.09045000000000002  0.40597  1.0000
  H   H66       1.0  0.3099199999999999  0.3885099999999999  0.16147  1.0000
  H   H67       1.0  0.30477  0.5182  0.14984  1.0000
  H   H68       1.0  0.37791  0.7186  0.28098  1.0000
  H   H69       1.0  0.22572  0.68264  0.33024  1.0000
  H   H70       1.0  0.12199999999999993  0.60096  0.37583  1.0000
  H   H71       1.0  0.89852  0.24932999999999997  0.40098000000000006  1.0000
  H   H72       1.0  0.32605  0.18005  0.29896  1.0000
  H   H73       1.0  0.27738  0.29094  0.28035  1.0000
  H   H74       1.0  0.14172  0.37089  0.23149  1.0000
  H   H75       1.0  0.36046  0.18077  0.06739  1.0000
  H   H76       1.0  0.2814400000000001  0.07358  0.28618000000000005  1.0000
  H   H77       1.0  0.31050999999999995  0.93683  0.25756  1.0000
  H   H78       1.0  0.9822900000000001  0.47696  0.21  1.0000
  H   H79       1.0  0.3723  0.032330000000000005  0.09122  1.0000
  H   H80       1.0  0.18709999999999996  0.4867099999999999  0.23045000000000002  1.0000
  H   H81       1.0  0.09827000000000001  0.50458  0.32587  1.0000
  H   H82       1.0  0.8148200000000002  0.47532999999999975  0.26354  1.0000
  H   H83       1.0  0.81101  0.3668  0.3416  1.0000
  H   H84       1.0  0.35684000000000005  0.9141  0.1603  1.0000
  C   C1        1.0  0.8763199999999999  0.10407999999999998  0.6445600000000001  1.0000
  C   C2        1.0  0.9556899999999998  0.06228999999999996  0.6709600000000002  1.0000
  C   C3        1.0  0.9432400000000001  0.07569  0.72447  1.0000
  C   C4        1.0  0.84644  0.13466999999999998  0.75217  1.0000
  C   C5        1.0  0.7673500000000002  0.18263999999999997  0.72415  1.0000
  C   C6        1.0  0.7816199999999996  0.16606999999999997  0.6716100000000003  1.0000
  C   C7        1.0  0.8337799999999999  0.14161999999999994  0.8074500000000002  1.0000
  C   C8        1.0  0.91256  0.09542  0.83323  1.0000
  C   C9        1.0  0.36109000000000013  0.6871  0.8915300000000002  1.0000
  C   C10       1.0  0.40517000000000003  0.7468099999999996  0.8763800000000002  1.0000
  C   C11       1.0  0.38910000000000006  0.80543  0.8309  1.0000
  C   C12       1.0  0.32604000000000005  0.8030799999999998  0.7991100000000001  1.0000
  C   C13       1.0  0.3012  0.68311  0.85875  1.0000
  C   C14       1.0  0.28506999999999993  0.7388599999999999  0.8124000000000002  1.0000
  C   C15       1.0  0.2205800000000001  0.73192  0.77927  1.0000
  C   C16       1.0  0.3061699999999999  0.86757  0.7555900000000002  1.0000
  C   C17       1.0  0.24428000000000005  0.83596  0.58294  1.0000
  C   C18       1.0  0.23361999999999997  0.77824  0.6805800000000001  1.0000
  C   C19       1.0  0.35840999999999995  0.68877  0.60986  1.0000
  C   C20       1.0  0.27972999999999987  0.76679  0.62454  1.0000
  C   C21       1.0  0.27086  0.71536  0.72066  1.0000
  C   C22       1.0  0.3513800000000001  0.63544  0.7052  1.0000
  C   C23       1.0  0.39467  0.62175  0.64899  1.0000
  C   C24       1.0  0.39010999999999996  0.56609  0.74351  1.0000
  C   C25       1.0  0.4664699999999999  0.48872000000000004  0.72732  1.0000
  C   C26       1.0  0.3479600000000002  0.92804  0.74356  1.0000
  C   C27       1.0  0.47318999999999994  0.54106  0.63381  1.0000
  C   C28       1.0  0.38094999999999984  0.6289099999999999  0.9399500000000002  1.0000
  C   C29       1.0  0.023370000000000037  0.030429999999999985  0.75202  1.0000
  C   C30       1.0  0.008870000000000041  0.04025000000000001  0.80528  1.0000
  C   C31       1.0  0.8881599999999998  0.08356000000000001  0.59064  1.0000
  C   C32       1.0  0.4128200000000001  0.9279699999999999  0.77381  1.0000
  C   C33       1.0  0.43243999999999994  0.86768  0.81695  1.0000
  C   C34       1.0  0.5087399999999999  0.47556999999999994  0.67211  1.0000
  C   C35       1.0  0.6241199999999999  0.39610999999999996  0.8551100000000003  1.0000
  C   C36       1.0  0.68873  0.43742000000000003  0.82883  1.0000
  C   C37       1.0  0.7434300000000001  0.4242  0.7753400000000003  1.0000
  C   C38       1.0  0.7332699999999999  0.36548  0.74761  1.0000
  C   C39       1.0  0.6734399999999999  0.31791  0.77553  1.0000
  C   C40       1.0  0.6176700000000002  0.33483  0.82795  1.0000
  C   C41       1.0  0.78326  0.35864  0.6923300000000001  1.0000
  C   C42       1.0  0.84172  0.4048799999999999  0.6666600000000003  1.0000
  C   C43       1.0  0.93984  0.81285  0.60868  1.0000
  C   C44       1.0  0.02843000000000009  0.75292  0.62377  1.0000
  C   C45       1.0  0.02522999999999997  0.6944  0.6692700000000001  1.0000
  C   C46       1.0  0.9278700000000003  0.69685  0.70116  1.0000
  C   C47       1.0  0.84299  0.8169699999999998  0.64141  1.0000
  C   C48       1.0  0.8360199999999999  0.7612200000000001  0.68775  1.0000
  C   C49       1.0  0.7311900000000001  0.76843  0.72075  1.0000
  C   C50       1.0  0.9291999999999997  0.6322099999999999  0.7446800000000002  1.0000
  C   C51       1.0  0.66381  0.6637  0.91643  1.0000
  C   C52       1.0  0.6921099999999999  0.7221199999999998  0.8192100000000002  1.0000
  C   C53       1.0  0.6573700000000001  0.8110399999999998  0.8900300000000002  1.0000
  C   C54       1.0  0.6713599999999998  0.7332  0.87515  1.0000
  C   C55       1.0  0.70637  0.78513  0.77922  1.0000
  C   C56       1.0  0.6918099999999997  0.8648399999999999  0.7947500000000002  1.0000
  C   C57       1.0  0.66543  0.87831  0.85099  1.0000
  C   C58       1.0  0.69959  0.93415  0.7564300000000003  1.0000
  C   C59       1.0  0.6824999999999999  0.011419999999999974  0.7726000000000002  1.0000
  C   C60       1.0  0.019670000000000028  0.57181  0.75658  1.0000
  C   C61       1.0  0.6481  0.9589899999999999  0.86614  1.0000
  C   C62       1.0  0.95038  0.8708  0.56021  1.0000
  C   C63       1.0  0.80608  0.4694  0.74795  1.0000
  C   C64       1.0  0.8548499999999999  0.45985  0.6946700000000002  1.0000
  C   C65       1.0  0.5625799999999996  0.41633999999999993  0.90931  1.0000
  C   C66       1.0  0.11477  0.57192  0.72616  1.0000
  C   C67       1.0  0.11705  0.63218  0.68299  1.0000
  C   C68       1.0  0.65639  0.024509999999999994  0.8278100000000002  1.0000
  C   C69       1.0  0.12366999999999996  0.89591  0.35545  1.0000
  C   C70       1.0  0.04429999999999995  0.9377  0.32904  1.0000
  C   C71       1.0  0.05674999999999997  0.9243  0.27554  1.0000
  C   C72       1.0  0.15355000000000013  0.8653199999999998  0.24784000000000003  1.0000
  C   C73       1.0  0.23264000000000007  0.81736  0.27586  1.0000
  C   C74       1.0  0.21837000000000004  0.83392  0.32839  1.0000
  C   C75       1.0  0.16621999999999998  0.85838  0.19255000000000003  1.0000
  C   C76       1.0  0.08743999999999999  0.9045699999999999  0.16678000000000004  1.0000
  C   C77       1.0  0.6389  0.3129  0.10847  1.0000
  C   C78       1.0  0.5948200000000001  0.25319  0.12363  1.0000
  C   C79       1.0  0.6109  0.19456  0.16911  1.0000
  C   C80       1.0  0.67395  0.19691999999999996  0.20089000000000004  1.0000
  C   C81       1.0  0.6988  0.31688  0.14125  1.0000
  C   C82       1.0  0.71492  0.26114  0.18761000000000003  1.0000
  C   C83       1.0  0.77942  0.26808  0.22074  1.0000
  C   C84       1.0  0.69383  0.13242  0.24442  1.0000
  C   C85       1.0  0.7557100000000001  0.16402999999999998  0.41706000000000004  1.0000
  C   C86       1.0  0.76638  0.22175999999999993  0.31942  1.0000
  C   C87       1.0  0.64158  0.31123  0.39015000000000005  1.0000
  C   C88       1.0  0.72026  0.23320000000000002  0.3754700000000001  1.0000
  C   C89       1.0  0.7291399999999999  0.28463  0.27935  1.0000
  C   C90       1.0  0.6486200000000001  0.36456  0.2948  1.0000
  C   C91       1.0  0.60533  0.37824  0.35101  1.0000
  C   C92       1.0  0.6098900000000002  0.4338999999999999  0.25649  1.0000
  C   C93       1.0  0.5335300000000004  0.51128  0.27269  1.0000
  C   C94       1.0  0.65203  0.07195999999999998  0.25644  1.0000
  C   C95       1.0  0.5267999999999999  0.45894  0.3661900000000001  1.0000
  C   C96       1.0  0.6190500000000001  0.3710799999999999  0.06005000000000001  1.0000
  C   C97       1.0  0.9766300000000001  0.96956  0.24799000000000004  1.0000
  C   C98       1.0  0.9911299999999998  0.95975  0.19473  1.0000
  C   C99       1.0  0.11184  0.91644  0.40936000000000006  1.0000
  C   C100      1.0  0.5871800000000001  0.07202999999999998  0.22619  1.0000
  C   C101      1.0  0.56756  0.13232  0.18306000000000003  1.0000
  C   C102      1.0  0.49126  0.52443  0.32789  1.0000
  C   C103      1.0  0.37587999999999994  0.60389  0.14489  1.0000
  C   C104      1.0  0.31126  0.56258  0.17117000000000002  1.0000
  C   C105      1.0  0.25656  0.5758  0.22466000000000003  1.0000
  C   C106      1.0  0.26672999999999997  0.63451  0.25239  1.0000
  C   C107      1.0  0.32656  0.68209  0.22447000000000006  1.0000
  C   C108      1.0  0.38233  0.66517  0.17206  1.0000
  C   C109      1.0  0.21674000000000004  0.6413599999999999  0.30767  1.0000
  C   C110      1.0  0.15826999999999994  0.59511  0.33335  1.0000
  C   C111      1.0  0.06016000000000005  0.18714999999999998  0.39133  1.0000
  C   C112      1.0  0.9715699999999999  0.24707  0.37624000000000013  1.0000
  C   C113      1.0  0.97477  0.3055999999999999  0.3307300000000001  1.0000
  C   C114      1.0  0.07212  0.30314  0.29885  1.0000
  C   C115      1.0  0.15700999999999998  0.18302999999999994  0.3585900000000001  1.0000
  C   C116      1.0  0.16398  0.23878  0.31226  1.0000
  C   C117      1.0  0.2688  0.23156000000000002  0.27925  1.0000
  C   C118      1.0  0.07079999999999999  0.36779  0.25532  1.0000
  C   C119      1.0  0.33618  0.3363  0.08357000000000003  1.0000
  C   C120      1.0  0.30789  0.27788  0.1808  1.0000
  C   C121      1.0  0.34263  0.18895  0.10997  1.0000
  C   C122      1.0  0.32864000000000004  0.2667899999999999  0.12485000000000003  1.0000
  C   C123      1.0  0.2936200000000001  0.2148599999999999  0.22078000000000006  1.0000
  C   C124      1.0  0.30817999999999995  0.13516  0.20525  1.0000
  C   C125      1.0  0.33456  0.12168999999999999  0.14901  1.0000
  C   C126      1.0  0.30040999999999995  0.06584000000000001  0.24357  1.0000
  C   C127      1.0  0.3175000000000001  0.9885699999999997  0.22740000000000002  1.0000
  C   C128      1.0  0.98032  0.42818  0.24342  1.0000
  C   C129      1.0  0.3519  0.041  0.13386  1.0000
  C   C130      1.0  0.04961999999999996  0.12919999999999998  0.43979000000000007  1.0000
  C   C131      1.0  0.19390999999999997  0.5306  0.25206  1.0000
  C   C132      1.0  0.14514  0.54015  0.30533  1.0000
  C   C133      1.0  0.4374100000000001  0.58366  0.0907  1.0000
  C   C134      1.0  0.88523  0.42807  0.27384000000000003  1.0000
  C   C135      1.0  0.88295  0.36781  0.31701  1.0000
  C   C136      1.0  0.34361  0.97548  0.1722  1.0000
  C   C137      1.0  0.6666900000000001  0.2502199999999999  0.74981  1.0000
  C   C138      1.0  0.33329999999999993  0.74978  0.25019  1.0000
  O   O1        1.0  0.7038400000000001  0.21153999999999998  0.64634  1.0000
  O   O2        1.0  0.25962999999999997  0.62349  0.87255  1.0000
  O   O3        1.0  0.15191000000000013  0.85176  0.69569  1.0000
  O   O4        1.0  0.3430099999999999  0.57081  0.95586  1.0000
  O   O5        1.0  0.43738999999999995  0.63609  0.9659000000000002  1.0000
  O   O6        1.0  0.17181000000000002  0.91017  0.59756  1.0000
  O   O7        1.0  0.2772299999999999  0.82737  0.53248  1.0000
  O   O8        1.0  0.9730200000000002  0.031100000000000003  0.564  1.0000
  O   O9        1.0  0.8104599999999998  0.11759  0.5688  1.0000
  O   O10       1.0  0.5585599999999997  0.29042  0.8530600000000003  1.0000
  O   O11       1.0  0.7557000000000001  0.87694  0.62759  1.0000
  O   O12       1.0  0.6987700000000002  0.64874  0.8042500000000002  1.0000
  O   O13       1.0  0.8705900000000002  0.9285399999999998  0.54375  1.0000
  O   O14       1.0  0.04026000000000006  0.86363  0.53481  1.0000
  O   O15       1.0  0.6794899999999999  0.58982  0.90162  1.0000
  O   O16       1.0  0.6383499999999999  0.6718699999999997  0.9668900000000002  1.0000
  O   O17       1.0  0.5699299999999998  0.46865  0.9352400000000002  1.0000
  O   O18       1.0  0.49718000000000007  0.3824100000000001  0.93196  1.0000
  O   O19       1.0  0.29616000000000003  0.78845  0.35367000000000004  1.0000
  O   O20       1.0  0.74036  0.37651  0.12746  1.0000
  O   O21       1.0  0.8480900000000001  0.14824  0.30431  1.0000
  O   O22       1.0  0.65698  0.42919  0.04415  1.0000
  O   O23       1.0  0.5626100000000002  0.36391  0.0341  1.0000
  O   O24       1.0  0.8281900000000001  0.08983000000000001  0.40244  1.0000
  O   O25       1.0  0.72276  0.17262999999999998  0.4675200000000001  1.0000
  O   O26       1.0  0.026969999999999984  0.96889  0.4360100000000001  1.0000
  O   O27       1.0  0.18952999999999998  0.88241  0.4312  1.0000
  O   O28       1.0  0.44144  0.70958  0.14695  1.0000
  O   O29       1.0  0.24429999999999996  0.12306  0.37241  1.0000
  O   O30       1.0  0.30122000000000015  0.35126  0.19575000000000004  1.0000
  O   O31       1.0  0.1294  0.07145  0.45626  1.0000
  O   O32       1.0  0.95974  0.13635999999999998  0.46519  1.0000
  O   O33       1.0  0.32051  0.41017  0.09838  1.0000
  O   O34       1.0  0.36163999999999996  0.32812  0.03311  1.0000
  O   O35       1.0  0.43006999999999995  0.53135  0.06477  1.0000
  O   O36       1.0  0.5028100000000001  0.61759  0.06804  1.0000
