data_image0
_chemical_formula_structural       Zn8H80C96N32O32
_chemical_formula_sum              "Zn8 H80 C96 N32 O32"
_cell_length_a       17.1641
_cell_length_b       17.3026
_cell_length_c       17.30457
_cell_angle_alpha    98.4885
_cell_angle_beta     115.38498
_cell_angle_gamma    115.42927999999999

_space_group_name_H-M_alt    "P 1"
_space_group_IT_number       1

loop_
  _space_group_symop_operation_xyz
  'x, y, z'

loop_
  _atom_site_type_symbol
  _atom_site_label
  _atom_site_symmetry_multiplicity
  _atom_site_fract_x
  _atom_site_fract_y
  _atom_site_fract_z
  _atom_site_occupancy
  Zn  Zn1       1.0  0.3821100000000001  0.59746  0.53515  1.0000
  Zn  Zn2       1.0  0.88216  0.8469899999999999  0.28464  1.0000
  Zn  Zn3       1.0  0.11783000000000005  0.153  0.71536  1.0000
  Zn  Zn4       1.0  0.6178800000000001  0.40254000000000006  0.46485000000000004  1.0000
  Zn  Zn5       1.0  0.06199000000000002  0.21503  0.09725000000000003  1.0000
  Zn  Zn6       1.0  0.5621800000000001  0.96473  0.34721  1.0000
  Zn  Zn7       1.0  0.43781  0.035269999999999996  0.65279  1.0000
  Zn  Zn8       1.0  0.9380000000000001  0.78497  0.90275  1.0000
  H   H1        1.0  0.3293600000000001  0.44409000000000004  0.3567500000000001  1.0000
  H   H2        1.0  0.22459000000000004  0.4123  0.53675  1.0000
  H   H3        1.0  0.09985999999999999  0.21583999999999998  0.46098  1.0000
  H   H4        1.0  0.10816999999999999  0.122  0.30139  1.0000
  H   H5        1.0  0.52796  0.52965  0.6461  1.0000
  H   H6        1.0  0.46229999999999993  0.71413  0.75007  1.0000
  H   H7        1.0  0.6148600000000001  0.78483  0.94463  1.0000
  H   H8        1.0  0.7271  0.68167  0.9804  1.0000
  H   H9        1.0  0.20942999999999998  0.26883  0.3021  1.0000
  H   H10       1.0  0.6613300000000001  0.61433  0.82349  1.0000
  H   H11       1.0  0.83023  0.9729  0.38586  1.0000
  H   H12       1.0  0.7238  0.68779  0.3114700000000001  1.0000
  H   H13       1.0  0.59849  0.63896  0.38285  1.0000
  H   H14       1.0  0.6096900000000001  0.80743  0.4878500000000001  1.0000
  H   H15       1.0  0.02879999999999997  0.88253  0.49806  1.0000
  H   H16       1.0  0.96244  0.71208  0.24812000000000006  1.0000
  H   H17       1.0  0.11553  0.67021  0.33004  1.0000
  H   H18       1.0  0.22710999999999995  0.7469599999999998  0.54525  1.0000
  H   H19       1.0  0.70981  0.90772  0.44089  1.0000
  H   H20       1.0  0.16186  0.83795  0.54669  1.0000
  H   H21       1.0  0.16975999999999997  0.0271  0.61414  1.0000
  H   H22       1.0  0.27619  0.31221  0.68853  1.0000
  H   H23       1.0  0.4015000000000001  0.3610300000000001  0.6171600000000002  1.0000
  H   H24       1.0  0.3903  0.19257  0.51215  1.0000
  H   H25       1.0  0.9711900000000001  0.11747000000000003  0.50194  1.0000
  H   H26       1.0  0.037550000000000076  0.28791000000000005  0.7518800000000001  1.0000
  H   H27       1.0  0.88446  0.32978  0.66996  1.0000
  H   H28       1.0  0.77288  0.25304  0.45475  1.0000
  H   H29       1.0  0.29018  0.09227  0.55911  1.0000
  H   H30       1.0  0.83813  0.16204  0.45331  1.0000
  H   H31       1.0  0.6706300000000002  0.5559  0.64325  1.0000
  H   H32       1.0  0.7754  0.58769  0.46325  1.0000
  H   H33       1.0  0.90013  0.7841499999999999  0.53902  1.0000
  H   H34       1.0  0.89182  0.878  0.69861  1.0000
  H   H35       1.0  0.47203  0.47035  0.3539  1.0000
  H   H36       1.0  0.53769  0.28587  0.24993  1.0000
  H   H37       1.0  0.38513  0.21517  0.05537  1.0000
  H   H38       1.0  0.27289  0.31833  0.019600000000000006  1.0000
  H   H39       1.0  0.7905599999999999  0.7311599999999999  0.6979  1.0000
  H   H40       1.0  0.33866000000000007  0.38567  0.17651000000000003  1.0000
  H   H41       1.0  0.08671000000000002  0.11293000000000004  0.9447  1.0000
  H   H42       1.0  0.8750100000000002  0.18763000000000005  0.9120100000000002  1.0000
  H   H43       1.0  0.75541  0.11739000000000004  0.71571  1.0000
  H   H44       1.0  0.8207  0.013580000000000009  0.62275  1.0000
  H   H45       1.0  0.88337  0.0006399999999999997  0.02968  1.0000
  H   H46       1.0  0.9626000000000001  0.25072  0.21299  1.0000
  H   H47       1.0  0.8392  0.16926000000000002  0.28391000000000005  1.0000
  H   H48       1.0  0.70088  0.95352  0.1817  1.0000
  H   H49       1.0  0.9669000000000001  0.05879  0.76946  1.0000
  H   H50       1.0  0.79092  0.95242  0.11458  1.0000
  H   H51       1.0  0.58699  0.1422  0.47336  1.0000
  H   H52       1.0  0.37475  0.96255  0.18748  1.0000
  H   H53       1.0  0.25409  0.03876999999999999  0.13834  1.0000
  H   H54       1.0  0.32147  0.19915000000000005  0.3067300000000001  1.0000
  H   H55       1.0  0.38408  0.85345  0.38335  1.0000
  H   H56       1.0  0.46249  0.7495  0.21144  1.0000
  H   H57       1.0  0.3396  0.55534  0.16994  1.0000
  H   H58       1.0  0.20111  0.51945  0.24733  1.0000
  H   H59       1.0  0.46692999999999996  0.19754000000000002  0.40771000000000013  1.0000
  H   H60       1.0  0.2912700000000001  0.6762  0.33863  1.0000
  H   H61       1.0  0.413  0.8578  0.52664  1.0000
  H   H62       1.0  0.6252400000000001  0.03745000000000003  0.8125200000000001  1.0000
  H   H63       1.0  0.7459  0.96122  0.8616600000000002  1.0000
  H   H64       1.0  0.6785200000000002  0.8008500000000001  0.6932700000000003  1.0000
  H   H65       1.0  0.6159100000000001  0.14654000000000006  0.6166500000000001  1.0000
  H   H66       1.0  0.5375  0.2504899999999999  0.78856  1.0000
  H   H67       1.0  0.66039  0.44465000000000005  0.83006  1.0000
  H   H68       1.0  0.7988799999999999  0.48055  0.75268  1.0000
  H   H69       1.0  0.53306  0.80246  0.59229  1.0000
  H   H70       1.0  0.70872  0.32379  0.6613700000000001  1.0000
  H   H71       1.0  0.9132800000000001  0.88707  0.0553  1.0000
  H   H72       1.0  0.12498000000000006  0.81236  0.088  1.0000
  H   H73       1.0  0.24458000000000008  0.8826  0.28429000000000004  1.0000
  H   H74       1.0  0.17928999999999992  0.98641  0.37725  1.0000
  H   H75       1.0  0.11662000000000018  0.9993500000000002  0.9703200000000002  1.0000
  H   H76       1.0  0.03738999999999992  0.74927  0.78701  1.0000
  H   H77       1.0  0.1607900000000001  0.8307300000000001  0.7160900000000002  1.0000
  H   H78       1.0  0.2991100000000001  0.04647000000000006  0.8183100000000002  1.0000
  H   H79       1.0  0.033090000000000036  0.94121  0.23054  1.0000
  H   H80       1.0  0.20906  0.04758000000000002  0.88543  1.0000
  C   C1        1.0  0.28959  0.41144  0.38837  1.0000
  C   C2        1.0  0.23405  0.39278  0.48055  1.0000
  C   C3        1.0  0.19123  0.30383  0.41837  1.0000
  C   C4        1.0  0.12397000000000001  0.21445  0.41209  1.0000
  C   C5        1.0  0.08785  0.12968  0.35237  1.0000
  C   C6        1.0  0.016370000000000013  0.04332  0.35285  1.0000
  C   C7        1.0  0.53232  0.58191  0.69425  1.0000
  C   C8        1.0  0.50019  0.67748  0.75094  1.0000
  C   C9        1.0  0.58061  0.68297  0.82673  1.0000
  C   C10       1.0  0.6347  0.73633  0.92536  1.0000
  C   C11       1.0  0.7048300000000001  0.72949  0.9948100000000002  1.0000
  C   C12       1.0  0.75417  0.78472  0.09476  1.0000
  C   C13       1.0  0.7900099999999999  0.9014699999999999  0.37844  1.0000
  C   C14       1.0  0.73369  0.75358  0.34082  1.0000
  C   C15       1.0  0.69106  0.77307  0.3872000000000001  1.0000
  C   C16       1.0  0.62359  0.71216  0.40921  1.0000
  C   C17       1.0  0.58823  0.73592  0.45868  1.0000
  C   C18       1.0  0.51593  0.66378  0.47277  1.0000
  C   C19       1.0  0.033120000000000024  0.83857  0.45023  1.0000
  C   C20       1.0  0.0005700000000001363  0.7492600000000001  0.3226000000000001  1.0000
  C   C21       1.0  0.08104000000000001  0.75386  0.39744000000000007  1.0000
  C   C22       1.0  0.1352099999999999  0.70928  0.39826  1.0000
  C   C23       1.0  0.20535000000000003  0.71024  0.47543  1.0000
  C   C24       1.0  0.25529  0.65997  0.47042  1.0000
  C   C25       1.0  0.20998  0.09853000000000002  0.62156  1.0000
  C   C26       1.0  0.2663  0.24641  0.65919  1.0000
  C   C27       1.0  0.3089300000000001  0.2269300000000001  0.6128000000000002  1.0000
  C   C28       1.0  0.3764000000000001  0.28784000000000004  0.5907900000000001  1.0000
  C   C29       1.0  0.41175999999999996  0.26407  0.54132  1.0000
  C   C30       1.0  0.48406  0.33622  0.52723  1.0000
  C   C31       1.0  0.9668699999999996  0.16143  0.54977  1.0000
  C   C32       1.0  0.9994200000000003  0.25073000000000006  0.6774000000000002  1.0000
  C   C33       1.0  0.9189500000000002  0.2461400000000001  0.6025600000000002  1.0000
  C   C34       1.0  0.86478  0.29071  0.60174  1.0000
  C   C35       1.0  0.79464  0.28975  0.52457  1.0000
  C   C36       1.0  0.7447  0.34003  0.52958  1.0000
  C   C37       1.0  0.7104000000000001  0.58855  0.61164  1.0000
  C   C38       1.0  0.76594  0.60721  0.51945  1.0000
  C   C39       1.0  0.80876  0.69617  0.58163  1.0000
  C   C40       1.0  0.87602  0.78554  0.58791  1.0000
  C   C41       1.0  0.9121400000000001  0.8703200000000001  0.64764  1.0000
  C   C42       1.0  0.9836200000000002  0.9566800000000001  0.64715  1.0000
  C   C43       1.0  0.46767  0.41808  0.30575  1.0000
  C   C44       1.0  0.49979999999999997  0.32251  0.24906  1.0000
  C   C45       1.0  0.41938  0.31702  0.17327  1.0000
  C   C46       1.0  0.36529000000000006  0.26366  0.07464  1.0000
  C   C47       1.0  0.29516  0.2705  0.005190000000000002  1.0000
  C   C48       1.0  0.24582000000000004  0.21526999999999993  0.90524  1.0000
  C   C49       1.0  0.022520000000000037  0.12049000000000004  0.9118  1.0000
  C   C50       1.0  0.91179  0.1583800000000001  0.8927400000000002  1.0000
  C   C51       1.0  0.8852699999999999  0.11238999999999995  0.80397  1.0000
  C   C52       1.0  0.8025000000000001  0.09105000000000006  0.7145100000000001  1.0000
  C   C53       1.0  0.7775799999999999  0.042270000000000016  0.6299  1.0000
  C   C54       1.0  0.69143  0.028120000000000003  0.54316  1.0000
  C   C55       1.0  0.88726  0.04854  0.0818  1.0000
  C   C56       1.0  0.92538  0.17623  0.17669000000000007  1.0000
  C   C57       1.0  0.85554  0.10143000000000003  0.18252000000000004  1.0000
  C   C58       1.0  0.81029  0.10085  0.23582  1.0000
  C   C59       1.0  0.73423  0.023750000000000004  0.22929  1.0000
  C   C60       1.0  0.68977  0.029749999999999988  0.28474  1.0000
  C   C61       1.0  0.52255  0.11074000000000003  0.40172  1.0000
  C   C62       1.0  0.41146000000000005  0.01868000000000001  0.25338  1.0000
  C   C63       1.0  0.38499  0.08108  0.27273  1.0000
  C   C64       1.0  0.30205  0.08775  0.21153  1.0000
  C   C65       1.0  0.27772  0.14805  0.23526  1.0000
  C   C66       1.0  0.19123000000000004  0.14826  0.16332  1.0000
  C   C67       1.0  0.38765  0.8052999999999999  0.33895000000000003  1.0000
  C   C68       1.0  0.42546  0.74865  0.24895  1.0000
  C   C69       1.0  0.35559  0.67298  0.25387  1.0000
  C   C70       1.0  0.31048  0.5745  0.2093  1.0000
  C   C71       1.0  0.23446000000000003  0.50504  0.21046000000000006  1.0000
  C   C72       1.0  0.18998  0.40515  0.16009  1.0000
  C   C73       1.0  0.47744  0.88926  0.59828  1.0000
  C   C74       1.0  0.58853  0.98132  0.74662  1.0000
  C   C75       1.0  0.615  0.91892  0.72727  1.0000
  C   C76       1.0  0.69794  0.91224  0.78847  1.0000
  C   C77       1.0  0.7222699999999999  0.8519499999999999  0.76474  1.0000
  C   C78       1.0  0.80876  0.85173  0.83668  1.0000
  C   C79       1.0  0.61234  0.19469  0.66105  1.0000
  C   C80       1.0  0.57453  0.25135  0.75105  1.0000
  C   C81       1.0  0.64439  0.32701  0.74613  1.0000
  C   C82       1.0  0.68951  0.4255  0.7907  1.0000
  C   C83       1.0  0.7655300000000002  0.49496  0.78954  1.0000
  C   C84       1.0  0.8100100000000005  0.59484  0.8399100000000003  1.0000
  C   C85       1.0  0.97747  0.8795  0.0882  1.0000
  C   C86       1.0  0.0882  0.84162  0.10726  1.0000
  C   C87       1.0  0.11471999999999999  0.8876  0.19603  1.0000
  C   C88       1.0  0.19749  0.90895  0.28549  1.0000
  C   C89       1.0  0.22241000000000014  0.9577300000000001  0.3701100000000001  1.0000
  C   C90       1.0  0.3085600000000001  0.97188  0.4568400000000001  1.0000
  C   C91       1.0  0.11273000000000002  0.95146  0.91821  1.0000
  C   C92       1.0  0.07461000000000002  0.82377  0.82331  1.0000
  C   C93       1.0  0.14444999999999986  0.8985599999999999  0.81748  1.0000
  C   C94       1.0  0.1897  0.8991499999999999  0.76418  1.0000
  C   C95       1.0  0.26576  0.97624  0.77071  1.0000
  C   C96       1.0  0.3102200000000001  0.97025  0.71526  1.0000
  N   N1        1.0  0.29516  0.4588  0.46137  1.0000
  N   N2        1.0  0.22865  0.31861  0.3612  1.0000
  N   N3        1.0  0.47084  0.61449  0.6694  1.0000
  N   N4        1.0  0.5986  0.62113  0.78806  1.0000
  N   N5        1.0  0.79519  0.83393  0.33626  1.0000
  N   N6        1.0  0.72897  0.86775  0.41029000000000004  1.0000
  N   N7        1.0  0.97143  0.80175  0.35627  1.0000
  N   N8        1.0  0.09928999999999996  0.81081  0.47723  1.0000
  N   N9        1.0  0.20479999999999995  0.16606  0.66374  1.0000
  N   N10       1.0  0.2710199999999999  0.13223999999999997  0.58971  1.0000
  N   N11       1.0  0.028560000000000113  0.19824000000000003  0.6437300000000002  1.0000
  N   N12       1.0  0.9007  0.18918  0.52277  1.0000
  N   N13       1.0  0.7048300000000001  0.54119  0.53863  1.0000
  N   N14       1.0  0.7713400000000001  0.68138  0.6388  1.0000
  N   N15       1.0  0.52915  0.3855  0.3306  1.0000
  N   N16       1.0  0.40139  0.37887  0.21194000000000002  1.0000
  N   N17       1.0  0.9967499999999996  0.16255  0.95889  1.0000
  N   N18       1.0  0.9571100000000005  0.08904000000000005  0.819  1.0000
  N   N19       1.0  0.944  0.14248  0.11383000000000003  1.0000
  N   N20       1.0  0.83291  0.021589999999999995  0.12123  1.0000
  N   N21       1.0  0.49662000000000006  0.03767000000000003  0.33408  1.0000
  N   N22       1.0  0.4571  0.13816  0.36771  1.0000
  N   N23       1.0  0.44437000000000004  0.83009  0.30168  1.0000
  N   N24       1.0  0.33305  0.71155  0.31127  1.0000
  N   N25       1.0  0.50337  0.96233  0.66592  1.0000
  N   N26       1.0  0.54289  0.8618400000000002  0.63229  1.0000
  N   N27       1.0  0.55562  0.16991  0.69832  1.0000
  N   N28       1.0  0.66694  0.28844  0.68873  1.0000
  N   N29       1.0  0.0032400000000000284  0.83744  0.04111  1.0000
  N   N30       1.0  0.04287999999999999  0.91095  0.18101000000000003  1.0000
  N   N31       1.0  0.05598999999999996  0.85751  0.88617  1.0000
  N   N32       1.0  0.16707999999999995  0.9784  0.87877  1.0000
  O   O1        1.0  0.98811  0.96494  0.29283  1.0000
  O   O2        1.0  0.98461  0.044180000000000004  0.40555  1.0000
  O   O3        1.0  0.8079600000000001  0.76073  0.15267  1.0000
  O   O4        1.0  0.7444  0.85049  0.12127  1.0000
  O   O5        1.0  0.48797000000000007  0.69544  0.5233  1.0000
  O   O6        1.0  0.48330999999999996  0.57921  0.4391700000000001  1.0000
  O   O7        1.0  0.30901  0.65634  0.54852  1.0000
  O   O8        1.0  0.24615000000000006  0.62339  0.39534000000000014  1.0000
  O   O9        1.0  0.51202  0.30456  0.47671  1.0000
  O   O10       1.0  0.5166800000000001  0.42078000000000004  0.5608300000000003  1.0000
  O   O11       1.0  0.6909800000000001  0.34365  0.45148  1.0000
  O   O12       1.0  0.75384  0.3766  0.60466  1.0000
  O   O13       1.0  0.01188000000000001  0.03506000000000001  0.70718  1.0000
  O   O14       1.0  0.015379999999999871  0.9558199999999998  0.59445  1.0000
  O   O15       1.0  0.19203  0.23926999999999995  0.84733  1.0000
  O   O16       1.0  0.25559  0.1495  0.87873  1.0000
  O   O17       1.0  0.6726500000000002  0.97721  0.4650300000000001  1.0000
  O   O18       1.0  0.64049  0.06221  0.54344  1.0000
  O   O19       1.0  0.60785  0.95148  0.26115  1.0000
  O   O20       1.0  0.7292  0.10566999999999999  0.35033  1.0000
  O   O21       1.0  0.17219999999999996  0.20744  0.1954  1.0000
  O   O22       1.0  0.14015000000000002  0.09682  0.07840000000000003  1.0000
  O   O23       1.0  0.10770999999999999  0.34677  0.15600000000000003  1.0000
  O   O24       1.0  0.22976  0.37904  0.12394000000000002  1.0000
  O   O25       1.0  0.82779  0.79255  0.8046  1.0000
  O   O26       1.0  0.85984  0.90318  0.9216  1.0000
  O   O27       1.0  0.89228  0.65322  0.844  1.0000
  O   O28       1.0  0.7702300000000002  0.62096  0.8760600000000002  1.0000
  O   O29       1.0  0.32734  0.022790000000000005  0.53497  1.0000
  O   O30       1.0  0.35950000000000004  0.93778  0.4565600000000001  1.0000
  O   O31       1.0  0.3921400000000001  0.0485200000000001  0.7388500000000001  1.0000
  O   O32       1.0  0.27079  0.89433  0.64967  1.0000
