data_image0
_chemical_formula_structural       Zn20H124C144N36O52
_chemical_formula_sum              "Zn20 H124 C144 N36 O52"
_cell_length_a       15.512
_cell_length_b       19.48139
_cell_length_c       25.35528
_cell_angle_alpha    90.00899999999999
_cell_angle_beta     89.97106999999998
_cell_angle_gamma    89.92604

_symmetry_space_group_name_H-M    'P 1'
_symmetry_Int_Tables_number       1

loop_
  _symmetry_equiv_pos_as_xyz
  'x,y,z'

loop_
  _atom_site_type_symbol
  _atom_site_label
  _atom_site_symmetry_multiplicity
  _atom_site_fract_x
  _atom_site_fract_y
  _atom_site_fract_z
  _atom_site_occupancy
  Zn  Zn1       1.0  0.04915  0.83914  0.23031  1.0000
  Zn  Zn2       1.0  0.024020000000000003  0.9664700000000002  0.45184  1.0000
  Zn  Zn3       1.0  0.45238  0.15861  0.72977  1.0000
  Zn  Zn4       1.0  0.47437  0.03355000000000001  0.95225  1.0000
  Zn  Zn5       1.0  0.9511299999999998  0.3412600000000001  0.76906  1.0000
  Zn  Zn6       1.0  0.97612  0.4667200000000001  0.54757  1.0000
  Zn  Zn7       1.0  0.5477  0.6582900000000003  0.27005  1.0000
  Zn  Zn8       1.0  0.52543  0.53358  0.046799999999999994  1.0000
  Zn  Zn9       1.0  0.95085  0.16086000000000006  0.76969  1.0000
  Zn  Zn10      1.0  0.97598  0.03353  0.54816  1.0000
  Zn  Zn11      1.0  0.54762  0.84139  0.27023  1.0000
  Zn  Zn12      1.0  0.52562  0.9664500000000001  0.04775  1.0000
  Zn  Zn13      1.0  0.04886  0.65873  0.23094999999999993  1.0000
  Zn  Zn14      1.0  0.023879999999999995  0.53327  0.45244  1.0000
  Zn  Zn15      1.0  0.4523  0.34171  0.72996  1.0000
  Zn  Zn16      1.0  0.47457  0.46642  0.9532  1.0000
  Zn  Zn17      1.0  0.17801  0.74871  0.30771  1.0000
  Zn  Zn18      1.0  0.32275  0.25125  0.8059199999999999  1.0000
  Zn  Zn19      1.0  0.82198  0.25128  0.6922999999999999  1.0000
  Zn  Zn20      1.0  0.6772499999999998  0.7487500000000001  0.19409  1.0000
  H   H1        1.0  0.8993199999999998  0.94794  0.32479  1.0000
  H   H2        1.0  0.9708299999999997  0.015780000000000002  0.3401299999999999  1.0000
  H   H3        1.0  0.97272  0.9779600000000002  0.27549  1.0000
  H   H4        1.0  0.23005999999999993  0.8086900000000002  0.41622  1.0000
  H   H5        1.0  0.20013  0.8861500000000001  0.45021  1.0000
  H   H6        1.0  0.13726  0.81198  0.45849  1.0000
  H   H7        1.0  0.96469  0.86097  0.6507  1.0000
  H   H8        1.0  0.00838  0.99073  0.09835  1.0000
  H   H9        1.0  0.04759  0.05279000000000001  0.015489999999999999  1.0000
  H   H10       1.0  0.19971  0.04973000000000002  0.98318  1.0000
  H   H11       1.0  0.27215  0.9271  0.11659  1.0000
  H   H12       1.0  0.28377  0.88907  0.25788  1.0000
  H   H13       1.0  0.3818799999999999  0.9122400000000003  0.29104  1.0000
  H   H14       1.0  0.28941  0.8878100000000001  0.3278499999999999  1.0000
  H   H15       1.0  0.60114  0.05190000000000001  0.8249  1.0000
  H   H16       1.0  0.52969  0.98393  0.84021  1.0000
  H   H17       1.0  0.5278  0.02187  0.7756299999999998  1.0000
  H   H18       1.0  0.27008  0.19195  0.91563  1.0000
  H   H19       1.0  0.29911  0.11424000000000001  0.9494699999999999  1.0000
  H   H20       1.0  0.36233  0.18805000000000002  0.95828  1.0000
  H   H21       1.0  0.53605  0.13908  0.15168  1.0000
  H   H22       1.0  0.4924  0.0091  0.59702  1.0000
  H   H23       1.0  0.45217  0.94633  0.51466  1.0000
  H   H24       1.0  0.29984  0.9499000000000002  0.4828399999999999  1.0000
  H   H25       1.0  0.22878  0.07258  0.61656  1.0000
  H   H26       1.0  0.21612999999999993  0.11046  0.75809  1.0000
  H   H27       1.0  0.11764  0.08771  0.79114  1.0000
  H   H28       1.0  0.21008  0.11216000000000002  0.828  1.0000
  H   H29       1.0  0.10124  0.44846000000000014  0.67486  1.0000
  H   H30       1.0  0.030439999999999995  0.5169800000000002  0.6595799999999999  1.0000
  H   H31       1.0  0.02821999999999999  0.4790900000000001  0.7241899999999998  1.0000
  H   H32       1.0  0.7707  0.30969  0.58398  1.0000
  H   H33       1.0  0.80012  0.38687  0.5495  1.0000
  H   H34       1.0  0.86365  0.3127900000000001  0.54182  1.0000
  H   H35       1.0  0.03536  0.36081000000000013  0.34932  1.0000
  H   H36       1.0  0.9915  0.49093000000000003  0.90185  1.0000
  H   H37       1.0  0.95211  0.55296  0.98472  1.0000
  H   H38       1.0  0.80005  0.54979  0.0171  1.0000
  H   H39       1.0  0.7279099999999998  0.4272000000000001  0.88365  1.0000
  H   H40       1.0  0.71572  0.3902700000000001  0.74224  1.0000
  H   H41       1.0  0.61752  0.41346  0.70911  1.0000
  H   H42       1.0  0.71001  0.3889900000000001  0.67229  1.0000
  H   H43       1.0  0.39827  0.55133  0.17469  1.0000
  H   H44       1.0  0.46914  0.48285000000000006  0.15934999999999996  1.0000
  H   H45       1.0  0.47115  0.52062  0.22399999999999998  1.0000
  H   H46       1.0  0.7291599999999998  0.69099  0.08462  1.0000
  H   H47       1.0  0.70066  0.61355  0.05031  1.0000
  H   H48       1.0  0.63675  0.68723  0.04209999999999999  1.0000
  H   H49       1.0  0.46388  0.63911  0.84838  1.0000
  H   H50       1.0  0.50769  0.50888  0.40315  1.0000
  H   H51       1.0  0.54799  0.44616  0.48555  1.0000
  H   H52       1.0  0.7002099999999998  0.44980000000000003  0.51751  1.0000
  H   H53       1.0  0.77117  0.57235  0.38383  1.0000
  H   H54       1.0  0.78441  0.60932  0.24202999999999994  1.0000
  H   H55       1.0  0.8830399999999998  0.5866800000000002  0.20898  1.0000
  H   H56       1.0  0.7905099999999999  0.61103  0.17210999999999999  1.0000
  H   H57       1.0  0.10067999999999998  0.05206000000000001  0.6752099999999999  1.0000
  H   H58       1.0  0.02917  0.98422  0.65987  1.0000
  H   H59       1.0  0.027269999999999992  0.022040000000000004  0.72451  1.0000
  H   H60       1.0  0.76994  0.19131  0.58378  1.0000
  H   H61       1.0  0.79987  0.11385  0.54979  1.0000
  H   H62       1.0  0.8627399999999997  0.18801000000000007  0.54151  1.0000
  H   H63       1.0  0.0353  0.13903  0.34930999999999995  1.0000
  H   H64       1.0  0.9916199999999997  0.00926  0.9016499999999998  1.0000
  H   H65       1.0  0.9524099999999998  0.94721  0.98452  1.0000
  H   H66       1.0  0.80029  0.95027  0.01683  1.0000
  H   H67       1.0  0.7278399999999998  0.0729  0.88342  1.0000
  H   H68       1.0  0.7162299999999998  0.11093000000000001  0.7421199999999999  1.0000
  H   H69       1.0  0.61811  0.08776  0.7089599999999999  1.0000
  H   H70       1.0  0.71058  0.11219  0.6721499999999998  1.0000
  H   H71       1.0  0.39885  0.9481  0.1751  1.0000
  H   H72       1.0  0.47031  0.01606  0.15979  1.0000
  H   H73       1.0  0.47219  0.97813  0.22437  1.0000
  H   H74       1.0  0.72991  0.80805  0.08437  1.0000
  H   H75       1.0  0.70088  0.88576  0.05053  1.0000
  H   H76       1.0  0.63767  0.8119500000000001  0.04172  1.0000
  H   H77       1.0  0.46394  0.8609200000000001  0.84832  1.0000
  H   H78       1.0  0.50759  0.9909  0.40297999999999995  1.0000
  H   H79       1.0  0.54783  0.05367  0.48534  1.0000
  H   H80       1.0  0.70016  0.0501  0.51716  1.0000
  H   H81       1.0  0.77121  0.9274200000000001  0.3834399999999999  1.0000
  H   H82       1.0  0.7838599999999998  0.8895400000000001  0.24191  1.0000
  H   H83       1.0  0.8823499999999997  0.9122900000000002  0.20887  1.0000
  H   H84       1.0  0.78991  0.8878400000000001  0.17199999999999996  1.0000
  H   H85       1.0  0.8987599999999998  0.5515400000000001  0.32514  1.0000
  H   H86       1.0  0.96956  0.48302  0.34042  1.0000
  H   H87       1.0  0.97178  0.52091  0.27582  1.0000
  H   H88       1.0  0.2293  0.69031  0.41602  1.0000
  H   H89       1.0  0.19987  0.61313  0.45051  1.0000
  H   H90       1.0  0.13634  0.68721  0.45818  1.0000
  H   H91       1.0  0.96464  0.6391900000000001  0.65068  1.0000
  H   H92       1.0  0.0085  0.50907  0.09814999999999999  1.0000
  H   H93       1.0  0.04788  0.44704000000000005  0.015279999999999998  1.0000
  H   H94       1.0  0.19995  0.45021  0.9829  1.0000
  H   H95       1.0  0.27207999999999993  0.57279  0.11635  1.0000
  H   H96       1.0  0.28428  0.6097300000000001  0.25776  1.0000
  H   H97       1.0  0.38248  0.58654  0.2909  1.0000
  H   H98       1.0  0.28998  0.61101  0.32771  1.0000
  H   H99       1.0  0.60172  0.4486700000000001  0.82531  1.0000
  H   H100      1.0  0.53086  0.51715  0.84065  1.0000
  H   H101      1.0  0.52884  0.47938  0.776  1.0000
  H   H102      1.0  0.2708299999999999  0.30901  0.91538  1.0000
  H   H103      1.0  0.29933  0.38645  0.9496899999999999  1.0000
  H   H104      1.0  0.36323999999999995  0.31277000000000005  0.9579  1.0000
  H   H105      1.0  0.53611  0.3608900000000001  0.15162  1.0000
  H   H106      1.0  0.4923099999999999  0.49112  0.59685  1.0000
  H   H107      1.0  0.45201  0.55384  0.51446  1.0000
  H   H108      1.0  0.29979  0.5502  0.4825  1.0000
  H   H109      1.0  0.22883  0.42765000000000003  0.61618  1.0000
  H   H110      1.0  0.21558  0.39068  0.7579699999999999  1.0000
  H   H111      1.0  0.11695  0.41332  0.79103  1.0000
  H   H112      1.0  0.20948  0.3889700000000001  0.8278899999999999  1.0000
  H   H113      1.0  0.16361  0.7489200000000003  0.20742999999999998  1.0000
  H   H114      1.0  0.95273  0.7501  0.69988  1.0000
  H   H115      1.0  0.0031999999999999997  0.7500600000000002  0.50617  1.0000
  H   H116      1.0  0.33917  0.25085  0.70636  1.0000
  H   H117      1.0  0.54861  0.24999  0.20074  1.0000
  H   H118      1.0  0.4960599999999999  0.24987000000000004  0.00732  1.0000
  H   H119      1.0  0.83639  0.25108  0.79257  1.0000
  H   H120      1.0  0.04727  0.2499  0.30012  1.0000
  H   H121      1.0  0.9968  0.24994000000000002  0.49382999999999994  1.0000
  H   H122      1.0  0.66082  0.74914  0.29364  1.0000
  H   H123      1.0  0.45139  0.75  0.79926  1.0000
  H   H124      1.0  0.50393  0.7501300000000001  0.99269  1.0000
  C   C1        1.0  0.96466  0.96779  0.31776  1.0000
  C   C2        1.0  0.030459999999999997  0.91765  0.33598999999999996  1.0000
  C   C3        1.0  0.12167  0.8623100000000001  0.3845  1.0000
  C   C4        1.0  0.17603  0.84051  0.4295999999999999  1.0000
  C   C5        1.0  0.99277  0.87991  0.54702  1.0000
  C   C6        1.0  0.98568  0.81255  0.57566  1.0000
  C   C7        1.0  0.97091  0.8121000000000002  0.63032  1.0000
  C   C8        1.0  0.11539  0.9146600000000001  0.16034  1.0000
  C   C9        1.0  0.13788999999999996  0.9552100000000001  0.11252999999999998  1.0000
  C   C10       1.0  0.07449  0.99096  0.08404  1.0000
  C   C11       1.0  0.09683  0.025440000000000008  0.03772  1.0000
  C   C12       1.0  0.18200999999999995  0.02419  0.01972  1.0000
  C   C13       1.0  0.24612  0.9895400000000001  0.04838  1.0000
  C   C14       1.0  0.22332  0.9550900000000001  0.09468  1.0000
  C   C15       1.0  0.33858  0.9893700000000001  0.030369999999999998  1.0000
  C   C16       1.0  0.32616  0.87779  0.29165  1.0000
  C   C17       1.0  0.35551  0.80527  0.28975  1.0000
  C   C18       1.0  0.53583  0.03198000000000001  0.8179199999999999  1.0000
  C   C19       1.0  0.46993  0.08215000000000003  0.83606  1.0000
  C   C20       1.0  0.3785  0.13804  0.8841  1.0000
  C   C21       1.0  0.32377  0.15988000000000005  0.9290899999999997  1.0000
  C   C22       1.0  0.50724  0.12005  0.04799  1.0000
  C   C23       1.0  0.51431  0.18742000000000006  0.07672  1.0000
  C   C24       1.0  0.52956  0.18792  0.13131  1.0000
  C   C25       1.0  0.3864  0.08501  0.6593499999999999  1.0000
  C   C26       1.0  0.3630499999999999  0.044680000000000004  0.6117  1.0000
  C   C27       1.0  0.42616  0.0088  0.583  1.0000
  C   C28       1.0  0.40331  0.97406  0.53693  1.0000
  C   C29       1.0  0.31803  0.9755300000000001  0.51924  1.0000
  C   C30       1.0  0.25434  0.01038  0.54806  1.0000
  C   C31       1.0  0.27745  0.04477  0.59433  1.0000
  C   C32       1.0  0.16191999999999995  0.010600000000000004  0.53033  1.0000
  C   C33       1.0  0.17348999999999995  0.12206000000000003  0.79172  1.0000
  C   C34       1.0  0.14432  0.1947  0.78957  1.0000
  C   C35       1.0  0.03612  0.46892  0.6818999999999998  1.0000
  C   C36       1.0  0.96983  0.4193100000000001  0.6637  1.0000
  C   C37       1.0  0.87849  0.3639500000000001  0.61541  1.0000
  C   C38       1.0  0.82446  0.34153000000000006  0.57042  1.0000
  C   C39       1.0  0.00725  0.3798  0.45296999999999993  1.0000
  C   C40       1.0  0.014329999999999997  0.31244  0.42435  1.0000
  C   C41       1.0  0.02911  0.31196  0.36969  1.0000
  C   C42       1.0  0.88456  0.4149800000000001  0.83979  1.0000
  C   C43       1.0  0.86208  0.45529  0.8877  1.0000
  C   C44       1.0  0.92538  0.4910800000000001  0.91617  1.0000
  C   C45       1.0  0.90298  0.52556  0.9624999999999999  1.0000
  C   C46       1.0  0.81786  0.52421  0.9805699999999999  1.0000
  C   C47       1.0  0.75391  0.4895000000000001  0.9519099999999999  1.0000
  C   C48       1.0  0.77671  0.45512  0.9055799999999999  1.0000
  C   C49       1.0  0.66157  0.4893000000000001  0.9699499999999998  1.0000
  C   C50       1.0  0.6732999999999998  0.3789600000000001  0.7085  1.0000
  C   C51       1.0  0.6441899999999998  0.3064100000000001  0.7103699999999998  1.0000
  C   C52       1.0  0.46337999999999996  0.53088  0.18172  1.0000
  C   C53       1.0  0.5297499999999998  0.58063  0.16377999999999998  1.0000
  C   C54       1.0  0.62131  0.63644  0.11593999999999999  1.0000
  C   C55       1.0  0.67571  0.65887  0.07103  1.0000
  C   C56       1.0  0.4927  0.6201900000000002  0.95203  1.0000
  C   C57       1.0  0.48561  0.6875300000000002  0.92333  1.0000
  C   C58       1.0  0.47036999999999995  0.68796  0.8687299999999998  1.0000
  C   C59       1.0  0.61334  0.58495  0.3409  1.0000
  C   C60       1.0  0.6368899999999997  0.5445700000000002  0.38853999999999994  1.0000
  C   C61       1.0  0.57391  0.5086300000000001  0.41722  1.0000
  C   C62       1.0  0.59678  0.4738900000000001  0.4633  1.0000
  C   C63       1.0  0.68199  0.47538  0.48107  1.0000
  C   C64       1.0  0.74555  0.51024  0.4522499999999999  1.0000
  C   C65       1.0  0.72244  0.54461  0.40597  1.0000
  C   C66       1.0  0.83792  0.5105700000000001  0.46994  1.0000
  C   C67       1.0  0.82701  0.62094  0.20841  1.0000
  C   C68       1.0  0.85589  0.6935700000000001  0.21055  1.0000
  C   C69       1.0  0.03533999999999999  0.03221  0.68224  1.0000
  C   C70       1.0  0.96953  0.08234000000000001  0.6640099999999998  1.0000
  C   C71       1.0  0.87832  0.13769000000000003  0.6155  1.0000
  C   C72       1.0  0.8239599999999998  0.15949  0.5704  1.0000
  C   C73       1.0  0.007229999999999999  0.1201  0.45299  1.0000
  C   C74       1.0  0.01431  0.18745  0.42434  1.0000
  C   C75       1.0  0.02908  0.1879  0.36968  1.0000
  C   C76       1.0  0.8846  0.08533  0.8396599999999999  1.0000
  C   C77       1.0  0.8621  0.04479  0.88747  1.0000
  C   C78       1.0  0.9255  0.00904  0.91597  1.0000
  C   C79       1.0  0.90316  0.9745500000000001  0.9622799999999999  1.0000
  C   C80       1.0  0.81799  0.97581  0.98029  1.0000
  C   C81       1.0  0.75388  0.01046  0.95162  1.0000
  C   C82       1.0  0.77668  0.04491  0.9053199999999998  1.0000
  C   C83       1.0  0.66142  0.010630000000000002  0.96964  1.0000
  C   C84       1.0  0.6738299999999998  0.12221  0.7083499999999999  1.0000
  C   C85       1.0  0.64448  0.19473000000000004  0.71025  1.0000
  C   C86       1.0  0.46416  0.96802  0.18208  1.0000
  C   C87       1.0  0.53007  0.91784  0.16394  1.0000
  C   C88       1.0  0.6215  0.8619600000000002  0.1159  1.0000
  C   C89       1.0  0.6762299999999998  0.84012  0.07091  1.0000
  C   C90       1.0  0.49275  0.87995  0.95201  1.0000
  C   C91       1.0  0.4856799999999999  0.81258  0.92328  1.0000
  C   C92       1.0  0.47044  0.8120800000000001  0.86869  1.0000
  C   C93       1.0  0.61359  0.91499  0.3406499999999999  1.0000
  C   C94       1.0  0.63695  0.9553200000000001  0.3883  1.0000
  C   C95       1.0  0.57384  0.9912000000000001  0.41701  1.0000
  C   C96       1.0  0.5966899999999998  0.02594  0.46307  1.0000
  C   C97       1.0  0.68196  0.024470000000000006  0.48076  1.0000
  C   C98       1.0  0.74565  0.98962  0.45194  1.0000
  C   C99       1.0  0.72255  0.9552300000000001  0.40568  1.0000
  C   C100      1.0  0.8380699999999998  0.9894  0.46968  1.0000
  C   C101      1.0  0.8265  0.8779400000000002  0.20828  1.0000
  C   C102      1.0  0.85568  0.8053  0.21042999999999998  1.0000
  C   C103      1.0  0.96387  0.5310800000000001  0.31811  1.0000
  C   C104      1.0  0.03016  0.5806900000000002  0.3363  1.0000
  C   C105      1.0  0.12151  0.6360500000000001  0.38459  1.0000
  C   C106      1.0  0.17552999999999994  0.6584700000000002  0.42958  1.0000
  C   C107      1.0  0.9927399999999997  0.6202  0.54704  1.0000
  C   C108      1.0  0.9856699999999998  0.6875600000000001  0.57565  1.0000
  C   C109      1.0  0.97089  0.68804  0.63031  1.0000
  C   C110      1.0  0.11544  0.58502  0.16020999999999996  1.0000
  C   C111      1.0  0.13791  0.54471  0.11229999999999997  1.0000
  C   C112      1.0  0.07461  0.50891  0.08383  1.0000
  C   C113      1.0  0.09701  0.47444  0.0375  1.0000
  C   C114      1.0  0.18213  0.47579  0.01944  1.0000
  C   C115      1.0  0.24609  0.5105  0.04809  1.0000
  C   C116      1.0  0.22329  0.54487  0.09443  1.0000
  C   C117      1.0  0.33843  0.5107000000000002  0.03005  1.0000
  C   C118      1.0  0.3266999999999999  0.6210400000000001  0.2915  1.0000
  C   C119      1.0  0.35581  0.6935900000000002  0.28963  1.0000
  C   C120      1.0  0.53662  0.46912  0.81828  1.0000
  C   C121      1.0  0.47025  0.41937  0.8362199999999999  1.0000
  C   C122      1.0  0.3786899999999999  0.36356  0.88406  1.0000
  C   C123      1.0  0.32429  0.34112  0.92898  1.0000
  C   C124      1.0  0.5073  0.37981  0.04796999999999999  1.0000
  C   C125      1.0  0.51438  0.31247  0.07668  1.0000
  C   C126      1.0  0.52963  0.31203  0.13127  1.0000
  C   C127      1.0  0.38666  0.41505000000000003  0.6591  1.0000
  C   C128      1.0  0.3630999999999999  0.45543  0.61146  1.0000
  C   C129      1.0  0.42609  0.49137  0.58278  1.0000
  C   C130      1.0  0.40322  0.52611  0.5367  1.0000
  C   C131      1.0  0.3179999999999999  0.5246200000000001  0.51893  1.0000
  C   C132      1.0  0.25445  0.48976  0.54775  1.0000
  C   C133      1.0  0.27755  0.45539  0.59403  1.0000
  C   C134      1.0  0.16207  0.48942  0.53007  1.0000
  C   C135      1.0  0.17299  0.37905000000000005  0.79159  1.0000
  C   C136      1.0  0.14411  0.30643  0.7894499999999999  1.0000
  C   C137      1.0  0.96395  0.7500800000000002  0.65751  1.0000
  C   C138      1.0  0.9930699999999998  0.75005  0.54859  1.0000
  C   C139      1.0  0.53674  0.24999  0.15845  1.0000
  C   C140      1.0  0.50663  0.24993  0.04969  1.0000
  C   C141      1.0  0.03604  0.24992  0.34248999999999996  1.0000
  C   C142      1.0  0.00692  0.24995000000000003  0.45141  1.0000
  C   C143      1.0  0.46326  0.75001  0.84155  1.0000
  C   C144      1.0  0.49337  0.7500600000000002  0.95031  1.0000
  N   N1        1.0  0.065  0.8685500000000003  0.30565  1.0000
  N   N2        1.0  0.12323  0.8332500000000002  0.33666  1.0000
  N   N3        1.0  0.06445  0.9150600000000001  0.38535999999999987  1.0000
  N   N4        1.0  0.43592  0.78499  0.27962  1.0000
  N   N5        1.0  0.4354999999999999  0.13093  0.80537  1.0000
  N   N6        1.0  0.37709  0.16667  0.83607  1.0000
  N   N7        1.0  0.43577  0.0853  0.88537  1.0000
  N   N8        1.0  0.06384  0.21511000000000002  0.77972  1.0000
  N   N9        1.0  0.9348  0.37074  0.69426  1.0000
  N   N10       1.0  0.87651  0.33548  0.6634199999999999  1.0000
  N   N11       1.0  0.9359699999999999  0.41636  0.61434  1.0000
  N   N12       1.0  0.5639299999999998  0.28593  0.72049  1.0000
  N   N13       1.0  0.56478  0.6287900000000002  0.19477999999999998  1.0000
  N   N14       1.0  0.62325  0.66441  0.16417  1.0000
  N   N15       1.0  0.56367  0.58411  0.11440999999999998  1.0000
  N   N16       1.0  0.93628  0.71397  0.22038999999999997  1.0000
  N   N17       1.0  0.93499  0.13145000000000004  0.69436  1.0000
  N   N18       1.0  0.87677  0.16675000000000004  0.66335  1.0000
  N   N19       1.0  0.93555  0.08494  0.61464  1.0000
  N   N20       1.0  0.56408  0.21500000000000005  0.72038  1.0000
  N   N21       1.0  0.5645  0.86907  0.19463  1.0000
  N   N22       1.0  0.6229  0.83333  0.16393  1.0000
  N   N23       1.0  0.56423  0.9147  0.11463  1.0000
  N   N24       1.0  0.9361599999999998  0.7848900000000001  0.22027999999999995  1.0000
  N   N25       1.0  0.06519  0.62926  0.30574  1.0000
  N   N26       1.0  0.12349  0.66452  0.33657999999999993  1.0000
  N   N27       1.0  0.06401999999999997  0.58364  0.38566  1.0000
  N   N28       1.0  0.43607  0.71406  0.27951  1.0000
  N   N29       1.0  0.43521  0.3712100000000001  0.80523  1.0000
  N   N30       1.0  0.37674  0.33559  0.83583  1.0000
  N   N31       1.0  0.43633  0.41589000000000004  0.8855899999999998  1.0000
  N   N32       1.0  0.06371  0.28603  0.77961  1.0000
  N   N33       1.0  0.30352  0.7493700000000002  0.29659  1.0000
  N   N34       1.0  0.19646  0.2506  0.7961399999999997  1.0000
  N   N35       1.0  0.69647  0.2506300000000001  0.70341  1.0000
  N   N36       1.0  0.8035299999999997  0.7494  0.20386  1.0000
  O   O1        1.0  0.01281  0.8784400000000002  0.49829  1.0000
  O   O2        1.0  0.97826  0.9339600000000001  0.57421  1.0000
  O   O3        1.0  0.39378999999999986  0.96184  0.06088999999999999  1.0000
  O   O4        1.0  0.35444  0.01747  0.986  1.0000
  O   O5        1.0  0.17259  0.88139  0.18533  1.0000
  O   O6        1.0  0.03486  0.9122700000000001  0.17466  1.0000
  O   O7        1.0  0.4850699999999999  0.12153000000000001  0.9996499999999999  1.0000
  O   O8        1.0  0.5238299999999998  0.06599000000000001  0.07467  1.0000
  O   O9        1.0  0.10747  0.03841000000000001  0.56121  1.0000
  O   O10       1.0  0.14527  0.9824500000000003  0.48609  1.0000
  O   O11       1.0  0.32993  0.11822000000000002  0.68515  1.0000
  O   O12       1.0  0.46727  0.08724  0.67288  1.0000
  O   O13       1.0  0.9872199999999999  0.37843  0.5017  1.0000
  O   O14       1.0  0.02172  0.43385000000000007  0.42581  1.0000
  O   O15       1.0  0.60635  0.4619500000000001  0.93938  1.0000
  O   O16       1.0  0.64575  0.51728  0.01443  1.0000
  O   O17       1.0  0.8275099999999997  0.3817200000000001  0.8147099999999999  1.0000
  O   O18       1.0  0.96509  0.4129000000000001  0.8254  1.0000
  O   O19       1.0  0.51495  0.6217  0.00039  1.0000
  O   O20       1.0  0.47615  0.5660400000000001  0.92553  1.0000
  O   O21       1.0  0.89229  0.5382900000000002  0.43901  1.0000
  O   O22       1.0  0.8546499999999998  0.48257000000000005  0.51423  1.0000
  O   O23       1.0  0.6697  0.6181000000000002  0.31499  1.0000
  O   O24       1.0  0.53252  0.58727  0.32749  1.0000
  O   O25       1.0  0.98719  0.12156  0.50171  1.0000
  O   O26       1.0  0.02174  0.06604  0.42578  1.0000
  O   O27       1.0  0.60621  0.03816  0.9391099999999999  1.0000
  O   O28       1.0  0.64555  0.9825200000000002  0.01401  1.0000
  O   O29       1.0  0.8274  0.11860000000000001  0.8146699999999999  1.0000
  O   O30       1.0  0.9651399999999998  0.08772000000000002  0.82534  1.0000
  O   O31       1.0  0.5149299999999998  0.8784700000000001  0.00035  1.0000
  O   O32       1.0  0.47617  0.93401  0.92534  1.0000
  O   O33       1.0  0.89253  0.96159  0.43879  1.0000
  O   O34       1.0  0.8547199999999999  0.01755  0.51391  1.0000
  O   O35       1.0  0.67007  0.8817700000000002  0.31485  1.0000
  O   O36       1.0  0.53273  0.91276  0.32712  1.0000
  O   O37       1.0  0.01278  0.62157  0.49829  1.0000
  O   O38       1.0  0.97828  0.56616  0.57419  1.0000
  O   O39       1.0  0.39365  0.53805  0.06063  1.0000
  O   O40       1.0  0.3542499999999999  0.48272  0.98558  1.0000
  O   O41       1.0  0.17248  0.6182800000000002  0.18529  1.0000
  O   O42       1.0  0.03491  0.5871  0.17459999999999998  1.0000
  O   O43       1.0  0.48505  0.3783  0.99961  1.0000
  O   O44       1.0  0.52384  0.43396  0.07447  1.0000
  O   O45       1.0  0.10771  0.4617100000000001  0.56098  1.0000
  O   O46       1.0  0.14533999999999994  0.5174300000000001  0.48576  1.0000
  O   O47       1.0  0.3303  0.3819000000000001  0.68501  1.0000
  O   O48       1.0  0.46748  0.41273  0.67252  1.0000
  O   O49       1.0  0.12044  0.74945  0.23536  1.0000
  O   O50       1.0  0.38148  0.25023000000000006  0.7347399999999997  1.0000
  O   O51       1.0  0.8795499999999998  0.25055  0.7646399999999998  1.0000
  O   O52       1.0  0.61852  0.7497700000000002  0.26526  1.0000
