data_image0
_chemical_formula_structural       Cd16H88C136N16O64
_chemical_formula_sum              "Cd16 H88 C136 N16 O64"
_cell_length_a       14.39352
_cell_length_b       17.69043
_cell_length_c       19.31387
_cell_angle_alpha    100.59082
_cell_angle_beta     90.02033999999999
_cell_angle_gamma    90.01855

_symmetry_space_group_name_H-M    'P 1'
_symmetry_Int_Tables_number       1

loop_
  _symmetry_equiv_pos_as_xyz
  'x,y,z'

loop_
  _atom_site_type_symbol
  _atom_site_label
  _atom_site_symmetry_multiplicity
  _atom_site_fract_x
  _atom_site_fract_y
  _atom_site_fract_z
  _atom_site_occupancy
  Cd  Cd1       1.0  0.20851000000000006  0.83217  0.5620500000000002  1.0000
  Cd  Cd2       1.0  0.20226000000000002  0.67247  0.36927  1.0000
  Cd  Cd3       1.0  0.13004  0.49415  0.99059  1.0000
  Cd  Cd4       1.0  0.28017  0.6038600000000002  0.17304  1.0000
  Cd  Cd5       1.0  0.20793  0.16840000000000005  0.9376600000000003  1.0000
  Cd  Cd6       1.0  0.20358000000000007  0.32702  0.13305  1.0000
  Cd  Cd7       1.0  0.13096  0.5077600000000001  0.5099500000000002  1.0000
  Cd  Cd8       1.0  0.28082  0.39624999999999994  0.3276  1.0000
  Cd  Cd9       1.0  0.7914900000000002  0.16783000000000003  0.4379500000000001  1.0000
  Cd  Cd10      1.0  0.7977300000000003  0.3275300000000001  0.63074  1.0000
  Cd  Cd11      1.0  0.8699600000000002  0.5058500000000002  0.00941  1.0000
  Cd  Cd12      1.0  0.71982  0.39614000000000016  0.8269600000000003  1.0000
  Cd  Cd13      1.0  0.7920700000000003  0.8316000000000002  0.06235  1.0000
  Cd  Cd14      1.0  0.7964200000000001  0.67298  0.8669500000000001  1.0000
  Cd  Cd15      1.0  0.86904  0.49224000000000007  0.49006000000000005  1.0000
  Cd  Cd16      1.0  0.7191800000000002  0.6037499999999999  0.67241  1.0000
  H   H1        1.0  0.036  0.93738  0.39305000000000007  1.0000
  H   H2        1.0  0.9613000000000003  0.9488300000000001  0.2778000000000001  1.0000
  H   H3        1.0  0.9443500000000002  0.70398  0.22325000000000003  1.0000
  H   H4        1.0  0.90127  0.6346800000000002  0.3990500000000001  1.0000
  H   H5        1.0  0.9587000000000002  0.7159500000000002  0.4458400000000001  1.0000
  H   H6        1.0  0.94342  0.60159  0.26248  1.0000
  H   H7        1.0  0.01957  0.55368  0.31244  1.0000
  H   H8        1.0  0.35313  0.6546500000000002  0.9099800000000002  1.0000
  H   H9        1.0  0.49056  0.7419600000000002  0.9233600000000001  1.0000
  H   H10       1.0  0.5650600000000002  0.66652  0.11396  1.0000
  H   H11       1.0  0.4791700000000001  0.4428700000000001  0.08306  1.0000
  H   H12       1.0  0.40275  0.47006000000000003  0.02166  1.0000
  H   H13       1.0  0.56945  0.56842  0.15501  1.0000
  H   H14       1.0  0.48987  0.51119  0.19117  1.0000
  H   H15       1.0  0.10155000000000003  0.7017700000000001  0.1121  1.0000
  H   H16       1.0  0.08026000000000001  0.8206500000000001  0.06177  1.0000
  H   H17       1.0  0.3724500000000001  0.8683500000000002  0.10289000000000002  1.0000
  H   H18       1.0  0.3788300000000001  0.75176  0.15772  1.0000
  H   H19       1.0  0.11582  0.88219  0.9660500000000001  1.0000
  H   H20       1.0  0.12343000000000003  0.9992000000000001  0.91108  1.0000
  H   H21       1.0  0.3213  0.10109000000000001  0.05306  1.0000
  H   H22       1.0  0.3225  0.98886  0.11542000000000001  1.0000
  H   H23       1.0  0.03571  0.06254  0.10724000000000003  1.0000
  H   H24       1.0  0.9601800000000003  0.05108  0.22214  1.0000
  H   H25       1.0  0.9432300000000002  0.29588  0.27672  1.0000
  H   H26       1.0  0.9033800000000002  0.3653800000000001  0.09986000000000003  1.0000
  H   H27       1.0  0.9617600000000002  0.28435  0.05346  1.0000
  H   H28       1.0  0.94235  0.3979300000000001  0.23708000000000004  1.0000
  H   H29       1.0  0.019150000000000004  0.44623  0.18776  1.0000
  H   H30       1.0  0.35234000000000004  0.3456500000000001  0.59057  1.0000
  H   H31       1.0  0.48953  0.25805  0.57767  1.0000
  H   H32       1.0  0.56521  0.3333400000000001  0.38718000000000014  1.0000
  H   H33       1.0  0.4782700000000001  0.55721  0.41670000000000007  1.0000
  H   H34       1.0  0.40399  0.5296200000000002  0.47923000000000004  1.0000
  H   H35       1.0  0.56958  0.43113999999999997  0.34562  1.0000
  H   H36       1.0  0.4901  0.48868  0.30956  1.0000
  H   H37       1.0  0.10215000000000003  0.29882  0.38819  1.0000
  H   H38       1.0  0.08038  0.17967  0.43828  1.0000
  H   H39       1.0  0.3723200000000001  0.13140000000000002  0.39687000000000006  1.0000
  H   H40       1.0  0.379  0.24801  0.34205000000000013  1.0000
  H   H41       1.0  0.11584000000000003  0.11792000000000001  0.53397  1.0000
  H   H42       1.0  0.12370000000000002  0.0009099999999999863  0.58892  1.0000
  H   H43       1.0  0.32101  0.89904  0.44661000000000006  1.0000
  H   H44       1.0  0.3218900000000001  0.011240000000000028  0.38418000000000013  1.0000
  H   H45       1.0  0.96399  0.06262000000000002  0.60696  1.0000
  H   H46       1.0  0.03869000000000001  0.051170000000000056  0.7222000000000002  1.0000
  H   H47       1.0  0.05564  0.29602  0.77676  1.0000
  H   H48       1.0  0.09873  0.36532  0.60096  1.0000
  H   H49       1.0  0.04130000000000001  0.28405  0.55416  1.0000
  H   H50       1.0  0.05658  0.39841  0.7375300000000002  1.0000
  H   H51       1.0  0.98043  0.44632000000000005  0.6875700000000001  1.0000
  H   H52       1.0  0.64687  0.34535  0.09003000000000003  1.0000
  H   H53       1.0  0.50943  0.25804  0.07664  1.0000
  H   H54       1.0  0.4349400000000001  0.33348  0.88605  1.0000
  H   H55       1.0  0.52082  0.55713  0.91694  1.0000
  H   H56       1.0  0.59725  0.5299400000000002  0.9783400000000001  1.0000
  H   H57       1.0  0.43055  0.43158000000000013  0.8449900000000001  1.0000
  H   H58       1.0  0.51013  0.4888100000000001  0.80883  1.0000
  H   H59       1.0  0.89845  0.29823  0.88791  1.0000
  H   H60       1.0  0.91973  0.1793500000000001  0.9382400000000002  1.0000
  H   H61       1.0  0.62754  0.13164  0.89711  1.0000
  H   H62       1.0  0.6211700000000002  0.24824000000000007  0.8422900000000002  1.0000
  H   H63       1.0  0.88418  0.11781  0.03396  1.0000
  H   H64       1.0  0.8765600000000002  0.0008000000000000051  0.08892000000000003  1.0000
  H   H65       1.0  0.6787  0.8989100000000003  0.9469500000000001  1.0000
  H   H66       1.0  0.6775000000000002  0.011140000000000004  0.88459  1.0000
  H   H67       1.0  0.9642900000000002  0.93746  0.89276  1.0000
  H   H68       1.0  0.03982  0.94892  0.77786  1.0000
  H   H69       1.0  0.056770000000000015  0.70412  0.7232900000000001  1.0000
  H   H70       1.0  0.09662  0.6346099999999999  0.90014  1.0000
  H   H71       1.0  0.03823  0.71565  0.9465400000000002  1.0000
  H   H72       1.0  0.05765  0.6020700000000001  0.7629200000000003  1.0000
  H   H73       1.0  0.98085  0.55377  0.81225  1.0000
  H   H74       1.0  0.64765  0.65435  0.40943000000000007  1.0000
  H   H75       1.0  0.51047  0.7419500000000002  0.42233000000000004  1.0000
  H   H76       1.0  0.43479  0.6666600000000003  0.6128200000000001  1.0000
  H   H77       1.0  0.52173  0.44279  0.5833  1.0000
  H   H78       1.0  0.5960000000000002  0.47038  0.52077  1.0000
  H   H79       1.0  0.43042  0.56886  0.65439  1.0000
  H   H80       1.0  0.5099  0.5113200000000001  0.69044  1.0000
  H   H81       1.0  0.89785  0.70118  0.6118100000000001  1.0000
  H   H82       1.0  0.91962  0.8203300000000002  0.5617300000000002  1.0000
  H   H83       1.0  0.62767  0.8685900000000002  0.6031300000000002  1.0000
  H   H84       1.0  0.621  0.7519899999999999  0.65795  1.0000
  H   H85       1.0  0.8841600000000002  0.8820800000000002  0.46604  1.0000
  H   H86       1.0  0.8763000000000002  0.99909  0.4110800000000001  1.0000
  H   H87       1.0  0.6789800000000003  0.10096000000000002  0.5534000000000001  1.0000
  H   H88       1.0  0.6781100000000002  0.9887600000000002  0.61583  1.0000
  C   C1        1.0  0.07745  0.8142100000000002  0.44281000000000004  1.0000
  C   C2        1.0  0.03142  0.8141  0.3734300000000001  1.0000
  C   C3        1.0  0.01569  0.8864000000000001  0.35543000000000013  1.0000
  C   C4        1.0  0.9757500000000001  0.89287  0.29119  1.0000
  C   C5        1.0  0.95179  0.8260400000000001  0.24375000000000002  1.0000
  C   C6        1.0  0.9043  0.8305600000000001  0.17544000000000007  1.0000
  C   C7        1.0  0.96625  0.7536200000000001  0.26156000000000007  1.0000
  C   C8        1.0  0.00448  0.74674  0.3266  1.0000
  C   C9        1.0  0.9706700000000003  0.66067  0.4103700000000001  1.0000
  C   C10       1.0  0.02594  0.61127  0.45204  1.0000
  C   C11       1.0  0.011200000000000002  0.60575  0.28923  1.0000
  C   C12       1.0  0.08875  0.60167  0.23471000000000006  1.0000
  C   C13       1.0  0.2907700000000001  0.5687500000000002  0.9969600000000001  1.0000
  C   C14       1.0  0.3798600000000001  0.6105100000000002  0.00487  1.0000
  C   C15       1.0  0.39902  0.6578700000000001  0.9552000000000002  1.0000
  C   C16       1.0  0.47456  0.7075100000000001  0.9629900000000001  1.0000
  C   C17       1.0  0.5326  0.71077  0.02174  1.0000
  C   C18       1.0  0.61798  0.7612700000000002  0.029410000000000002  1.0000
  C   C19       1.0  0.51619  0.6629000000000003  0.07063  1.0000
  C   C20       1.0  0.4425500000000001  0.61002  0.062480000000000015  1.0000
  C   C21       1.0  0.41611  0.47662000000000004  0.07824  1.0000
  C   C22       1.0  0.33771  0.43711  0.11071000000000002  1.0000
  C   C23       1.0  0.49651  0.56507  0.17096  1.0000
  C   C24       1.0  0.47655  0.6301000000000002  0.23483000000000004  1.0000
  C   C25       1.0  0.15978  0.7405300000000002  0.10942000000000002  1.0000
  C   C26       1.0  0.14852  0.8065500000000002  0.08043  1.0000
  C   C27       1.0  0.22558  0.85471  0.07705  1.0000
  C   C28       1.0  0.30996  0.83434  0.10519  1.0000
  C   C29       1.0  0.31479  0.76845  0.13453000000000004  1.0000
  C   C30       1.0  0.16323  0.9285800000000001  0.98706  1.0000
  C   C31       1.0  0.16654  0.99372  0.9562  1.0000
  C   C32       1.0  0.27756  0.050880000000000015  0.036120000000000006  1.0000
  C   C33       1.0  0.2781500000000001  0.9878  0.06966  1.0000
  C   C34       1.0  0.22109  0.9242  0.04473  1.0000
  C   C35       1.0  0.07761000000000003  0.18585  0.05747  1.0000
  C   C36       1.0  0.03138  0.18580000000000005  0.12681  1.0000
  C   C37       1.0  0.01529  0.11353000000000002  0.14476  1.0000
  C   C38       1.0  0.9748  0.10702000000000003  0.20880000000000007  1.0000
  C   C39       1.0  0.95049  0.17377  0.25619  1.0000
  C   C40       1.0  0.9024400000000001  0.16869  0.3242300000000001  1.0000
  C   C41       1.0  0.96535  0.24623000000000003  0.23849000000000004  1.0000
  C   C42       1.0  0.00429  0.25315  0.17364000000000002  1.0000
  C   C43       1.0  0.97297  0.3394600000000001  0.08941  1.0000
  C   C44       1.0  0.02989  0.3892600000000001  0.04919  1.0000
  C   C45       1.0  0.01055  0.39420999999999995  0.21101  1.0000
  C   C46       1.0  0.08693  0.39943  0.26656  1.0000
  C   C47       1.0  0.29055000000000003  0.4312000000000001  0.50319  1.0000
  C   C48       1.0  0.37947  0.38924000000000014  0.49551  1.0000
  C   C49       1.0  0.39838  0.3421900000000001  0.5454400000000001  1.0000
  C   C50       1.0  0.4738500000000001  0.29253  0.53801  1.0000
  C   C51       1.0  0.5322100000000001  0.28918  0.4794800000000001  1.0000
  C   C52       1.0  0.61755  0.23870000000000002  0.47226  1.0000
  C   C53       1.0  0.51617  0.3369100000000001  0.43037000000000003  1.0000
  C   C54       1.0  0.44249  0.3896700000000001  0.4381300000000001  1.0000
  C   C55       1.0  0.41586  0.52302  0.42248  1.0000
  C   C56       1.0  0.33623  0.56203  0.3909300000000001  1.0000
  C   C57       1.0  0.49665  0.43475000000000014  0.32973  1.0000
  C   C58       1.0  0.47666000000000003  0.36972000000000005  0.26585  1.0000
  C   C59       1.0  0.16009000000000007  0.25975  0.39064  1.0000
  C   C60       1.0  0.14862000000000003  0.1937000000000001  0.41956000000000004  1.0000
  C   C61       1.0  0.22551000000000002  0.14539000000000005  0.42281  1.0000
  C   C62       1.0  0.30994  0.16555  0.39462  1.0000
  C   C63       1.0  0.31497  0.23143000000000005  0.3652900000000001  1.0000
  C   C64       1.0  0.16318000000000005  0.07156000000000001  0.51285  1.0000
  C   C65       1.0  0.16663  0.006450000000000002  0.54373  1.0000
  C   C66       1.0  0.27736  0.9492700000000001  0.46358  1.0000
  C   C67       1.0  0.27776  0.012300000000000009  0.4300300000000001  1.0000
  C   C68       1.0  0.22086000000000006  0.0759  0.4551  1.0000
  C   C69       1.0  0.92255  0.18579000000000004  0.5571900000000001  1.0000
  C   C70       1.0  0.9685800000000002  0.18590000000000004  0.62657  1.0000
  C   C71       1.0  0.9843100000000002  0.11360000000000003  0.6445700000000001  1.0000
  C   C72       1.0  0.02425  0.10713  0.70882  1.0000
  C   C73       1.0  0.0482  0.17396000000000006  0.75625  1.0000
  C   C74       1.0  0.0957  0.16944000000000006  0.8245700000000001  1.0000
  C   C75       1.0  0.03374  0.24638000000000004  0.7384400000000002  1.0000
  C   C76       1.0  0.99551  0.25326  0.6734  1.0000
  C   C77       1.0  0.02933  0.33933  0.5896300000000001  1.0000
  C   C78       1.0  0.97405  0.38873000000000013  0.5479600000000001  1.0000
  C   C79       1.0  0.98879  0.39425000000000004  0.7107700000000002  1.0000
  C   C80       1.0  0.9112500000000002  0.3983300000000001  0.7652900000000001  1.0000
  C   C81       1.0  0.7092300000000002  0.4312400000000001  0.0030500000000000006  1.0000
  C   C82       1.0  0.62014  0.38949000000000017  0.9951400000000001  1.0000
  C   C83       1.0  0.60098  0.34213  0.044800000000000006  1.0000
  C   C84       1.0  0.52544  0.29249  0.03702  1.0000
  C   C85       1.0  0.4674  0.28923  0.97826  1.0000
  C   C86       1.0  0.3820200000000001  0.23873000000000003  0.9705900000000002  1.0000
  C   C87       1.0  0.48381  0.33709  0.9293700000000003  1.0000
  C   C88       1.0  0.55744  0.38998  0.93752  1.0000
  C   C89       1.0  0.5838800000000002  0.5233800000000002  0.92177  1.0000
  C   C90       1.0  0.6622800000000002  0.5628900000000001  0.8893000000000002  1.0000
  C   C91       1.0  0.50348  0.43493  0.82904  1.0000
  C   C92       1.0  0.52344  0.3699000000000001  0.76517  1.0000
  C   C93       1.0  0.84022  0.25947  0.89058  1.0000
  C   C94       1.0  0.85147  0.19345000000000007  0.91958  1.0000
  C   C95       1.0  0.77442  0.14529  0.9229500000000002  1.0000
  C   C96       1.0  0.6900400000000001  0.16566  0.89481  1.0000
  C   C97       1.0  0.6852  0.23155  0.86547  1.0000
  C   C98       1.0  0.83677  0.07142  0.01294  1.0000
  C   C99       1.0  0.8334600000000002  0.006279999999999999  0.0438  1.0000
  C   C100      1.0  0.72244  0.94912  0.96388  1.0000
  C   C101      1.0  0.7218500000000002  0.012199999999999999  0.93035  1.0000
  C   C102      1.0  0.7789000000000003  0.07580000000000002  0.95528  1.0000
  C   C103      1.0  0.9223900000000003  0.81415  0.9425400000000002  1.0000
  C   C104      1.0  0.9686200000000003  0.8142  0.8731900000000001  1.0000
  C   C105      1.0  0.98471  0.88647  0.85524  1.0000
  C   C106      1.0  0.0252  0.89297  0.7912  1.0000
  C   C107      1.0  0.04951  0.8262300000000002  0.74382  1.0000
  C   C108      1.0  0.09755  0.8313100000000001  0.6757700000000002  1.0000
  C   C109      1.0  0.03465  0.75377  0.76151  1.0000
  C   C110      1.0  0.99571  0.74685  0.8263600000000002  1.0000
  C   C111      1.0  0.02703  0.66054  0.91059  1.0000
  C   C112      1.0  0.97011  0.6107400000000002  0.95081  1.0000
  C   C113      1.0  0.98945  0.60579  0.7889900000000002  1.0000
  C   C114      1.0  0.91307  0.60057  0.73344  1.0000
  C   C115      1.0  0.7094500000000002  0.56881  0.4968200000000001  1.0000
  C   C116      1.0  0.62053  0.61076  0.5045000000000002  1.0000
  C   C117      1.0  0.60162  0.6578100000000002  0.4545600000000001  1.0000
  C   C118      1.0  0.52615  0.7074700000000002  0.4619900000000001  1.0000
  C   C119      1.0  0.46778  0.71082  0.52053  1.0000
  C   C120      1.0  0.38245  0.7613  0.5277400000000001  1.0000
  C   C121      1.0  0.48383  0.66309  0.56963  1.0000
  C   C122      1.0  0.5575  0.6103300000000002  0.56187  1.0000
  C   C123      1.0  0.58414  0.47698000000000007  0.57752  1.0000
  C   C124      1.0  0.66377  0.4379700000000001  0.6090700000000001  1.0000
  C   C125      1.0  0.50335  0.56525  0.67027  1.0000
  C   C126      1.0  0.52334  0.6302800000000002  0.73416  1.0000
  C   C127      1.0  0.8399  0.74025  0.60936  1.0000
  C   C128      1.0  0.85137  0.8062900000000001  0.5804400000000002  1.0000
  C   C129      1.0  0.77449  0.85461  0.5772  1.0000
  C   C130      1.0  0.69006  0.8344500000000002  0.60539  1.0000
  C   C131      1.0  0.6850300000000001  0.7685700000000002  0.63471  1.0000
  C   C132      1.0  0.8368200000000002  0.9284400000000002  0.48715  1.0000
  C   C133      1.0  0.83337  0.99355  0.45627  1.0000
  C   C134      1.0  0.7226400000000001  0.050730000000000004  0.53642  1.0000
  C   C135      1.0  0.72224  0.9877000000000002  0.56998  1.0000
  C   C136      1.0  0.77914  0.9241  0.54491  1.0000
  N   N1        1.0  0.018980000000000007  0.6728200000000001  0.34632  1.0000
  N   N2        1.0  0.4322000000000001  0.55785  0.11010000000000002  1.0000
  N   N3        1.0  0.24153  0.72119  0.13577  1.0000
  N   N4        1.0  0.22322  0.05362000000000001  0.97974  1.0000
  N   N5        1.0  0.01957  0.3271  0.15414  1.0000
  N   N6        1.0  0.4323800000000001  0.4419  0.39053  1.0000
  N   N7        1.0  0.24187  0.27884  0.36418  1.0000
  N   N8        1.0  0.22329  0.94661  0.52011  1.0000
  N   N9        1.0  0.9810200000000002  0.32718  0.6536800000000003  1.0000
  N   N10       1.0  0.56779  0.44215000000000004  0.88991  1.0000
  N   N11       1.0  0.7584600000000002  0.27881  0.86424  1.0000
  N   N12       1.0  0.7767800000000002  0.9463800000000001  0.020270000000000003  1.0000
  N   N13       1.0  0.98042  0.6729000000000003  0.84586  1.0000
  N   N14       1.0  0.56761  0.5581  0.60947  1.0000
  N   N15       1.0  0.7581300000000002  0.72116  0.63582  1.0000
  N   N16       1.0  0.7767000000000002  0.05339  0.4799  1.0000
  O   O1        1.0  0.1529  0.7735400000000001  0.44477  1.0000
  O   O2        1.0  0.04602  0.8559300000000002  0.49684000000000006  1.0000
  O   O3        1.0  0.87412  0.89577  0.16630000000000003  1.0000
  O   O4        1.0  0.8934300000000002  0.76822  0.13084  1.0000
  O   O5        1.0  0.11186000000000003  0.59896  0.44062  1.0000
  O   O6        1.0  0.9856300000000001  0.58164  0.5001100000000002  1.0000
  O   O7        1.0  0.16657000000000005  0.6360200000000001  0.25636  1.0000
  O   O8        1.0  0.07797000000000001  0.5645800000000002  0.17393000000000006  1.0000
  O   O9        1.0  0.25002  0.54907  0.93717  1.0000
  O   O10       1.0  0.24986  0.5528400000000001  0.05232000000000001  1.0000
  O   O11       1.0  0.63398  0.80221  0.9838800000000001  1.0000
  O   O12       1.0  0.67113  0.75786  0.08263000000000002  1.0000
  O   O13       1.0  0.29162  0.47009  0.16365  1.0000
  O   O14       1.0  0.32369000000000003  0.36748  0.08037  1.0000
  O   O15       1.0  0.39359  0.65986  0.2403  1.0000
  O   O16       1.0  0.54067  0.6468800000000002  0.27778000000000014  1.0000
  O   O17       1.0  0.1529  0.22681  0.055600000000000004  1.0000
  O   O18       1.0  0.0461  0.14424  0.0033300000000000005  1.0000
  O   O19       1.0  0.8743200000000002  0.10300000000000001  0.33367  1.0000
  O   O20       1.0  0.88931  0.23114000000000004  0.36836  1.0000
  O   O21       1.0  0.11529000000000003  0.40166  0.06213  1.0000
  O   O22       1.0  0.99078  0.4196600000000001  0.0006800000000000003  1.0000
  O   O23       1.0  0.16629000000000002  0.3673100000000001  0.24592000000000003  1.0000
  O   O24       1.0  0.0735  0.43573000000000006  0.32720000000000005  1.0000
  O   O25       1.0  0.24995  0.4512000000000001  0.56295  1.0000
  O   O26       1.0  0.24984  0.4471400000000001  0.44775  1.0000
  O   O27       1.0  0.6332900000000002  0.19745  0.51755  1.0000
  O   O28       1.0  0.6711  0.24240000000000003  0.41946  1.0000
  O   O29       1.0  0.29182  0.52997  0.33671  1.0000
  O   O30       1.0  0.31967000000000007  0.6305100000000002  0.42322000000000004  1.0000
  O   O31       1.0  0.39351000000000014  0.3402  0.2599  1.0000
  O   O32       1.0  0.54103  0.3527600000000002  0.22323000000000007  1.0000
  O   O33       1.0  0.8471  0.22646000000000002  0.55524  1.0000
  O   O34       1.0  0.9539800000000003  0.14407000000000006  0.50316  1.0000
  O   O35       1.0  0.12588  0.10422999999999998  0.8337  1.0000
  O   O36       1.0  0.10657  0.23178  0.8691600000000002  1.0000
  O   O37       1.0  0.8881300000000002  0.40104  0.55939  1.0000
  O   O38       1.0  0.014370000000000003  0.4183500000000001  0.4999  1.0000
  O   O39       1.0  0.8334300000000002  0.36398000000000014  0.74364  1.0000
  O   O40       1.0  0.9220300000000002  0.4354200000000001  0.82607  1.0000
  O   O41       1.0  0.7499800000000002  0.45093000000000005  0.06284  1.0000
  O   O42       1.0  0.75014  0.44715  0.94768  1.0000
  O   O43       1.0  0.3660100000000001  0.19779  0.016120000000000002  1.0000
  O   O44       1.0  0.3288700000000001  0.2421400000000001  0.9173800000000001  1.0000
  O   O45       1.0  0.7083700000000003  0.52991  0.83635  1.0000
  O   O46       1.0  0.6763100000000002  0.63252  0.91963  1.0000
  O   O47       1.0  0.60641  0.34013  0.7597  1.0000
  O   O48       1.0  0.45933  0.35312  0.72222  1.0000
  O   O49       1.0  0.8471  0.77319  0.9444100000000001  1.0000
  O   O50       1.0  0.9539000000000002  0.85576  0.99667  1.0000
  O   O51       1.0  0.12567  0.897  0.66633  1.0000
  O   O52       1.0  0.11069  0.7688599999999999  0.63165  1.0000
  O   O53       1.0  0.8847100000000002  0.59834  0.9378800000000003  1.0000
  O   O54       1.0  0.00922  0.58034  0.99933  1.0000
  O   O55       1.0  0.8337100000000002  0.63269  0.7540800000000001  1.0000
  O   O56       1.0  0.9265000000000002  0.5642700000000002  0.6728000000000002  1.0000
  O   O57       1.0  0.7500500000000002  0.5488000000000002  0.43705000000000005  1.0000
  O   O58       1.0  0.7501600000000003  0.55286  0.55225  1.0000
  O   O59       1.0  0.36671000000000004  0.8025500000000001  0.48246  1.0000
  O   O60       1.0  0.3289  0.7576000000000003  0.58054  1.0000
  O   O61       1.0  0.7081800000000001  0.47003  0.6633  1.0000
  O   O62       1.0  0.68033  0.36949000000000004  0.5767800000000002  1.0000
  O   O63       1.0  0.6064900000000001  0.6598  0.74011  1.0000
  O   O64       1.0  0.45897  0.64724  0.77679  1.0000
