data_image0
_chemical_formula_structural       Cu8H88C160O32
_chemical_formula_sum              "Cu8 H88 C160 O32"
_cell_length_a       18.41399
_cell_length_b       21.99773
_cell_length_c       21.99773
_cell_angle_alpha    79.89172
_cell_angle_beta     65.2395
_cell_angle_gamma    65.2395

_symmetry_space_group_name_H-M    'P 1'
_symmetry_Int_Tables_number       1

loop_
  _symmetry_equiv_pos_as_xyz
  'x,y,z'

loop_
  _atom_site_type_symbol
  _atom_site_label
  _atom_site_symmetry_multiplicity
  _atom_site_fract_x
  _atom_site_fract_y
  _atom_site_fract_z
  _atom_site_occupancy
  Cu  Cu1       1.0  0.83402  0.27304  0.27304  1.0000
  Cu  Cu2       1.0  0.79368  0.21523  0.21523  1.0000
  Cu  Cu3       1.0  0.37996999999999986  0.7268  0.72681  1.0000
  Cu  Cu4       1.0  0.22411999999999996  0.7849100000000002  0.78491  1.0000
  Cu  Cu5       1.0  0.8931999999999999  0.72676  0.27312  1.0000
  Cu  Cu6       1.0  0.99079  0.7849500000000003  0.21526  1.0000
  Cu  Cu7       1.0  0.8932  0.27312  0.72676  1.0000
  Cu  Cu8       1.0  0.99079  0.21526  0.78495  1.0000
  H   H1        1.0  0.03398000000000004  0.32159  0.11435  1.0000
  H   H2        1.0  0.13832  0.34607  0.00624  1.0000
  H   H3        1.0  0.048379999999999965  0.26581  0.8992100000000001  1.0000
  H   H4        1.0  0.9474300000000001  0.23907000000000003  0.007629999999999999  1.0000
  H   H5        1.0  0.19775999999999996  0.22915000000000002  0.83734  1.0000
  H   H6        1.0  0.33066000000000006  0.35575  0.71394  1.0000
  H   H7        1.0  0.14342999999999997  0.41634000000000004  0.91311  1.0000
  H   H8        1.0  0.11660000000000002  0.51623  0.8595799999999999  1.0000
  H   H9        1.0  0.13638999999999998  0.62288  0.84177  1.0000
  H   H10       1.0  0.40732000000000007  0.52204  0.72448  1.0000
  H   H11       1.0  0.3885799999999999  0.41391  0.74229  1.0000
  H   H12       1.0  0.4704999999999999  0.6783300000000001  0.8857099999999999  1.0000
  H   H13       1.0  0.49118000000000006  0.6533200000000001  0.99351  1.0000
  H   H14       1.0  0.21378000000000003  0.73346  0.10079  1.0000
  H   H15       1.0  0.19437000000000001  0.76088  0.9927100000000001  1.0000
  H   H16       1.0  0.2644899999999999  0.7705200000000002  0.16249  1.0000
  H   H17       1.0  0.40029  0.64441  0.28628  1.0000
  H   H18       1.0  0.47334  0.58294  0.08749  1.0000
  H   H19       1.0  0.49202  0.4840400000000001  0.14105  1.0000
  H   H20       1.0  0.6014600000000001  0.3770800000000001  0.15829  1.0000
  H   H21       1.0  0.65441  0.47744000000000003  0.27559  1.0000
  H   H22       1.0  0.5445400000000001  0.58592  0.2584  1.0000
  H   H23       1.0  0.033980000000000024  0.11435  0.32159  1.0000
  H   H24       1.0  0.13832  0.00624  0.34607  1.0000
  H   H25       1.0  0.048379999999999965  0.8992100000000001  0.26581  1.0000
  H   H26       1.0  0.9474300000000001  0.00763  0.23907  1.0000
  H   H27       1.0  0.19776  0.83734  0.22915  1.0000
  H   H28       1.0  0.33066  0.71394  0.35576  1.0000
  H   H29       1.0  0.1434299999999999  0.9131100000000001  0.41634  1.0000
  H   H30       1.0  0.11659999999999994  0.8595800000000001  0.51623  1.0000
  H   H31       1.0  0.1363899999999999  0.8417600000000001  0.62288  1.0000
  H   H32       1.0  0.40732  0.72448  0.52204  1.0000
  H   H33       1.0  0.3885799999999999  0.74229  0.41390999999999994  1.0000
  H   H34       1.0  0.4704999999999999  0.8857100000000001  0.67833  1.0000
  H   H35       1.0  0.49117999999999995  0.9935100000000002  0.65332  1.0000
  H   H36       1.0  0.21378000000000003  0.10079  0.73346  1.0000
  H   H37       1.0  0.19436999999999982  0.9927100000000001  0.76088  1.0000
  H   H38       1.0  0.26449  0.16249  0.77052  1.0000
  H   H39       1.0  0.40029000000000003  0.28628000000000003  0.64441  1.0000
  H   H40       1.0  0.47333999999999987  0.08749  0.58294  1.0000
  H   H41       1.0  0.49202  0.14105000000000004  0.48404  1.0000
  H   H42       1.0  0.6014600000000001  0.15829  0.37708  1.0000
  H   H43       1.0  0.65441  0.27559  0.47744  1.0000
  H   H44       1.0  0.5445400000000004  0.2584  0.58592  1.0000
  H   H45       1.0  0.6442499999999999  0.8854800000000002  0.32174  1.0000
  H   H46       1.0  0.5153200000000002  0.9934700000000001  0.34653  1.0000
  H   H47       1.0  0.68521  0.10079  0.26638  1.0000
  H   H48       1.0  0.8131100000000003  0.99252  0.23927  1.0000
  H   H49       1.0  0.5731  0.16246  0.22929  1.0000
  H   H50       1.0  0.31342  0.2861  0.35573  1.0000
  H   H51       1.0  0.43966999999999995  0.08712  0.41671  1.0000
  H   H52       1.0  0.36715  0.14054  0.51616  1.0000
  H   H53       1.0  0.24042000000000005  0.15822  0.62304  1.0000
  H   H54       1.0  0.07039000000000001  0.27544  0.52229  1.0000
  H   H55       1.0  0.1976600000000001  0.25778  0.41392999999999996  1.0000
  H   H56       1.0  0.85124  0.11426  0.67845  1.0000
  H   H57       1.0  0.85553  0.006300000000000001  0.65374  1.0000
  H   H58       1.0  0.05278999999999985  0.89939  0.73404  1.0000
  H   H59       1.0  0.04460999999999999  0.00765  0.76109  1.0000
  H   H60       1.0  0.9650400000000002  0.83736  0.77071  1.0000
  H   H61       1.0  0.9554299999999999  0.7138400000000001  0.64443  1.0000
  H   H62       1.0  0.9436300000000001  0.9128200000000002  0.58332  1.0000
  H   H63       1.0  0.02383999999999995  0.85907  0.48389  1.0000
  H   H64       1.0  0.021609999999999963  0.8415500000000001  0.3772  1.0000
  H   H65       1.0  0.86818  0.7242100000000001  0.4779  1.0000
  H   H66       1.0  0.8692199999999999  0.7417400000000002  0.58611  1.0000
  H   H67       1.0  0.6442500000000002  0.32174  0.88548  1.0000
  H   H68       1.0  0.5153299999999998  0.3465200000000001  0.99347  1.0000
  H   H69       1.0  0.6852100000000003  0.26638  0.10079  1.0000
  H   H70       1.0  0.8131100000000001  0.23926000000000003  0.99253  1.0000
  H   H71       1.0  0.5731  0.22929  0.16247  1.0000
  H   H72       1.0  0.31342  0.35573  0.28611  1.0000
  H   H73       1.0  0.43966999999999995  0.4167100000000001  0.08712  1.0000
  H   H74       1.0  0.3671500000000001  0.5161600000000001  0.14054  1.0000
  H   H75       1.0  0.24042  0.6230300000000002  0.15822  1.0000
  H   H76       1.0  0.07039000000000001  0.52229  0.27544  1.0000
  H   H77       1.0  0.19766000000000009  0.41393  0.25778  1.0000
  H   H78       1.0  0.8512400000000001  0.67845  0.11427  1.0000
  H   H79       1.0  0.8555300000000001  0.6537400000000001  0.0063  1.0000
  H   H80       1.0  0.05279000000000004  0.73404  0.89939  1.0000
  H   H81       1.0  0.044610000000000004  0.76109  0.00765  1.0000
  H   H82       1.0  0.9650399999999997  0.7707000000000002  0.83736  1.0000
  H   H83       1.0  0.9554299999999999  0.6444300000000001  0.71384  1.0000
  H   H84       1.0  0.9436300000000001  0.58332  0.91283  1.0000
  H   H85       1.0  0.02384  0.48389  0.85907  1.0000
  H   H86       1.0  0.02161000000000001  0.3772000000000001  0.84155  1.0000
  H   H87       1.0  0.8681799999999997  0.47790000000000005  0.72421  1.0000
  H   H88       1.0  0.86922  0.5861000000000001  0.74174  1.0000
  C   C1        1.0  0.9239400000000001  0.26353000000000004  0.13241  1.0000
  C   C2        1.0  0.98502  0.27848  0.06744  1.0000
  C   C3        1.0  0.03815999999999993  0.3095400000000001  0.06685  1.0000
  C   C4        1.0  0.09558000000000001  0.32366  0.00641  1.0000
  C   C5        1.0  0.10108999999999996  0.30728000000000005  0.9451399999999999  1.0000
  C   C6        1.0  0.04688999999999999  0.27679000000000004  0.9462  1.0000
  C   C7        1.0  0.9896000000000001  0.26237  0.006649999999999999  1.0000
  C   C8        1.0  0.1634  0.32135  0.88113  1.0000
  C   C9        1.0  0.20976999999999996  0.27481  0.8287300000000001  1.0000
  C   C10       1.0  0.27233000000000007  0.2847  0.76805  1.0000
  C   C11       1.0  0.2848400000000001  0.3448800000000001  0.7606  1.0000
  C   C12       1.0  0.23837  0.39304  0.81177  1.0000
  C   C13       1.0  0.17850999999999997  0.3802700000000001  0.87241  1.0000
  C   C14       1.0  0.25109000000000004  0.45674  0.80193  1.0000
  C   C15       1.0  0.18086000000000005  0.51651  0.83043  1.0000
  C   C16       1.0  0.19136000000000017  0.57695  0.8203999999999999  1.0000
  C   C17       1.0  0.27303  0.5793700000000002  0.78204  1.0000
  C   C18       1.0  0.3439700000000001  0.5200400000000001  0.75377  1.0000
  C   C19       1.0  0.33291  0.45970000000000005  0.76354  1.0000
  C   C20       1.0  0.28383  0.64423  0.77209  1.0000
  C   C21       1.0  0.3199199999999999  0.7367000000000001  0.86763  1.0000
  C   C22       1.0  0.3312800000000001  0.72154  0.9325299999999999  1.0000
  C   C23       1.0  0.41491999999999984  0.69031  0.93313  1.0000
  C   C24       1.0  0.42609  0.67587  0.9935399999999999  1.0000
  C   C25       1.0  0.35400000000000015  0.6921  0.05489  1.0000
  C   C26       1.0  0.27035  0.72264  0.05383  1.0000
  C   C27       1.0  0.25900000000000006  0.73743  0.99343  1.0000
  C   C28       1.0  0.36622  0.67816  0.11897000000000002  1.0000
  C   C29       1.0  0.3134999999999999  0.7248900000000003  0.17125  1.0000
  C   C30       1.0  0.3251099999999999  0.7152200000000002  0.23198  1.0000
  C   C31       1.0  0.3903  0.65511  0.23962000000000003  1.0000
  C   C32       1.0  0.44323000000000007  0.60679  0.18864  1.0000
  C   C33       1.0  0.4314500000000001  0.61928  0.12794  1.0000
  C   C34       1.0  0.50976  0.5431500000000001  0.19861  1.0000
  C   C35       1.0  0.52775  0.48348  0.17  1.0000
  C   C36       1.0  0.5889200000000001  0.4230400000000001  0.1797  1.0000
  C   C37       1.0  0.6347999999999999  0.4205900000000001  0.21790000000000004  1.0000
  C   C38       1.0  0.6180900000000001  0.47976  0.24641999999999997  1.0000
  C   C39       1.0  0.55619  0.54014  0.23697  1.0000
  C   C40       1.0  0.7006  0.35571000000000014  0.2276  1.0000
  C   C41       1.0  0.9239400000000001  0.13241000000000003  0.26353  1.0000
  C   C42       1.0  0.98502  0.06744  0.27848  1.0000
  C   C43       1.0  0.03816000000000002  0.06684  0.30954  1.0000
  C   C44       1.0  0.09558000000000001  0.006410000000000001  0.32366  1.0000
  C   C45       1.0  0.10109000000000001  0.94514  0.30729  1.0000
  C   C46       1.0  0.046890000000000036  0.9462  0.27679  1.0000
  C   C47       1.0  0.98961  0.00665  0.26237  1.0000
  C   C48       1.0  0.1634  0.8811300000000001  0.32135  1.0000
  C   C49       1.0  0.20976999999999998  0.8287300000000001  0.27481  1.0000
  C   C50       1.0  0.27232999999999996  0.7680500000000001  0.28471  1.0000
  C   C51       1.0  0.28484  0.7606  0.34488  1.0000
  C   C52       1.0  0.23836999999999994  0.8117700000000001  0.39304  1.0000
  C   C53       1.0  0.17851  0.8724  0.38028  1.0000
  C   C54       1.0  0.25109000000000004  0.8019300000000001  0.45674  1.0000
  C   C55       1.0  0.18086000000000013  0.83043  0.51652  1.0000
  C   C56       1.0  0.19136000000000006  0.8204  0.57695  1.0000
  C   C57       1.0  0.27303000000000005  0.78204  0.57937  1.0000
  C   C58       1.0  0.34397000000000005  0.7537700000000002  0.52005  1.0000
  C   C59       1.0  0.3329099999999999  0.7635400000000002  0.45971  1.0000
  C   C60       1.0  0.2838299999999999  0.77209  0.64424  1.0000
  C   C61       1.0  0.31992  0.8676300000000001  0.7367  1.0000
  C   C62       1.0  0.3312800000000003  0.93253  0.72154  1.0000
  C   C63       1.0  0.41492  0.93312  0.69031  1.0000
  C   C64       1.0  0.42608000000000007  0.99354  0.67588  1.0000
  C   C65       1.0  0.35401  0.05489000000000001  0.6921  1.0000
  C   C66       1.0  0.2703499999999999  0.05383000000000001  0.72264  1.0000
  C   C67       1.0  0.25899999999999995  0.9934300000000001  0.73743  1.0000
  C   C68       1.0  0.36623000000000017  0.11897  0.67816  1.0000
  C   C69       1.0  0.3135  0.17125000000000004  0.72489  1.0000
  C   C70       1.0  0.32511  0.23198  0.71522  1.0000
  C   C71       1.0  0.39030000000000004  0.23962000000000003  0.65511  1.0000
  C   C72       1.0  0.4432300000000002  0.18864  0.60679  1.0000
  C   C73       1.0  0.43145000000000006  0.12794000000000003  0.61928  1.0000
  C   C74       1.0  0.50976  0.19861000000000006  0.54315  1.0000
  C   C75       1.0  0.5277500000000002  0.17  0.48348  1.0000
  C   C76       1.0  0.5889200000000001  0.1797  0.42304  1.0000
  C   C77       1.0  0.6347999999999999  0.21790000000000004  0.4206  1.0000
  C   C78       1.0  0.6180900000000003  0.24641  0.4797699999999999  1.0000
  C   C79       1.0  0.55619  0.23697  0.54014  1.0000
  C   C80       1.0  0.7006000000000001  0.22760000000000002  0.35571  1.0000
  C   C81       1.0  0.8125600000000001  0.86767  0.26373  1.0000
  C   C82       1.0  0.7362800000000002  0.9325  0.27867  1.0000
  C   C83       1.0  0.65209  0.9330100000000001  0.30975  1.0000
  C   C84       1.0  0.58045  0.9934000000000002  0.32396  1.0000
  C   C85       1.0  0.5912200000000002  0.05472  0.3076  1.0000
  C   C86       1.0  0.6758900000000002  0.05374000000000001  0.27715  1.0000
  C   C87       1.0  0.74769  0.99336  0.26261  1.0000
  C   C88       1.0  0.51496  0.11880000000000002  0.32155  1.0000
  C   C89       1.0  0.51531  0.17117  0.27491  1.0000
  C   C90       1.0  0.44291  0.23191000000000003  0.28471  1.0000
  C   C91       1.0  0.3701700000000001  0.23947000000000002  0.34491  1.0000
  C   C92       1.0  0.36839999999999995  0.18840000000000007  0.39318  1.0000
  C   C93       1.0  0.44089  0.12769  0.3805  1.0000
  C   C94       1.0  0.29202000000000006  0.19827  0.4568999999999999  1.0000
  C   C95       1.0  0.30251  0.1697  0.51664  1.0000
  C   C96       1.0  0.23152  0.17961  0.57707  1.0000
  C   C97       1.0  0.14744000000000002  0.21790000000000004  0.57942  1.0000
  C   C98       1.0  0.13581999999999997  0.24624000000000001  0.52014  1.0000
  C   C99       1.0  0.20727000000000004  0.2366  0.45982  1.0000
  C   C100      1.0  0.07165000000000002  0.22780000000000006  0.64419  1.0000
  C   C101      1.0  0.9431300000000001  0.13247  0.73689  1.0000
  C   C102      1.0  0.9471100000000001  0.06754  0.72172  1.0000
  C   C103      1.0  0.89477  0.06686  0.6905  1.0000
  C   C104      1.0  0.89813  0.006380000000000001  0.67618  1.0000
  C   C105      1.0  0.9540600000000004  0.94508  0.69242  1.0000
  C   C106      1.0  0.0070599999999999465  0.94624  0.72302  1.0000
  C   C107      1.0  0.0034900000000000083  0.006720000000000001  0.7377  1.0000
  C   C108      1.0  0.9557700000000001  0.88105  0.67837  1.0000
  C   C109      1.0  0.9617300000000002  0.82871  0.72503  1.0000
  C   C110      1.0  0.9597399999999999  0.7680500000000001  0.71527  1.0000
  C   C111      1.0  0.9545900000000007  0.76052  0.65518  1.0000
  C   C112      1.0  0.94984  0.8116  0.60695  1.0000
  C   C113      1.0  0.9492499999999998  0.87223  0.61952  1.0000
  C   C114      1.0  0.94683  0.80162  0.54335  1.0000
  C   C115      1.0  0.98858  0.83009  0.48356  1.0000
  C   C116      1.0  0.9880500000000001  0.8201600000000001  0.42313  1.0000
  C   C117      1.0  0.94477  0.7818100000000002  0.42071  1.0000
  C   C118      1.0  0.9021900000000002  0.75348  0.48001000000000005  1.0000
  C   C119      1.0  0.9034700000000001  0.7631800000000001  0.54038  1.0000
  C   C120      1.0  0.9440899999999999  0.7717900000000002  0.35582  1.0000
  C   C121      1.0  0.81256  0.26373  0.86767  1.0000
  C   C122      1.0  0.7362900000000007  0.27866  0.9325099999999998  1.0000
  C   C123      1.0  0.6520900000000001  0.30974  0.9330099999999999  1.0000
  C   C124      1.0  0.5804500000000001  0.3239500000000001  0.9934  1.0000
  C   C125      1.0  0.5912200000000001  0.3076000000000001  0.05472  1.0000
  C   C126      1.0  0.6758900000000002  0.27715  0.053739999999999996  1.0000
  C   C127      1.0  0.7476899999999999  0.26261  0.9933599999999999  1.0000
  C   C128      1.0  0.51496  0.32154  0.11881  1.0000
  C   C129      1.0  0.51531  0.27491  0.17117  1.0000
  C   C130      1.0  0.44291  0.2847100000000001  0.23191000000000003  1.0000
  C   C131      1.0  0.37017000000000005  0.3449  0.23947  1.0000
  C   C132      1.0  0.36840000000000017  0.39318  0.1884  1.0000
  C   C133      1.0  0.44089  0.3805000000000001  0.1277  1.0000
  C   C134      1.0  0.29201999999999995  0.4569000000000001  0.19827  1.0000
  C   C135      1.0  0.30251  0.51664  0.1697  1.0000
  C   C136      1.0  0.2315199999999999  0.5770700000000001  0.17961  1.0000
  C   C137      1.0  0.14744000000000002  0.57942  0.21791  1.0000
  C   C138      1.0  0.13582000000000002  0.52014  0.24623999999999996  1.0000
  C   C139      1.0  0.20727000000000007  0.45982  0.2366  1.0000
  C   C140      1.0  0.07164999999999999  0.6441900000000002  0.22781000000000004  1.0000
  C   C141      1.0  0.9431300000000001  0.73689  0.13248  1.0000
  C   C142      1.0  0.9471100000000001  0.72172  0.06755  1.0000
  C   C143      1.0  0.89477  0.6905000000000002  0.06686  1.0000
  C   C144      1.0  0.89813  0.6761800000000001  0.006380000000000001  1.0000
  C   C145      1.0  0.95406  0.69242  0.94508  1.0000
  C   C146      1.0  0.007060000000000043  0.72302  0.9462399999999999  1.0000
  C   C147      1.0  0.0034899999999999753  0.7377  0.00672  1.0000
  C   C148      1.0  0.9557699999999999  0.6783700000000003  0.88105  1.0000
  C   C149      1.0  0.9617299999999998  0.7250200000000001  0.8287099999999998  1.0000
  C   C150      1.0  0.95974  0.71527  0.76805  1.0000
  C   C151      1.0  0.9545900000000002  0.65518  0.76052  1.0000
  C   C152      1.0  0.94984  0.60694  0.8115999999999999  1.0000
  C   C153      1.0  0.9492499999999998  0.61951  0.87223  1.0000
  C   C154      1.0  0.94683  0.54335  0.80162  1.0000
  C   C155      1.0  0.98858  0.48356  0.8300899999999999  1.0000
  C   C156      1.0  0.9880499999999997  0.42313000000000006  0.8201700000000001  1.0000
  C   C157      1.0  0.94477  0.42071000000000003  0.78181  1.0000
  C   C158      1.0  0.9021900000000002  0.48001  0.75348  1.0000
  C   C159      1.0  0.9034700000000003  0.54038  0.76318  1.0000
  C   C160      1.0  0.9440900000000001  0.35582  0.7718  1.0000
  O   O1        1.0  0.8807900000000001  0.23119000000000003  0.13068  1.0000
  O   O2        1.0  0.9190800000000001  0.28448000000000007  0.1854  1.0000
  O   O3        1.0  0.21501000000000012  0.69697  0.7959  1.0000
  O   O4        1.0  0.3610500000000003  0.64263  0.74077  1.0000
  O   O5        1.0  0.24272999999999995  0.76963  0.86948  1.0000
  O   O6        1.0  0.38874  0.71517  0.81452  1.0000
  O   O7        1.0  0.7077200000000001  0.30305000000000004  0.20415000000000003  1.0000
  O   O8        1.0  0.7454600000000001  0.35722000000000004  0.25843  1.0000
  O   O9        1.0  0.8807899999999999  0.13068000000000002  0.23119  1.0000
  O   O10       1.0  0.9190800000000001  0.18539000000000003  0.28448  1.0000
  O   O11       1.0  0.21501000000000017  0.7959  0.69697  1.0000
  O   O12       1.0  0.3610500000000001  0.74077  0.64263  1.0000
  O   O13       1.0  0.24272999999999997  0.86948  0.76963  1.0000
  O   O14       1.0  0.3887400000000001  0.81452  0.71518  1.0000
  O   O15       1.0  0.7077200000000001  0.20415  0.30305  1.0000
  O   O16       1.0  0.7454600000000001  0.25843  0.35722  1.0000
  O   O17       1.0  0.8879100000000001  0.8696  0.23116  1.0000
  O   O18       1.0  0.7968500000000001  0.81454  0.28493  1.0000
  O   O19       1.0  0.08758999999999997  0.20485000000000006  0.69709  1.0000
  O   O20       1.0  0.99607  0.25826000000000005  0.64242  1.0000
  O   O21       1.0  0.9875300000000002  0.13070000000000004  0.76968  1.0000
  O   O22       1.0  0.8955600000000001  0.18552  0.71553  1.0000
  O   O23       1.0  0.98865  0.79607  0.30324  1.0000
  O   O24       1.0  0.8988899999999997  0.7399000000000001  0.35726  1.0000
  O   O25       1.0  0.8879200000000005  0.23116000000000006  0.8696  1.0000
  O   O26       1.0  0.79685  0.28493  0.81454  1.0000
  O   O27       1.0  0.08758999999999999  0.6970900000000001  0.20485  1.0000
  O   O28       1.0  0.99607  0.6424200000000001  0.25827  1.0000
  O   O29       1.0  0.9875300000000002  0.7696800000000003  0.1307  1.0000
  O   O30       1.0  0.8955600000000001  0.7155300000000001  0.18552  1.0000
  O   O31       1.0  0.98865  0.30324  0.79607  1.0000
  O   O32       1.0  0.8988899999999997  0.35726000000000013  0.7399  1.0000
