data_image0
_chemical_formula_structural       Cu12H136C192N8O48
_chemical_formula_sum              "Cu12 H136 C192 N8 O48"
_cell_length_a       19.44114
_cell_length_b       19.44907
_cell_length_c       33.7963
_cell_angle_alpha    73.36662
_cell_angle_beta     73.35508
_cell_angle_gamma    89.98966999999999

_symmetry_space_group_name_H-M    'P 1'
_symmetry_Int_Tables_number       1

loop_
  _symmetry_equiv_pos_as_xyz
  'x,y,z'

loop_
  _atom_site_type_symbol
  _atom_site_label
  _atom_site_symmetry_multiplicity
  _atom_site_fract_x
  _atom_site_fract_y
  _atom_site_fract_z
  _atom_site_occupancy
  Cu  Cu1       1.0  0.9974099999999998  0.5647  0.50448  1.0000
  Cu  Cu2       1.0  0.99743  0.9308199999999999  0.50435  1.0000
  Cu  Cu3       1.0  0.4307  0.49742000000000003  0.004420000000000002  1.0000
  Cu  Cu4       1.0  0.06477  0.49734  0.00449  1.0000
  Cu  Cu5       1.0  0.002589999999999967  0.4353000000000001  0.4955200000000001  1.0000
  Cu  Cu6       1.0  0.0025700000000000154  0.06918  0.49565  1.0000
  Cu  Cu7       1.0  0.9352299999999999  0.5026699999999998  0.99551  1.0000
  Cu  Cu8       1.0  0.56931  0.5025899999999999  0.99558  1.0000
  Cu  Cu9       1.0  0.6055  0.8548100000000001  0.28961  1.0000
  Cu  Cu10      1.0  0.3547499999999999  0.10525999999999992  0.7896300000000003  1.0000
  Cu  Cu11      1.0  0.3945  0.14519  0.71039  1.0000
  Cu  Cu12      1.0  0.64525  0.8947400000000001  0.21037  1.0000
  H   H1        1.0  0.19557  0.46364  0.38628  1.0000
  H   H2        1.0  0.30233999999999994  0.5099900000000002  0.32097  1.0000
  H   H3        1.0  0.29527999999999993  0.7184700000000002  0.34184  1.0000
  H   H4        1.0  0.18951  0.67062  0.40741  1.0000
  H   H5        1.0  0.4176  0.7122400000000001  0.3166800000000001  1.0000
  H   H6        1.0  0.03131999999999999  0.65835  0.56119  1.0000
  H   H7        1.0  0.10128000000000001  0.6827600000000001  0.51176  1.0000
  H   H8        1.0  0.9823899999999999  0.7163199999999998  0.4443700000000001  1.0000
  H   H9        1.0  0.9184799999999997  0.15025  0.38651  1.0000
  H   H10       1.0  0.8768999999999998  0.16928999999999997  0.32113000000000014  1.0000
  H   H11       1.0  0.8629099999999998  0.9401  0.3416500000000001  1.0000
  H   H12       1.0  0.9031700000000003  0.92228  0.40728  1.0000
  H   H13       1.0  0.7661599999999997  0.9715000000000001  0.3162  1.0000
  H   H14       1.0  0.9077199999999999  0.7808499999999999  0.56107  1.0000
  H   H15       1.0  0.8869600000000002  0.8055500000000002  0.51164  1.0000
  H   H16       1.0  0.07304999999999992  0.8389000000000001  0.4443700000000001  1.0000
  H   H17       1.0  0.65012  0.6952199999999998  0.8863900000000002  1.0000
  H   H18       1.0  0.6692099999999996  0.8021000000000001  0.8210800000000003  1.0000
  H   H19       1.0  0.43996000000000013  0.7955900000000002  0.84157  1.0000
  H   H20       1.0  0.42219  0.68969  0.90716  1.0000
  H   H21       1.0  0.47115999999999997  0.9174299999999997  0.81648  1.0000
  H   H22       1.0  0.28077  0.53128  0.06114  1.0000
  H   H23       1.0  0.30547  0.6013000000000001  0.01174  1.0000
  H   H24       1.0  0.33893  0.48244000000000004  0.94432  1.0000
  H   H25       1.0  0.96336  0.41831999999999997  0.8864800000000003  1.0000
  H   H26       1.0  0.009719999999999956  0.37680000000000013  0.8211  1.0000
  H   H27       1.0  0.21828000000000003  0.36293000000000003  0.8419  1.0000
  H   H28       1.0  0.17053999999999986  0.40307999999999994  0.9075400000000002  1.0000
  H   H29       1.0  0.21225  0.26589  0.81645  1.0000
  H   H30       1.0  0.15837999999999997  0.40765  0.061120000000000015  1.0000
  H   H31       1.0  0.18286999999999998  0.387  0.01165  1.0000
  H   H32       1.0  0.21623999999999996  0.5730200000000001  0.94444  1.0000
  H   H33       1.0  0.08159999999999985  0.5366599999999999  0.6136500000000003  1.0000
  H   H34       1.0  0.12333999999999985  0.4902999999999999  0.6789600000000002  1.0000
  H   H35       1.0  0.13716999999999993  0.28181  0.65808  1.0000
  H   H36       1.0  0.09679999999999997  0.32969000000000004  0.59248  1.0000
  H   H37       1.0  0.2339499999999999  0.28777  0.68351  1.0000
  H   H38       1.0  0.09236999999999992  0.3416  0.4388700000000001  1.0000
  H   H39       1.0  0.11303999999999996  0.31714  0.48834  1.0000
  H   H40       1.0  0.9269699999999997  0.28378  0.55556  1.0000
  H   H41       1.0  0.8047099999999997  0.84998  0.61355  1.0000
  H   H42       1.0  0.6980399999999999  0.8309400000000001  0.6789000000000002  1.0000
  H   H43       1.0  0.70445  0.06002999999999998  0.65847  1.0000
  H   H44       1.0  0.81014  0.07792999999999989  0.5928700000000002  1.0000
  H   H45       1.0  0.5822399999999999  0.02872  0.68365  1.0000
  H   H46       1.0  0.9687399999999999  0.21922  0.4388700000000001  1.0000
  H   H47       1.0  0.8986799999999999  0.19455  0.48827  1.0000
  H   H48       1.0  0.017570000000000034  0.1611  0.55568  1.0000
  H   H49       1.0  0.036339999999999976  0.30468  0.11366000000000002  1.0000
  H   H50       1.0  0.9902  0.19772999999999996  0.17894000000000004  1.0000
  H   H51       1.0  0.7815499999999999  0.20465  0.15815000000000007  1.0000
  H   H52       1.0  0.82931  0.31055  0.0926  1.0000
  H   H53       1.0  0.7877799999999999  0.08265  0.18333  1.0000
  H   H54       1.0  0.8416799999999997  0.46867999999999993  0.9388100000000003  1.0000
  H   H55       1.0  0.81725  0.39874999999999994  0.98824  1.0000
  H   H56       1.0  0.7836699999999998  0.51759  0.05563  1.0000
  H   H57       1.0  0.3496799999999999  0.58164  0.11351  1.0000
  H   H58       1.0  0.33071  0.6230799999999999  0.17892  1.0000
  H   H59       1.0  0.5599400000000001  0.63701  0.15835  1.0000
  H   H60       1.0  0.57777  0.59693  0.09267  1.0000
  H   H61       1.0  0.52871  0.73389  0.18378  1.0000
  H   H62       1.0  0.7191699999999998  0.59228  0.9389300000000003  1.0000
  H   H63       1.0  0.6944699999999999  0.6130300000000001  0.98837  1.0000
  H   H64       1.0  0.66108  0.42696  0.05561  1.0000
  H   H65       1.0  0.8044399999999999  0.5363700000000002  0.61372  1.0000
  H   H66       1.0  0.69766  0.49000999999999995  0.6790200000000002  1.0000
  H   H67       1.0  0.7047199999999998  0.28152999999999995  0.6581500000000002  1.0000
  H   H68       1.0  0.8104899999999998  0.32937999999999995  0.5925900000000002  1.0000
  H   H69       1.0  0.5824  0.28776999999999997  0.68332  1.0000
  H   H70       1.0  0.9686799999999995  0.34165  0.4388100000000001  1.0000
  H   H71       1.0  0.89873  0.31723999999999997  0.48824  1.0000
  H   H72       1.0  0.017609999999999994  0.28369  0.55563  1.0000
  H   H73       1.0  0.08152  0.84975  0.61349  1.0000
  H   H74       1.0  0.12309999999999988  0.8307099999999998  0.6788700000000002  1.0000
  H   H75       1.0  0.13709  0.05989999999999999  0.65835  1.0000
  H   H76       1.0  0.09683999999999998  0.07772000000000001  0.59272  1.0000
  H   H77       1.0  0.23384999999999997  0.02850999999999998  0.6838  1.0000
  H   H78       1.0  0.09227999999999996  0.21914999999999998  0.4389300000000001  1.0000
  H   H79       1.0  0.11303999999999999  0.19446000000000002  0.48836  1.0000
  H   H80       1.0  0.92695  0.16110999999999998  0.55563  1.0000
  H   H81       1.0  0.34988  0.30478999999999995  0.11361000000000003  1.0000
  H   H82       1.0  0.33079  0.1979  0.17892  1.0000
  H   H83       1.0  0.56005  0.20440999999999998  0.15843  1.0000
  H   H84       1.0  0.57781  0.31031  0.09284000000000003  1.0000
  H   H85       1.0  0.52885  0.08258000000000001  0.18352  1.0000
  H   H86       1.0  0.71924  0.46873000000000004  0.93886  1.0000
  H   H87       1.0  0.6945399999999998  0.3987099999999999  0.9882600000000002  1.0000
  H   H88       1.0  0.66108  0.51756  0.055680000000000014  1.0000
  H   H89       1.0  0.03663999999999999  0.58168  0.11352  1.0000
  H   H90       1.0  0.9902799999999999  0.6232  0.1789  1.0000
  H   H91       1.0  0.78172  0.63707  0.1581  1.0000
  H   H92       1.0  0.82946  0.59693  0.09246  1.0000
  H   H93       1.0  0.7877499999999998  0.73411  0.18355  1.0000
  H   H94       1.0  0.8416199999999998  0.59236  0.93888  1.0000
  H   H95       1.0  0.8171399999999998  0.6130099999999999  0.9883500000000002  1.0000
  H   H96       1.0  0.78376  0.42698  0.05556000000000001  1.0000
  H   H97       1.0  0.9184  0.4633499999999998  0.38635000000000014  1.0000
  H   H98       1.0  0.8766599999999998  0.5097  0.32103  1.0000
  H   H99       1.0  0.8628399999999998  0.7181999999999998  0.34192  1.0000
  H   H100      1.0  0.9031999999999999  0.6703200000000002  0.40752  1.0000
  H   H101      1.0  0.76605  0.71223  0.31649  1.0000
  H   H102      1.0  0.9076299999999999  0.6584000000000002  0.56113  1.0000
  H   H103      1.0  0.88696  0.6828600000000002  0.51166  1.0000
  H   H104      1.0  0.07303  0.7162300000000001  0.44444  1.0000
  H   H105      1.0  0.19529999999999995  0.15003  0.38645  1.0000
  H   H106      1.0  0.30196000000000006  0.16906  0.3211  1.0000
  H   H107      1.0  0.2955499999999999  0.93997  0.3415300000000001  1.0000
  H   H108      1.0  0.18986999999999996  0.9220699999999998  0.4071300000000001  1.0000
  H   H109      1.0  0.41776  0.97128  0.31635  1.0000
  H   H110      1.0  0.03125999999999997  0.78078  0.56113  1.0000
  H   H111      1.0  0.10131999999999995  0.8054599999999998  0.51173  1.0000
  H   H112      1.0  0.98244  0.8388999999999999  0.4443100000000001  1.0000
  H   H113      1.0  0.9636599999999999  0.69533  0.88634  1.0000
  H   H114      1.0  0.009810000000000027  0.80227  0.82106  1.0000
  H   H115      1.0  0.21845  0.7953500000000001  0.84185  1.0000
  H   H116      1.0  0.17069  0.68946  0.9074  1.0000
  H   H117      1.0  0.21222000000000002  0.91736  0.81667  1.0000
  H   H118      1.0  0.15833  0.53132  0.06119  1.0000
  H   H119      1.0  0.18276  0.60126  0.01176  1.0000
  H   H120      1.0  0.2163399999999999  0.48242  0.9443700000000003  1.0000
  H   H121      1.0  0.6503199999999998  0.4183600000000001  0.88649  1.0000
  H   H122      1.0  0.6692899999999998  0.3769299999999999  0.8210800000000003  1.0000
  H   H123      1.0  0.44006999999999985  0.36299999999999993  0.8416500000000002  1.0000
  H   H124      1.0  0.4222299999999999  0.40307999999999977  0.9073300000000002  1.0000
  H   H125      1.0  0.47128999999999993  0.2661199999999999  0.8162200000000002  1.0000
  H   H126      1.0  0.28084  0.40772  0.06107  1.0000
  H   H127      1.0  0.30554  0.38697  0.01163  1.0000
  H   H128      1.0  0.33891999999999983  0.5730500000000001  0.94439  1.0000
  H   H129      1.0  0.33714  0.58721  0.25004  1.0000
  H   H130      1.0  0.9129799999999998  0.16295  0.24995  1.0000
  H   H131      1.0  0.66287  0.83719  0.75  1.0000
  H   H132      1.0  0.08707000000000004  0.4129300000000001  0.75003  1.0000
  H   H133      1.0  0.6628699999999997  0.4127999999999999  0.7499600000000002  1.0000
  H   H134      1.0  0.08701999999999993  0.8370499999999997  0.7500500000000002  1.0000
  H   H135      1.0  0.33714  0.16282000000000002  0.25  1.0000
  H   H136      1.0  0.91294  0.58707  0.24997  1.0000
  C   C1        1.0  0.12091999999999999  0.5377  0.43915  1.0000
  C   C2        1.0  0.1862999999999999  0.56435  0.40084  1.0000
  C   C3        1.0  0.21807999999999994  0.51927  0.3761700000000001  1.0000
  C   C4        1.0  0.27734  0.54562  0.33954  1.0000
  C   C5        1.0  0.30635  0.61767  0.3267  1.0000
  C   C6        1.0  0.2743099999999999  0.6623200000000001  0.35181  1.0000
  C   C7        1.0  0.21507000000000004  0.6361000000000002  0.38828  1.0000
  C   C8        1.0  0.36863  0.6472100000000002  0.2877  1.0000
  C   C9        1.0  0.42072  0.69725  0.28763000000000005  1.0000
  C   C10       1.0  0.04793999999999994  0.6958899999999999  0.52831  1.0000
  C   C11       1.0  0.9403999999999999  0.0235  0.43923  1.0000
  C   C12       1.0  0.9131299999999999  0.03512000000000001  0.4009  1.0000
  C   C13       1.0  0.90601  0.10479000000000002  0.3763  1.0000
  C   C14       1.0  0.8833400000000001  0.11510000000000001  0.3396  1.0000
  C   C15       1.0  0.8671000000000002  0.05599  0.32662  1.0000
  C   C16       1.0  0.8740099999999995  0.9862599999999999  0.3516900000000001  1.0000
  C   C17       1.0  0.8967999999999997  0.9759700000000001  0.38823000000000013  1.0000
  C   C18       1.0  0.84384  0.06548000000000001  0.28752  1.0000
  C   C19       1.0  0.79203  0.0155  0.28724  1.0000
  C   C20       1.0  0.9237999999999998  0.77596  0.52821  1.0000
  C   C21       1.0  0.52354  0.6208800000000001  0.93904  1.0000
  C   C22       1.0  0.53501  0.6862299999999999  0.9007  1.0000
  C   C23       1.0  0.6047099999999996  0.71792  0.87613  1.0000
  C   C24       1.0  0.6149999999999998  0.7772299999999998  0.8395100000000002  1.0000
  C   C25       1.0  0.5558199999999999  0.8063699999999999  0.8265800000000002  1.0000
  C   C26       1.0  0.48609000000000013  0.77443  0.85162  1.0000
  C   C27       1.0  0.4758399999999999  0.7151399999999999  0.8880700000000002  1.0000
  C   C28       1.0  0.5651800000000001  0.86866  0.78756  1.0000
  C   C29       1.0  0.51515  0.92073  0.78744  1.0000
  C   C30       1.0  0.27593  0.54795  0.028270000000000007  1.0000
  C   C31       1.0  0.03750999999999989  0.4402699999999999  0.9393600000000002  1.0000
  C   C32       1.0  0.06409  0.41302999999999995  0.90104  1.0000
  C   C33       1.0  0.019019999999999978  0.40586999999999995  0.87636  1.0000
  C   C34       1.0  0.045389999999999944  0.38323999999999997  0.8396600000000002  1.0000
  C   C35       1.0  0.11746000000000005  0.36706  0.82675  1.0000
  C   C36       1.0  0.1621  0.37395999999999996  0.8519  1.0000
  C   C37       1.0  0.13589000000000004  0.39671  0.88845  1.0000
  C   C38       1.0  0.14706000000000005  0.34383  0.78766  1.0000
  C   C39       1.0  0.19716999999999993  0.2918699999999999  0.7874600000000003  1.0000
  C   C40       1.0  0.19594  0.42380000000000007  0.02824  1.0000
  C   C41       1.0  0.05955999999999989  0.4625  0.5607800000000002  1.0000
  C   C42       1.0  0.08684999999999997  0.4359600000000002  0.59908  1.0000
  C   C43       1.0  0.09402999999999999  0.48102  0.62376  1.0000
  C   C44       1.0  0.11674999999999996  0.45466000000000006  0.66042  1.0000
  C   C45       1.0  0.13292999999999996  0.38260000000000005  0.67329  1.0000
  C   C46       1.0  0.12602000000000002  0.33795  0.64815  1.0000
  C   C47       1.0  0.10319  0.36419999999999997  0.61164  1.0000
  C   C48       1.0  0.1561499999999999  0.3529999999999999  0.7123700000000002  1.0000
  C   C49       1.0  0.20799999999999996  0.3028  0.71251  1.0000
  C   C50       1.0  0.07623999999999996  0.30406  0.47175  1.0000
  C   C51       1.0  0.8789999999999998  0.9766700000000001  0.56071  1.0000
  C   C52       1.0  0.81368  0.9651100000000001  0.59914  1.0000
  C   C53       1.0  0.7820499999999998  0.8954400000000001  0.62375  1.0000
  C   C54       1.0  0.7228099999999997  0.8851400000000001  0.66043  1.0000
  C   C55       1.0  0.6935999999999999  0.9442399999999997  0.6734000000000002  1.0000
  C   C56       1.0  0.7255599999999999  0.013939999999999892  0.6483700000000002  1.0000
  C   C57       1.0  0.7848  0.024229999999999974  0.61186  1.0000
  C   C58       1.0  0.6312499999999999  0.9347700000000001  0.7124300000000002  1.0000
  C   C59       1.0  0.5790999999999997  0.9847300000000001  0.7126400000000003  1.0000
  C   C60       1.0  0.9520399999999999  0.22409000000000007  0.47173  1.0000
  C   C61       1.0  0.9623799999999998  0.37909  0.06095000000000001  1.0000
  C   C62       1.0  0.93559  0.31376000000000004  0.09923  1.0000
  C   C63       1.0  0.98072  0.28203  0.12386000000000003  1.0000
  C   C64       1.0  0.9544599999999999  0.22275  0.16046  1.0000
  C   C65       1.0  0.8823899999999998  0.19375  0.1733  1.0000
  C   C66       1.0  0.8376799999999998  0.22573  0.1482  1.0000
  C   C67       1.0  0.8638299999999998  0.285  0.11176  1.0000
  C   C68       1.0  0.85284  0.13154000000000002  0.21232  1.0000
  C   C69       1.0  0.8028000000000001  0.07947  0.21237  1.0000
  C   C70       1.0  0.8041299999999998  0.45206999999999997  0.9716900000000003  1.0000
  C   C71       1.0  0.4764999999999999  0.5597  0.06070000000000001  1.0000
  C   C72       1.0  0.4648799999999999  0.58695  0.09904000000000003  1.0000
  C   C73       1.0  0.39519999999999983  0.5941200000000001  0.12368  1.0000
  C   C74       1.0  0.38492999999999983  0.61674  0.1604  1.0000
  C   C75       1.0  0.44406999999999985  0.6329499999999999  0.17337000000000005  1.0000
  C   C76       1.0  0.51379  0.62604  0.14826  1.0000
  C   C77       1.0  0.52405  0.6032900000000001  0.11171  1.0000
  C   C78       1.0  0.4346899999999999  0.6562  0.21248  1.0000
  C   C79       1.0  0.48468999999999995  0.70802  0.21274  1.0000
  C   C80       1.0  0.72403  0.57619  0.97179  1.0000
  C   C81       1.0  0.8790799999999999  0.46231  0.56085  1.0000
  C   C82       1.0  0.81371  0.43565999999999994  0.5991600000000001  1.0000
  C   C83       1.0  0.7819299999999998  0.4807299999999999  0.6238300000000002  1.0000
  C   C84       1.0  0.7226599999999999  0.45438000000000006  0.66046  1.0000
  C   C85       1.0  0.6936599999999999  0.38233000000000006  0.6733  1.0000
  C   C86       1.0  0.7256899999999998  0.33769  0.6481900000000003  1.0000
  C   C87       1.0  0.78493  0.36391  0.61172  1.0000
  C   C88       1.0  0.63137  0.3528000000000001  0.7123  1.0000
  C   C89       1.0  0.5792899999999999  0.3027499999999999  0.7123700000000002  1.0000
  C   C90       1.0  0.9520599999999998  0.30412  0.47169  1.0000
  C   C91       1.0  0.059599999999999986  0.9765  0.56077  1.0000
  C   C92       1.0  0.08686999999999993  0.9648899999999998  0.5991000000000002  1.0000
  C   C93       1.0  0.09398999999999999  0.8952100000000001  0.6237  1.0000
  C   C94       1.0  0.11665999999999999  0.8849000000000001  0.66039  1.0000
  C   C95       1.0  0.1329  0.94401  0.67338  1.0000
  C   C96       1.0  0.12598999999999982  0.013749999999999893  0.6483100000000003  1.0000
  C   C97       1.0  0.10319999999999999  0.024029999999999965  0.61177  1.0000
  C   C98       1.0  0.15616999999999998  0.9345300000000001  0.71248  1.0000
  C   C99       1.0  0.20797  0.9845099999999998  0.7127600000000001  1.0000
  C   C100      1.0  0.07620999999999997  0.22403999999999996  0.47179  1.0000
  C   C101      1.0  0.47647  0.37912  0.060960000000000014  1.0000
  C   C102      1.0  0.46498999999999996  0.31377000000000005  0.09930000000000003  1.0000
  C   C103      1.0  0.39528999999999986  0.28208  0.12387  1.0000
  C   C104      1.0  0.38500999999999996  0.22277  0.16049  1.0000
  C   C105      1.0  0.44418999999999986  0.19364000000000006  0.17342  1.0000
  C   C106      1.0  0.51392  0.22557  0.14838  1.0000
  C   C107      1.0  0.5241599999999997  0.28486  0.11193000000000003  1.0000
  C   C108      1.0  0.4348199999999999  0.13135  0.21244  1.0000
  C   C109      1.0  0.4848599999999998  0.07927999999999998  0.21256000000000005  1.0000
  C   C110      1.0  0.72408  0.45204999999999995  0.97173  1.0000
  C   C111      1.0  0.9625  0.55973  0.06064  1.0000
  C   C112      1.0  0.93592  0.58698  0.09896000000000003  1.0000
  C   C113      1.0  0.9809899999999999  0.5941400000000001  0.12364  1.0000
  C   C114      1.0  0.9546199999999999  0.61676  0.16034  1.0000
  C   C115      1.0  0.8825399999999999  0.63294  0.17325  1.0000
  C   C116      1.0  0.8378999999999999  0.62604  0.1481  1.0000
  C   C117      1.0  0.8641199999999999  0.6033  0.11155  1.0000
  C   C118      1.0  0.85294  0.65618  0.21234  1.0000
  C   C119      1.0  0.8028299999999998  0.7081300000000001  0.21253  1.0000
  C   C120      1.0  0.80407  0.5762099999999999  0.97176  1.0000
  C   C121      1.0  0.94044  0.5375  0.4392200000000001  1.0000
  C   C122      1.0  0.91315  0.56405  0.40092  1.0000
  C   C123      1.0  0.90597  0.51899  0.37624  1.0000
  C   C124      1.0  0.8832599999999999  0.54535  0.33958  1.0000
  C   C125      1.0  0.86708  0.6174  0.32671  1.0000
  C   C126      1.0  0.87399  0.6620499999999999  0.35185  1.0000
  C   C127      1.0  0.8968099999999999  0.6358099999999999  0.38836  1.0000
  C   C128      1.0  0.8438599999999999  0.647  0.28763000000000005  1.0000
  C   C129      1.0  0.792  0.6972000000000002  0.28749  1.0000
  C   C130      1.0  0.92377  0.6959499999999998  0.52825  1.0000
  C   C131      1.0  0.12101000000000002  0.023339999999999986  0.43929  1.0000
  C   C132      1.0  0.18632  0.03490000000000003  0.40086  1.0000
  C   C133      1.0  0.21795000000000003  0.10457000000000001  0.37625  1.0000
  C   C134      1.0  0.2771899999999998  0.11486  0.33957  1.0000
  C   C135      1.0  0.30639999999999995  0.055759999999999935  0.3266000000000001  1.0000
  C   C136      1.0  0.27444999999999997  0.98606  0.3516300000000001  1.0000
  C   C137      1.0  0.21521  0.97578  0.38814  1.0000
  C   C138      1.0  0.36874999999999997  0.06523999999999996  0.2875700000000001  1.0000
  C   C139      1.0  0.42091  0.015269999999999985  0.28736  1.0000
  C   C140      1.0  0.04796000000000002  0.77592  0.52827  1.0000
  C   C141      1.0  0.03761999999999986  0.62091  0.9390500000000003  1.0000
  C   C142      1.0  0.06440999999999988  0.6862399999999999  0.9007600000000002  1.0000
  C   C143      1.0  0.019279999999999922  0.71798  0.87614  1.0000
  C   C144      1.0  0.04553999999999984  0.7772599999999998  0.8395400000000002  1.0000
  C   C145      1.0  0.11760999999999988  0.8062499999999999  0.8267000000000002  1.0000
  C   C146      1.0  0.16231999999999985  0.77428  0.8517900000000003  1.0000
  C   C147      1.0  0.13617  0.715  0.88824  1.0000
  C   C148      1.0  0.14716  0.86846  0.78768  1.0000
  C   C149      1.0  0.19720999999999997  0.9205300000000001  0.78763  1.0000
  C   C150      1.0  0.19587  0.54794  0.028310000000000005  1.0000
  C   C151      1.0  0.5234999999999999  0.44031  0.9393000000000002  1.0000
  C   C152      1.0  0.53512  0.41306  0.90096  1.0000
  C   C153      1.0  0.6048099999999998  0.40589  0.87632  1.0000
  C   C154      1.0  0.6150799999999997  0.38326  0.8396000000000002  1.0000
  C   C155      1.0  0.5559300000000001  0.36705  0.82663  1.0000
  C   C156      1.0  0.48620999999999986  0.3739699999999999  0.8517300000000002  1.0000
  C   C157      1.0  0.4759499999999999  0.39671  0.8882900000000002  1.0000
  C   C158      1.0  0.5653099999999999  0.34379999999999994  0.7875200000000002  1.0000
  C   C159      1.0  0.5153099999999999  0.29198  0.78726  1.0000
  C   C160      1.0  0.27597  0.42382  0.02821  1.0000
  C   C161      1.0  0.01960999999999994  0.72958  0.4606300000000001  1.0000
  C   C162      1.0  0.01963999999999998  0.8094400000000003  0.46059  1.0000
  C   C163      1.0  0.30947  0.5196500000000001  0.96059  1.0000
  C   C164      1.0  0.22958999999999982  0.51963  0.9606300000000002  1.0000
  C   C165      1.0  0.9803900000000001  0.27042  0.53937  1.0000
  C   C166      1.0  0.9803599999999999  0.19055999999999992  0.5394100000000001  1.0000
  C   C167      1.0  0.77042  0.48038  0.03937  1.0000
  C   C168      1.0  0.6905299999999999  0.48036  0.03941  1.0000
  C   C169      1.0  0.37671999999999994  0.62679  0.25006  1.0000
  C   C170      1.0  0.47804  0.7278900000000001  0.25023  1.0000
  C   C171      1.0  0.53248  0.7817200000000001  0.25042  1.0000
  C   C172      1.0  0.8733299999999999  0.12342000000000004  0.24994  1.0000
  C   C173      1.0  0.7722599999999998  0.02208999999999997  0.24973000000000006  1.0000
  C   C174      1.0  0.71848  0.96758  0.24956  1.0000
  C   C175      1.0  0.6232299999999998  0.87676  0.7499900000000003  1.0000
  C   C176      1.0  0.52178  0.9781500000000001  0.75007  1.0000
  C   C177      1.0  0.46749999999999997  0.03248000000000001  0.75012  1.0000
  C   C178      1.0  0.12665999999999997  0.37333999999999995  0.75003  1.0000
  C   C179      1.0  0.22778999999999985  0.27199999999999996  0.7499900000000003  1.0000
  C   C180      1.0  0.28192  0.21773  0.74992  1.0000
  C   C181      1.0  0.62329  0.37322  0.74994  1.0000
  C   C182      1.0  0.52196  0.2721199999999999  0.74977  1.0000
  C   C183      1.0  0.46752000000000005  0.21829  0.74958  1.0000
  C   C184      1.0  0.12667999999999996  0.8765800000000001  0.75006  1.0000
  C   C185      1.0  0.22773999999999994  0.9779100000000001  0.75027  1.0000
  C   C186      1.0  0.28152999999999984  0.03242  0.75044  1.0000
  C   C187      1.0  0.37677  0.12324  0.25001  1.0000
  C   C188      1.0  0.47822999999999993  0.02184999999999999  0.24993000000000007  1.0000
  C   C189      1.0  0.5325  0.96752  0.24988  1.0000
  C   C190      1.0  0.8733499999999998  0.62667  0.24997  1.0000
  C   C191      1.0  0.7722099999999997  0.728  0.25001  1.0000
  C   C192      1.0  0.71808  0.78227  0.25008  1.0000
  N   N1        1.0  0.9970799999999999  0.68045  0.50577  1.0000
  N   N2        1.0  0.99713  0.81377  0.50569  1.0000
  N   N3        1.0  0.3138  0.4971300000000001  0.005700000000000001  1.0000
  N   N4        1.0  0.18043  0.49709000000000003  0.005770000000000002  1.0000
  N   N5        1.0  0.002919999999999977  0.31956  0.49423  1.0000
  N   N6        1.0  0.0028699999999999243  0.18622999999999995  0.49431000000000014  1.0000
  N   N7        1.0  0.8195699999999997  0.50292  0.99423  1.0000
  N   N8        1.0  0.6862  0.5028800000000002  0.9943000000000001  1.0000
  O   O1        1.0  0.09357  0.58343  0.45847  1.0000
  O   O2        1.0  0.09698999999999995  0.47193999999999997  0.4490800000000001  1.0000
  O   O3        1.0  0.5345599999999999  0.78472  0.2874500000000001  1.0000
  O   O4        1.0  0.94804  0.9583  0.45847  1.0000
  O   O5        1.0  0.95497  0.07925999999999998  0.44916  1.0000
  O   O6        1.0  0.6797699999999999  0.9271499999999999  0.2864400000000001  1.0000
  O   O7        1.0  0.45850999999999975  0.5936399999999998  0.9584000000000003  1.0000
  O   O8        1.0  0.5795  0.5969199999999999  0.9488900000000002  1.0000
  O   O9        1.0  0.42732000000000003  0.03452000000000005  0.78711  1.0000
  O   O10       1.0  0.08353999999999992  0.4480399999999999  0.9586100000000002  1.0000
  O   O11       1.0  0.9718299999999997  0.45473999999999987  0.94936  1.0000
  O   O12       1.0  0.2845199999999999  0.17802999999999988  0.7868800000000002  1.0000
  O   O13       1.0  0.05188999999999988  0.4165799999999999  0.5414600000000003  1.0000
  O   O14       1.0  0.04505  0.5281599999999999  0.55086  1.0000
  O   O15       1.0  0.32146999999999987  0.21527  0.7129  1.0000
  O   O16       1.0  0.9064199999999999  0.04165000000000001  0.54163  1.0000
  O   O17       1.0  0.90276  0.9209300000000002  0.5505  1.0000
  O   O18       1.0  0.4653899999999998  0.0727199999999999  0.7131900000000002  1.0000
  O   O19       1.0  0.91671  0.40641999999999995  0.04157000000000002  1.0000
  O   O20       1.0  0.02811  0.4030300000000001  0.05115  1.0000
  O   O21       1.0  0.71536  0.9655200000000002  0.21254  1.0000
  O   O22       1.0  0.54175  0.55195  0.04147  1.0000
  O   O23       1.0  0.42075  0.54525  0.05069  1.0000
  O   O24       1.0  0.57288  0.8205600000000002  0.21354  1.0000
  O   O25       1.0  0.9064399999999998  0.4165700000000001  0.54153  1.0000
  O   O26       1.0  0.90301  0.5280600000000001  0.55092  1.0000
  O   O27       1.0  0.4654399999999999  0.21528999999999987  0.7125500000000002  1.0000
  O   O28       1.0  0.051969999999999975  0.04170000000000002  0.54153  1.0000
  O   O29       1.0  0.045039999999999955  0.92074  0.55084  1.0000
  O   O30       1.0  0.32024  0.07284999999999998  0.71355  1.0000
  O   O31       1.0  0.54149  0.4063700000000001  0.0416  1.0000
  O   O32       1.0  0.4205  0.4030900000000001  0.05111  1.0000
  O   O33       1.0  0.57269  0.9654800000000001  0.21289  1.0000
  O   O34       1.0  0.91646  0.55197  0.04138  1.0000
  O   O35       1.0  0.028179999999999993  0.54527  0.05064  1.0000
  O   O36       1.0  0.71549  0.8219699999999999  0.21312  1.0000
  O   O37       1.0  0.94811  0.5834199999999999  0.4585400000000001  1.0000
  O   O38       1.0  0.9549499999999999  0.47184  0.4491400000000001  1.0000
  O   O39       1.0  0.67853  0.7847399999999999  0.2871  1.0000
  O   O40       1.0  0.09358999999999995  0.9583599999999998  0.4583700000000001  1.0000
  O   O41       1.0  0.09724  0.07908  0.4495  1.0000
  O   O42       1.0  0.5346199999999999  0.9272900000000001  0.28681  1.0000
  O   O43       1.0  0.08329999999999994  0.5935799999999999  0.9584300000000002  1.0000
  O   O44       1.0  0.9719000000000001  0.5969799999999998  0.94885  1.0000
  O   O45       1.0  0.28463999999999984  0.03448999999999993  0.7874600000000003  1.0000
  O   O46       1.0  0.4582499999999998  0.44805999999999985  0.9585200000000003  1.0000
  O   O47       1.0  0.57926  0.4547500000000001  0.94931  1.0000
  O   O48       1.0  0.42713  0.17944  0.78646  1.0000
