data_image0
_chemical_formula_structural       Zn8Si6H136C168O28
_chemical_formula_sum              "Zn8 Si6 H136 C168 O28"
_cell_length_a       11.95135
_cell_length_b       14.81438
_cell_length_c       28.302380000000003
_cell_angle_alpha    97.22662
_cell_angle_beta     89.95231
_cell_angle_gamma    113.82246

_space_group_name_H-M_alt    "P 1"
_space_group_IT_number       1

loop_
  _space_group_symop_operation_xyz
  'x, y, z'

loop_
  _atom_site_type_symbol
  _atom_site_label
  _atom_site_symmetry_multiplicity
  _atom_site_fract_x
  _atom_site_fract_y
  _atom_site_fract_z
  _atom_site_occupancy
  Zn  Zn1       1.0  0.5055799999999999  0.07399999999999997  0.74209  1.0000
  Zn  Zn2       1.0  0.6585199999999999  0.9470699999999997  0.76363  1.0000
  Zn  Zn3       1.0  0.93099  0.9257  0.7581  1.0000
  Zn  Zn4       1.0  0.21196999999999994  0.05352  0.73658  1.0000
  Zn  Zn5       1.0  0.49442999999999987  0.9260099999999998  0.25791  1.0000
  Zn  Zn6       1.0  0.3414899999999999  0.05294  0.23637  1.0000
  Zn  Zn7       1.0  0.06901999999999997  0.07429999999999998  0.2419  1.0000
  Zn  Zn8       1.0  0.78804  0.94648  0.26342  1.0000
  Si  Si1       1.0  0.65324  0.26267  0.04848  1.0000
  Si  Si2       1.0  0.8918799999999999  0.73833  0.45211  1.0000
  Si  Si3       1.0  0.3467699999999999  0.73734  0.95151  1.0000
  Si  Si4       1.0  0.10812999999999993  0.26167999999999997  0.54788  1.0000
  Si  Si5       1.0  0.8973599999999997  0.4997699999999998  0.7499199999999998  1.0000
  Si  Si6       1.0  0.10264999999999995  0.50024  0.25008  1.0000
  H   H1        1.0  0.6231699999999999  0.33408  0.95755  1.0000
  H   H2        1.0  0.60867  0.26327  0.87241  1.0000
  H   H3        1.0  0.70229  0.030599999999999995  0.91217  1.0000
  H   H4        1.0  0.71198  0.09798000000000001  0.99771  1.0000
  H   H5        1.0  0.42522999999999994  0.16639999999999996  0.98387  1.0000
  H   H6        1.0  0.20577  0.08514000000000001  0.99767  1.0000
  H   H7        1.0  0.28657999999999995  0.15721  0.14922  1.0000
  H   H8        1.0  0.5063  0.23705999999999994  0.13597  1.0000
  H   H9        1.0  0.07917  0.025009999999999994  0.11317  1.0000
  H   H10       1.0  0.056169999999999984  0.12316  0.09147999999999999  1.0000
  H   H11       1.0  0.04294999999999999  0.01671  0.05124  1.0000
  H   H12       1.0  0.55643  0.07056999999999998  0.0892  1.0000
  H   H13       1.0  0.6457799999999998  0.9983999999999998  0.14549  1.0000
  H   H14       1.0  0.9904999999999999  0.25309  0.151  1.0000
  H   H15       1.0  0.9014199999999998  0.32756  0.09613  1.0000
  H   H16       1.0  0.6781799999999999  0.4168499999999999  0.13272  1.0000
  H   H17       1.0  0.8188599999999997  0.5932399999999999  0.15412  1.0000
  H   H18       1.0  0.9720299999999997  0.59187  0.01678  1.0000
  H   H19       1.0  0.8342499999999999  0.4151499999999999  0.99541  1.0000
  H   H20       1.0  0.021990000000000027  0.73251  0.13691  1.0000
  H   H21       1.0  0.06840999999999986  0.7365999999999998  0.07718  1.0000
  H   H22       1.0  0.9402599999999997  0.7623799999999998  0.09384999999999999  1.0000
  H   H23       1.0  0.9792499999999998  0.6910499999999999  0.7070099999999999  1.0000
  H   H24       1.0  0.18118000000000004  0.8350600000000001  0.70818  1.0000
  H   H25       1.0  0.34481  0.69539  0.79286  1.0000
  H   H26       1.0  0.14349999999999985  0.5520199999999997  0.7935  1.0000
  H   H27       1.0  0.9302399999999997  0.4674099999999999  0.84916  1.0000
  H   H28       1.0  0.8629299999999998  0.51772  0.92619  1.0000
  H   H29       1.0  0.64949  0.6396  0.8551799999999998  1.0000
  H   H30       1.0  0.7150699999999999  0.58837  0.77713  1.0000
  H   H31       1.0  0.7762199999999999  0.6277199999999997  0.97266  1.0000
  H   H32       1.0  0.68488  0.67557  0.94282  1.0000
  H   H33       1.0  0.6235699999999998  0.54937  0.9527799999999998  1.0000
  H   H34       1.0  0.41269  0.19777999999999996  0.74908  1.0000
  H   H35       1.0  0.7895099999999998  0.6669799999999998  0.54289  1.0000
  H   H36       1.0  0.84539  0.73795  0.62808  1.0000
  H   H37       1.0  0.17331999999999984  0.9695399999999997  0.58841  1.0000
  H   H38       1.0  0.11608999999999993  0.9021699999999999  0.50279  1.0000
  H   H39       1.0  0.7592299999999998  0.8344899999999998  0.51657  1.0000
  H   H40       1.0  0.6204599999999999  0.91495  0.50246  1.0000
  H   H41       1.0  0.6301399999999998  0.8419199999999997  0.3509899999999999  1.0000
  H   H42       1.0  0.7707799999999996  0.7630099999999997  0.36459  1.0000
  H   H43       1.0  0.5548299999999998  0.9741099999999998  0.38662  1.0000
  H   H44       1.0  0.43346999999999986  0.8761099999999999  0.4084  1.0000
  H   H45       1.0  0.5263599999999998  0.9829299999999997  0.44853  1.0000
  H   H46       1.0  0.9872899999999998  0.9301400000000001  0.4113  1.0000
  H   H47       1.0  0.14845  0.0018799999999999997  0.35458  1.0000
  H   H48       1.0  0.23809999999999992  0.7471299999999997  0.34916  1.0000
  H   H49       1.0  0.07489000000000001  0.67317  0.40435  1.0000
  H   H50       1.0  0.76266  0.5848199999999999  0.36807  1.0000
  H   H51       1.0  0.72636  0.40834  0.34638  1.0000
  H   H52       1.0  0.8800499999999999  0.40857  0.48360999999999993  1.0000
  H   H53       1.0  0.9195199999999997  0.5853599999999999  0.50524  1.0000
  H   H54       1.0  0.78981  0.2690399999999999  0.36316  1.0000
  H   H55       1.0  0.8319  0.26417  0.42278  1.0000
  H   H56       1.0  0.67802  0.23878  0.40621  1.0000
  H   H57       1.0  0.78729  0.30883  0.79271  1.0000
  H   H58       1.0  0.8449499999999998  0.16484999999999989  0.7919199999999997  1.0000
  H   H59       1.0  0.14955999999999997  0.30401999999999996  0.70752  1.0000
  H   H60       1.0  0.09150999999999994  0.44724999999999987  0.70635  1.0000
  H   H61       1.0  0.9627399999999998  0.5317  0.65077  1.0000
  H   H62       1.0  0.8453099999999999  0.48177  0.57375  1.0000
  H   H63       1.0  0.50957  0.36026999999999987  0.64485  1.0000
  H   H64       1.0  0.6262299999999998  0.41112999999999994  0.72287  1.0000
  H   H65       1.0  0.6484099999999999  0.37256  0.52731  1.0000
  H   H66       1.0  0.5091  0.32472999999999996  0.55719  1.0000
  H   H67       1.0  0.5744599999999999  0.4510399999999999  0.54739  1.0000
  H   H68       1.0  0.71385  0.80172  0.75163  1.0000
  H   H69       1.0  0.3768399999999999  0.66593  0.04245  1.0000
  H   H70       1.0  0.39133999999999997  0.73674  0.12758  1.0000
  H   H71       1.0  0.29772  0.9694  0.08783  1.0000
  H   H72       1.0  0.2880299999999999  0.90202  0.00228  1.0000
  H   H73       1.0  0.5747799999999997  0.8336099999999997  0.01612  1.0000
  H   H74       1.0  0.79424  0.91487  0.00233  1.0000
  H   H75       1.0  0.7134299999999999  0.8427999999999998  0.85078  1.0000
  H   H76       1.0  0.49370999999999976  0.7629499999999997  0.8640199999999999  1.0000
  H   H77       1.0  0.9208399999999999  0.975  0.88683  1.0000
  H   H78       1.0  0.94384  0.87685  0.90851  1.0000
  H   H79       1.0  0.9570599999999998  0.9832999999999997  0.94876  1.0000
  H   H80       1.0  0.44357999999999986  0.9294399999999999  0.9108  1.0000
  H   H81       1.0  0.3542299999999999  0.0015999999999999788  0.85451  1.0000
  H   H82       1.0  0.009519999999999924  0.7469199999999999  0.849  1.0000
  H   H83       1.0  0.09859000000000007  0.67244  0.90387  1.0000
  H   H84       1.0  0.32183  0.58316  0.86728  1.0000
  H   H85       1.0  0.18114999999999992  0.4067699999999999  0.84588  1.0000
  H   H86       1.0  0.027979999999999942  0.40813999999999995  0.98322  1.0000
  H   H87       1.0  0.16575999999999994  0.5848599999999999  0.00459  1.0000
  H   H88       1.0  0.97802  0.26749  0.86309  1.0000
  H   H89       1.0  0.9316  0.26340999999999987  0.9228199999999998  1.0000
  H   H90       1.0  0.05975999999999995  0.23762999999999995  0.90615  1.0000
  H   H91       1.0  0.02075999999999998  0.30895999999999996  0.29297999999999996  1.0000
  H   H92       1.0  0.81883  0.16495  0.29181  1.0000
  H   H93       1.0  0.6552  0.30462  0.20713999999999996  1.0000
  H   H94       1.0  0.8565099999999999  0.44798999999999994  0.2065  1.0000
  H   H95       1.0  0.06976999999999998  0.5326  0.15084  1.0000
  H   H96       1.0  0.13707999999999995  0.48229  0.0738  1.0000
  H   H97       1.0  0.35052  0.36041  0.14481999999999998  1.0000
  H   H98       1.0  0.2849399999999999  0.4116399999999999  0.22286999999999996  1.0000
  H   H99       1.0  0.22379  0.37229  0.02733  1.0000
  H   H100      1.0  0.31513  0.32444  0.05718  1.0000
  H   H101      1.0  0.37643999999999994  0.4506399999999999  0.04721999999999999  1.0000
  H   H102      1.0  0.5873299999999999  0.80222  0.25092  1.0000
  H   H103      1.0  0.2104999999999999  0.33302999999999994  0.4571099999999999  1.0000
  H   H104      1.0  0.15461999999999998  0.26205  0.37192  1.0000
  H   H105      1.0  0.82669  0.030469999999999997  0.41158  1.0000
  H   H106      1.0  0.8839199999999998  0.09782999999999997  0.4972  1.0000
  H   H107      1.0  0.24078  0.16552  0.48343  1.0000
  H   H108      1.0  0.3795499999999999  0.08506  0.49754  1.0000
  H   H109      1.0  0.36987  0.1580899999999999  0.6490099999999998  1.0000
  H   H110      1.0  0.22923  0.23700000000000002  0.63541  1.0000
  H   H111      1.0  0.44517999999999996  0.025899999999999996  0.61338  1.0000
  H   H112      1.0  0.5665399999999999  0.12388999999999999  0.5916  1.0000
  H   H113      1.0  0.47365  0.017079999999999994  0.55147  1.0000
  H   H114      1.0  0.012719999999999985  0.06985999999999998  0.5887  1.0000
  H   H115      1.0  0.8515599999999998  0.9981199999999999  0.64542  1.0000
  H   H116      1.0  0.7619099999999998  0.25286999999999993  0.65083  1.0000
  H   H117      1.0  0.9251199999999998  0.32682999999999995  0.59565  1.0000
  H   H118      1.0  0.23734999999999995  0.41518999999999995  0.63193  1.0000
  H   H119      1.0  0.27365  0.59166  0.65362  1.0000
  H   H120      1.0  0.11995999999999996  0.59144  0.51638  1.0000
  H   H121      1.0  0.08049  0.41464  0.4947599999999999  1.0000
  H   H122      1.0  0.2101999999999998  0.7309599999999998  0.63684  1.0000
  H   H123      1.0  0.16811  0.73584  0.5772199999999998  1.0000
  H   H124      1.0  0.3219899999999999  0.7612299999999997  0.5937899999999999  1.0000
  H   H125      1.0  0.21271999999999996  0.69118  0.20729  1.0000
  H   H126      1.0  0.15506  0.83516  0.20808  1.0000
  H   H127      1.0  0.85045  0.6959899999999998  0.29248  1.0000
  H   H128      1.0  0.9084999999999999  0.55276  0.29364  1.0000
  H   H129      1.0  0.03726999999999994  0.46829999999999994  0.34923  1.0000
  H   H130      1.0  0.1546999999999999  0.5182399999999998  0.42625  1.0000
  H   H131      1.0  0.49044999999999994  0.6397399999999999  0.35515  1.0000
  H   H132      1.0  0.37378  0.58887  0.27713  1.0000
  H   H133      1.0  0.3515999999999999  0.6274499999999997  0.47269  1.0000
  H   H134      1.0  0.4909099999999998  0.6752699999999998  0.4428  1.0000
  H   H135      1.0  0.4255499999999999  0.54897  0.45261  1.0000
  H   H136      1.0  0.28617  0.19828  0.24837  1.0000
  C   C1        1.0  0.6671799999999998  0.22056999999999993  0.98415  1.0000
  C   C2        1.0  0.64013  0.2673  0.94804  1.0000
  C   C3        1.0  0.6319799999999998  0.2282999999999999  0.9001499999999998  1.0000
  C   C4        1.0  0.65324  0.14219  0.88727  1.0000
  C   C5        1.0  0.6851599999999999  0.0969499999999999  0.9225499999999998  1.0000
  C   C6        1.0  0.6906899999999998  0.13544999999999993  0.9705299999999999  1.0000
  C   C7        1.0  0.63671  0.09711000000000003  0.83635  1.0000
  C   C8        1.0  0.48442999999999997  0.21205  0.05865  1.0000
  C   C9        1.0  0.39631  0.16698  0.02034  1.0000
  C   C10       1.0  0.27147  0.12042  0.02809  1.0000
  C   C11       1.0  0.22936999999999994  0.11704  0.07436  1.0000
  C   C12       1.0  0.31671999999999995  0.16115  0.11286  1.0000
  C   C13       1.0  0.4413599999999999  0.20727  0.1051  1.0000
  C   C14       1.0  0.09487999999999998  0.06745  0.08284  1.0000
  C   C15       1.0  0.7223999999999999  0.20449  0.08845  1.0000
  C   C16       1.0  0.6516499999999998  0.11073999999999998  0.10232  1.0000
  C   C17       1.0  0.70098  0.06960999999999999  0.13376  1.0000
  C   C18       1.0  0.82325  0.12113999999999997  0.15133  1.0000
  C   C19       1.0  0.8961399999999999  0.21332  0.13686  1.0000
  C   C20       1.0  0.8453099999999999  0.25455  0.10594  1.0000
  C   C21       1.0  0.87347  0.07973  0.18685  1.0000
  C   C22       1.0  0.74326  0.40125  0.06195  1.0000
  C   C23       1.0  0.7416399999999999  0.45446  0.10673  1.0000
  C   C24       1.0  0.82106  0.55449  0.11897999999999999  1.0000
  C   C25       1.0  0.9050599999999998  0.6062699999999999  0.08679  1.0000
  C   C26       1.0  0.9071599999999997  0.55374  0.04223  1.0000
  C   C27       1.0  0.8284  0.45340999999999987  0.03016  1.0000
  C   C28       1.0  0.9887299999999999  0.71484  0.09931  1.0000
  C   C29       1.0  0.04720999999999995  0.6098299999999999  0.74927  1.0000
  C   C30       1.0  0.058599999999999874  0.6911699999999997  0.7259299999999997  1.0000
  C   C31       1.0  0.17102999999999982  0.7719999999999999  0.7262999999999997  1.0000
  C   C32       1.0  0.27439  0.7725  0.74981  1.0000
  C   C33       1.0  0.26403999999999983  0.6930199999999999  0.77419  1.0000
  C   C34       1.0  0.15107999999999994  0.61319  0.7742  1.0000
  C   C35       1.0  0.39425999999999967  0.8578199999999996  0.74914  1.0000
  C   C36       1.0  0.82597  0.52193  0.80658  1.0000
  C   C37       1.0  0.8669  0.50362  0.84964  1.0000
  C   C38       1.0  0.82924  0.5325  0.89353  1.0000
  C   C39       1.0  0.74959  0.58116  0.89632  1.0000
  C   C40       1.0  0.7094299999999998  0.6002999999999997  0.8535599999999999  1.0000
  C   C41       1.0  0.74682  0.57133  0.8095699999999999  1.0000
  C   C42       1.0  0.7069499999999997  0.6106499999999998  0.94359  1.0000
  C   C43       1.0  0.9477699999999999  0.7802599999999997  0.51637  1.0000
  C   C44       1.0  0.8734499999999997  0.73361  0.55243  1.0000
  C   C45       1.0  0.9040199999999998  0.7726599999999998  0.60032  1.0000
  C   C46       1.0  0.011689999999999954  0.85859  0.61309  1.0000
  C   C47       1.0  0.08960999999999988  0.90346  0.57791  1.0000
  C   C48       1.0  0.05686999999999998  0.86497  0.52995  1.0000
  C   C49       1.0  0.039759999999999976  0.9044599999999999  0.66383  1.0000
  C   C50       1.0  0.7734699999999999  0.7886  0.44187  1.0000
  C   C51       1.0  0.7299  0.8336199999999998  0.48006  1.0000
  C   C52       1.0  0.65133  0.8797499999999998  0.47212  1.0000
  C   C53       1.0  0.6128099999999999  0.8826899999999999  0.42578  1.0000
  C   C54       1.0  0.65642  0.83849  0.3874  1.0000
  C   C55       1.0  0.7352799999999998  0.79286  0.39536  1.0000
  C   C56       1.0  0.5278299999999999  0.9319699999999997  0.41705  1.0000
  C   C57       1.0  0.019099999999999877  0.7962399999999997  0.41198  1.0000
  C   C58       1.0  0.04213000000000003  0.88989  0.39803  1.0000
  C   C59       1.0  0.13237999999999997  0.9307899999999999  0.36643  1.0000
  C   C60       1.0  0.2028599999999999  0.87907  0.34881  1.0000
  C   C61       1.0  0.18362999999999993  0.7869999999999999  0.36335  1.0000
  C   C62       1.0  0.09174999999999986  0.7460399999999998  0.39442  1.0000
  C   C63       1.0  0.2943  0.92031  0.31318  1.0000
  C   C64       1.0  0.84299  0.5997599999999997  0.43875  1.0000
  C   C65       1.0  0.7881999999999999  0.5468899999999999  0.39394  1.0000
  C   C66       1.0  0.76735  0.4468799999999999  0.38153  1.0000
  C   C67       1.0  0.79928  0.39482  0.4136  1.0000
  C   C68       1.0  0.8537399999999998  0.4469799999999999  0.45822  1.0000
  C   C69       1.0  0.87556  0.54733  0.47045  1.0000
  C   C70       1.0  0.7741499999999998  0.28628  0.40081  1.0000
  C   C71       1.0  0.9370599999999998  0.3897399999999999  0.7505299999999999  1.0000
  C   C72       1.0  0.8667  0.30858999999999986  0.77392  1.0000
  C   C73       1.0  0.89821  0.22781999999999994  0.7738  1.0000
  C   C74       1.0  0.0015100000000000129  0.22736  0.75058  1.0000
  C   C75       1.0  0.07095999999999994  0.30653999999999987  0.72605  1.0000
  C   C76       1.0  0.037779999999999904  0.3862499999999998  0.7257299999999999  1.0000
  C   C77       1.0  0.03613999999999996  0.14228999999999994  0.7518  1.0000
  C   C78       1.0  0.80372  0.47757999999999995  0.69336  1.0000
  C   C79       1.0  0.8631299999999998  0.49577  0.65029  1.0000
  C   C80       1.0  0.79669  0.4670499999999999  0.60641  1.0000
  C   C81       1.0  0.66831  0.4186799999999999  0.60368  1.0000
  C   C82       1.0  0.60886  0.39946999999999994  0.6464499999999999  1.0000
  C   C83       1.0  0.67513  0.4282799999999999  0.69042  1.0000
  C   C84       1.0  0.5962699999999999  0.38957999999999987  0.55644  1.0000
  C   C85       1.0  0.33282999999999985  0.7794399999999998  0.01584  1.0000
  C   C86       1.0  0.3598799999999999  0.73271  0.051959999999999985  1.0000
  C   C87       1.0  0.3680299999999999  0.77171  0.09985  1.0000
  C   C88       1.0  0.34676999999999997  0.85782  0.11272999999999998  1.0000
  C   C89       1.0  0.31484999999999996  0.9030599999999998  0.07745  1.0000
  C   C90       1.0  0.30931999999999993  0.8645599999999999  0.02947  1.0000
  C   C91       1.0  0.3633  0.9029  0.16365  1.0000
  C   C92       1.0  0.51558  0.78796  0.94135  1.0000
  C   C93       1.0  0.6037  0.83303  0.97965  1.0000
  C   C94       1.0  0.7285399999999996  0.8795899999999995  0.9719099999999998  1.0000
  C   C95       1.0  0.77064  0.8829699999999998  0.92564  1.0000
  C   C96       1.0  0.6832899999999997  0.8388599999999998  0.88714  1.0000
  C   C97       1.0  0.5586499999999998  0.7927299999999998  0.8949  1.0000
  C   C98       1.0  0.9051299999999998  0.93255  0.91716  1.0000
  C   C99       1.0  0.2776099999999999  0.7955099999999998  0.9115499999999997  1.0000
  C   C100      1.0  0.34835999999999995  0.88926  0.89767  1.0000
  C   C101      1.0  0.29902999999999974  0.9303999999999996  0.86624  1.0000
  C   C102      1.0  0.17675999999999986  0.8788699999999998  0.8486699999999999  1.0000
  C   C103      1.0  0.10386999999999999  0.78668  0.86313  1.0000
  C   C104      1.0  0.1547  0.74546  0.89406  1.0000
  C   C105      1.0  0.1265399999999999  0.9202799999999998  0.8131399999999998  1.0000
  C   C106      1.0  0.25675  0.59875  0.93805  1.0000
  C   C107      1.0  0.2583699999999998  0.5455499999999999  0.8932699999999999  1.0000
  C   C108      1.0  0.17894999999999994  0.44552  0.88101  1.0000
  C   C109      1.0  0.09494999999999994  0.3937299999999999  0.9132099999999999  1.0000
  C   C110      1.0  0.09284999999999992  0.4462599999999999  0.95776  1.0000
  C   C111      1.0  0.17160999999999998  0.5466  0.96984  1.0000
  C   C112      1.0  0.011279999999999945  0.2851599999999999  0.9006899999999998  1.0000
  C   C113      1.0  0.9527999999999998  0.39018  0.25073  1.0000
  C   C114      1.0  0.94141  0.30884  0.27407  1.0000
  C   C115      1.0  0.82898  0.22801  0.27369  1.0000
  C   C116      1.0  0.72562  0.22749999999999995  0.25019  1.0000
  C   C117      1.0  0.73597  0.30699  0.22581  1.0000
  C   C118      1.0  0.84893  0.3868199999999999  0.22579  1.0000
  C   C119      1.0  0.60575  0.14219  0.25086  1.0000
  C   C120      1.0  0.17403999999999994  0.47806999999999994  0.19342  1.0000
  C   C121      1.0  0.13311000000000003  0.49639000000000005  0.15036  1.0000
  C   C122      1.0  0.17076999999999992  0.4674999999999999  0.10646  1.0000
  C   C123      1.0  0.25043  0.41884  0.10367999999999998  1.0000
  C   C124      1.0  0.2905799999999999  0.3997099999999999  0.14644  1.0000
  C   C125      1.0  0.2531899999999999  0.4286799999999999  0.19043  1.0000
  C   C126      1.0  0.2930599999999999  0.3893599999999999  0.0564  1.0000
  C   C127      1.0  0.05224  0.21975  0.48362  1.0000
  C   C128      1.0  0.12655999999999998  0.2664  0.44756  1.0000
  C   C129      1.0  0.09598999999999999  0.22734999999999994  0.39968  1.0000
  C   C130      1.0  0.9883199999999999  0.14141  0.38691  1.0000
  C   C131      1.0  0.9104  0.09654  0.42209  1.0000
  C   C132      1.0  0.9431399999999999  0.13504  0.47004  1.0000
  C   C133      1.0  0.96025  0.09554  0.33617  1.0000
  C   C134      1.0  0.22653999999999996  0.21141  0.55813  1.0000
  C   C135      1.0  0.2701099999999999  0.16638  0.51994  1.0000
  C   C136      1.0  0.3486799999999999  0.12025999999999995  0.52787  1.0000
  C   C137      1.0  0.38719999999999993  0.11731999999999998  0.57422  1.0000
  C   C138      1.0  0.34359  0.16151999999999994  0.6126  1.0000
  C   C139      1.0  0.26473  0.20714999999999997  0.60464  1.0000
  C   C140      1.0  0.4721799999999999  0.06803  0.58295  1.0000
  C   C141      1.0  0.98091  0.20377  0.58802  1.0000
  C   C142      1.0  0.95788  0.11012  0.60197  1.0000
  C   C143      1.0  0.86763  0.06920999999999997  0.63357  1.0000
  C   C144      1.0  0.7971500000000001  0.12094000000000003  0.65119  1.0000
  C   C145      1.0  0.81638  0.21299999999999994  0.63665  1.0000
  C   C146      1.0  0.9082599999999997  0.25395999999999996  0.60558  1.0000
  C   C147      1.0  0.70571  0.07969999999999998  0.68682  1.0000
  C   C148      1.0  0.1570199999999999  0.40023999999999993  0.56125  1.0000
  C   C149      1.0  0.21180999999999994  0.45311999999999997  0.60605  1.0000
  C   C150      1.0  0.23265999999999987  0.5531299999999999  0.61847  1.0000
  C   C151      1.0  0.20072999999999985  0.6051899999999998  0.5863999999999999  1.0000
  C   C152      1.0  0.14626999999999996  0.55303  0.54178  1.0000
  C   C153      1.0  0.12444999999999994  0.4526799999999999  0.52954  1.0000
  C   C154      1.0  0.22585999999999984  0.7137199999999999  0.59919  1.0000
  C   C155      1.0  0.06295000000000002  0.61026  0.24947  1.0000
  C   C156      1.0  0.13330999999999998  0.6914099999999999  0.22608  1.0000
  C   C157      1.0  0.10179999999999989  0.7721899999999998  0.2262  1.0000
  C   C158      1.0  0.9984999999999999  0.7726399999999999  0.24942  1.0000
  C   C159      1.0  0.9290499999999997  0.6934599999999999  0.27395  1.0000
  C   C160      1.0  0.96223  0.61375  0.27427  1.0000
  C   C161      1.0  0.96387  0.8577199999999998  0.2482  1.0000
  C   C162      1.0  0.19629  0.52243  0.30663  1.0000
  C   C163      1.0  0.13687999999999997  0.5042299999999998  0.34970999999999997  1.0000
  C   C164      1.0  0.20331999999999995  0.53295  0.39358  1.0000
  C   C165      1.0  0.3317  0.58133  0.39632  1.0000
  C   C166      1.0  0.39115  0.60053  0.35355  1.0000
  C   C167      1.0  0.32488  0.57173  0.30957999999999997  1.0000
  C   C168      1.0  0.40373999999999993  0.61043  0.44356  1.0000
  O   O1        1.0  0.5721099999999999  0.12227999999999994  0.80902  1.0000
  O   O2        1.0  0.6876099999999998  0.03733  0.82403  1.0000
  O   O3        1.0  0.9886  0.12280999999999997  0.19764  1.0000
  O   O4        1.0  0.79782  0.0039199999999999895  0.20417999999999997  1.0000
  O   O5        1.0  0.39468999999999965  0.9325999999999997  0.73083  1.0000
  O   O6        1.0  0.4882499999999999  0.85  0.76647  1.0000
  O   O7        1.0  0.38790999999999987  0.13195999999999994  0.73112  1.0000
  O   O8        1.0  0.9494999999999999  0.8808999999999999  0.69091  1.0000
  O   O9        1.0  0.1506299999999998  0.9636399999999998  0.67619  1.0000
  O   O10       1.0  0.3663999999999999  0.8772799999999997  0.30242  1.0000
  O   O11       1.0  0.29423  0.9958599999999999  0.29572  1.0000
  O   O12       1.0  0.9605599999999997  0.06699999999999996  0.7693899999999999  1.0000
  O   O13       1.0  0.13931999999999994  0.15087999999999993  0.73557  1.0000
  O   O14       1.0  0.75531  0.8680699999999999  0.7690499999999999  1.0000
  O   O15       1.0  0.42789999999999984  0.8777199999999997  0.19098  1.0000
  O   O16       1.0  0.3123999999999999  0.9626699999999998  0.17595999999999998  1.0000
  O   O17       1.0  0.011409999999999969  0.8772  0.80236  1.0000
  O   O18       1.0  0.2021900000000001  0.99609  0.79582  1.0000
  O   O19       1.0  0.60532  0.06740000000000002  0.26917  1.0000
  O   O20       1.0  0.51176  0.15  0.23352999999999993  1.0000
  O   O21       1.0  0.6121  0.8680499999999999  0.26888  1.0000
  O   O22       1.0  0.05050999999999997  0.11910999999999997  0.30909  1.0000
  O   O23       1.0  0.8493799999999998  0.03636999999999999  0.32381  1.0000
  O   O24       1.0  0.63361  0.12272  0.69758  1.0000
  O   O25       1.0  0.70578  0.0041499999999999836  0.70428  1.0000
  O   O26       1.0  0.03945000000000001  0.93301  0.23061  1.0000
  O   O27       1.0  0.8606899999999997  0.8491199999999999  0.26443  1.0000
  O   O28       1.0  0.2447  0.13194  0.23094999999999996  1.0000
