data_image0
_chemical_formula_structural       La24H72C168N24O96
_chemical_formula_sum              "La24 H72 C168 N24 O96"
_cell_length_a       20.16671
_cell_length_b       20.16621
_cell_length_c       20.16621
_cell_angle_alpha    91.25067
_cell_angle_beta     91.2571
_cell_angle_gamma    91.25576

_symmetry_space_group_name_H-M    'P 1'
_symmetry_Int_Tables_number       1

loop_
  _symmetry_equiv_pos_as_xyz
  'x,y,z'

loop_
  _atom_site_type_symbol
  _atom_site_label
  _atom_site_symmetry_multiplicity
  _atom_site_fract_x
  _atom_site_fract_y
  _atom_site_fract_z
  _atom_site_occupancy
  La  La1       1.0  0.7457  0.13529  0.0101  1.0000
  La  La2       1.0  0.7557499999999999  0.86868  0.50677  1.0000
  La  La3       1.0  0.25681000000000004  0.63479  0.48951  1.0000
  La  La4       1.0  0.24144999999999994  0.3642  0.98194  1.0000
  La  La5       1.0  0.010109999999999997  0.74569  0.13528  1.0000
  La  La6       1.0  0.50676  0.75575  0.8686800000000001  1.0000
  La  La7       1.0  0.48956  0.25681  0.6348  1.0000
  La  La8       1.0  0.9819299999999999  0.24145999999999998  0.3642  1.0000
  La  La9       1.0  0.1353  0.010089999999999997  0.74569  1.0000
  La  La10      1.0  0.86868  0.50677  0.75573  1.0000
  La  La11      1.0  0.6347999999999999  0.48954000000000003  0.2568  1.0000
  La  La12      1.0  0.3642  0.98193  0.24145999999999998  1.0000
  La  La13      1.0  0.2543  0.8647  0.9899000000000001  1.0000
  La  La14      1.0  0.24424999999999997  0.13131  0.49323  1.0000
  La  La15      1.0  0.74319  0.3652  0.51048  1.0000
  La  La16      1.0  0.7585499999999998  0.63579  0.01806  1.0000
  La  La17      1.0  0.98989  0.25431  0.86471  1.0000
  La  La18      1.0  0.4932399999999999  0.24425  0.13131  1.0000
  La  La19      1.0  0.51044  0.74318  0.36519  1.0000
  La  La20      1.0  0.01807  0.75854  0.6358  1.0000
  La  La21      1.0  0.8646999999999999  0.9899000000000001  0.25431  1.0000
  La  La22      1.0  0.13131999999999996  0.49322999999999995  0.24426000000000003  1.0000
  La  La23      1.0  0.36519999999999997  0.51045  0.7432  1.0000
  La  La24      1.0  0.6358  0.01807  0.75853  1.0000
  H   H1        1.0  0.63697  0.38554  0.02463  1.0000
  H   H2        1.0  0.73698  0.45107  0.98679  1.0000
  H   H3        1.0  0.8400499999999999  0.38869  0.9570299999999999  1.0000
  H   H4        1.0  0.87037  0.62292  0.53249  1.0000
  H   H5        1.0  0.7715199999999999  0.55219  0.49361  1.0000
  H   H6        1.0  0.6655699999999999  0.60927  0.46174  1.0000
  H   H7        1.0  0.37094  0.88562  0.46843000000000007  1.0000
  H   H8        1.0  0.27307999999999993  0.95186  0.50647  1.0000
  H   H9        1.0  0.16854  0.8896399999999999  0.53782  1.0000
  H   H10       1.0  0.13342  0.10891999999999999  0.9763300000000001  1.0000
  H   H11       1.0  0.23524999999999993  0.04994  0.01651  1.0000
  H   H12       1.0  0.33993  0.11777999999999998  0.04195  1.0000
  H   H13       1.0  0.02462  0.63696  0.38555  1.0000
  H   H14       1.0  0.98679  0.73696  0.45105999999999996  1.0000
  H   H15       1.0  0.9570399999999999  0.84004  0.38869  1.0000
  H   H16       1.0  0.53249  0.87037  0.62292  1.0000
  H   H17       1.0  0.49361999999999995  0.77153  0.55219  1.0000
  H   H18       1.0  0.46174  0.66558  0.60926  1.0000
  H   H19       1.0  0.46844  0.37092  0.88563  1.0000
  H   H20       1.0  0.5064799999999999  0.27305  0.95186  1.0000
  H   H21       1.0  0.53782  0.16852  0.88965  1.0000
  H   H22       1.0  0.9763399999999998  0.13343  0.10892  1.0000
  H   H23       1.0  0.01652  0.23527  0.049949999999999994  1.0000
  H   H24       1.0  0.04195  0.33994  0.1178  1.0000
  H   H25       1.0  0.38553999999999994  0.02462  0.63696  1.0000
  H   H26       1.0  0.4510600000000001  0.9867800000000001  0.73698  1.0000
  H   H27       1.0  0.38869  0.95703  0.84005  1.0000
  H   H28       1.0  0.62293  0.53249  0.87036  1.0000
  H   H29       1.0  0.55219  0.49361  0.77152  1.0000
  H   H30       1.0  0.60926  0.46174  0.66557  1.0000
  H   H31       1.0  0.8856299999999999  0.46843  0.37094  1.0000
  H   H32       1.0  0.95187  0.50647  0.27307  1.0000
  H   H33       1.0  0.88966  0.53782  0.16853  1.0000
  H   H34       1.0  0.10892  0.97633  0.13342  1.0000
  H   H35       1.0  0.04995  0.0165  0.23524  1.0000
  H   H36       1.0  0.11779  0.04194  0.33992  1.0000
  H   H37       1.0  0.36303  0.61445  0.97537  1.0000
  H   H38       1.0  0.26302  0.54893  0.013210000000000001  1.0000
  H   H39       1.0  0.15995  0.6113  0.04296  1.0000
  H   H40       1.0  0.12962999999999997  0.37707  0.4675099999999999  1.0000
  H   H41       1.0  0.22848  0.44780000000000003  0.50639  1.0000
  H   H42       1.0  0.33442999999999995  0.39073  0.53826  1.0000
  H   H43       1.0  0.62906  0.11436999999999997  0.53157  1.0000
  H   H44       1.0  0.7269199999999999  0.04814  0.49353  1.0000
  H   H45       1.0  0.8314599999999999  0.11035  0.46218000000000004  1.0000
  H   H46       1.0  0.86658  0.8910700000000001  0.02366  1.0000
  H   H47       1.0  0.7647499999999999  0.95005  0.9834899999999999  1.0000
  H   H48       1.0  0.66007  0.88221  0.95805  1.0000
  H   H49       1.0  0.97538  0.36303  0.61445  1.0000
  H   H50       1.0  0.01322  0.26303  0.54894  1.0000
  H   H51       1.0  0.042959999999999984  0.15996000000000005  0.6113  1.0000
  H   H52       1.0  0.4675099999999999  0.12962  0.37708  1.0000
  H   H53       1.0  0.5063799999999999  0.22846999999999998  0.44781  1.0000
  H   H54       1.0  0.5382599999999998  0.33442  0.39073  1.0000
  H   H55       1.0  0.53156  0.62908  0.11437  1.0000
  H   H56       1.0  0.49351999999999996  0.72695  0.04814  1.0000
  H   H57       1.0  0.46218  0.83148  0.11034  1.0000
  H   H58       1.0  0.023660000000000004  0.8665600000000001  0.89107  1.0000
  H   H59       1.0  0.9834799999999999  0.76473  0.95004  1.0000
  H   H60       1.0  0.95805  0.66006  0.8821999999999999  1.0000
  H   H61       1.0  0.61446  0.9753700000000001  0.36304  1.0000
  H   H62       1.0  0.5489399999999999  0.01321  0.26302  1.0000
  H   H63       1.0  0.61131  0.04296  0.15995  1.0000
  H   H64       1.0  0.37706999999999996  0.46751  0.12964  1.0000
  H   H65       1.0  0.44781  0.50638  0.22848000000000002  1.0000
  H   H66       1.0  0.39074000000000003  0.5382600000000002  0.33443  1.0000
  H   H67       1.0  0.11437  0.53156  0.62906  1.0000
  H   H68       1.0  0.04813999999999999  0.49352  0.72693  1.0000
  H   H69       1.0  0.11033999999999998  0.46218  0.83147  1.0000
  H   H70       1.0  0.8910799999999998  0.02367  0.86658  1.0000
  H   H71       1.0  0.9500499999999997  0.98349  0.76476  1.0000
  H   H72       1.0  0.88221  0.9580500000000001  0.66008  1.0000
  C   C1        1.0  0.63072  0.24899  0.03562  1.0000
  C   C2        1.0  0.68485  0.29221  0.01422  1.0000
  C   C3        1.0  0.6823399999999998  0.3611  0.01071  1.0000
  C   C4        1.0  0.73805  0.39728  0.9896200000000002  1.0000
  C   C5        1.0  0.7955299999999997  0.36281  0.9732099999999999  1.0000
  C   C6        1.0  0.7961199999999999  0.29407999999999995  0.9787599999999999  1.0000
  C   C7        1.0  0.8534199999999998  0.25265000000000004  0.96686  1.0000
  C   C8        1.0  0.87305  0.75981  0.54  1.0000
  C   C9        1.0  0.81972  0.71401  0.51853  1.0000
  C   C10       1.0  0.8239699999999999  0.64509  0.51701  1.0000
  C   C11       1.0  0.76887  0.60602  0.4956  1.0000
  C   C12       1.0  0.7098599999999999  0.63766  0.47755  1.0000
  C   C13       1.0  0.70772  0.70668  0.48080000000000006  1.0000
  C   C14       1.0  0.64921  0.74545  0.46506  1.0000
  C   C15       1.0  0.37352  0.74932  0.46077  1.0000
  C   C16       1.0  0.3203599999999999  0.79242  0.48075  1.0000
  C   C17       1.0  0.32484  0.8615  0.48294999999999993  1.0000
  C   C18       1.0  0.27038  0.89797  0.5039  1.0000
  C   C19       1.0  0.21219999999999997  0.8635700000000001  0.52148  1.0000
  C   C20       1.0  0.20984999999999998  0.79451  0.51736  1.0000
  C   C21       1.0  0.15211  0.75326  0.53296  1.0000
  C   C22       1.0  0.12612  0.24372  0.95904  1.0000
  C   C23       1.0  0.18164  0.20471  0.98238  1.0000
  C   C24       1.0  0.17939  0.13608  0.98885  1.0000
  C   C25       1.0  0.23628999999999997  0.10347000000000002  0.01104  1.0000
  C   C26       1.0  0.29455  0.1411  0.025150000000000002  1.0000
  C   C27       1.0  0.29479  0.20956000000000002  0.01682  1.0000
  C   C28       1.0  0.35257  0.25392  0.027220000000000005  1.0000
  C   C29       1.0  0.03561999999999999  0.63071  0.249  1.0000
  C   C30       1.0  0.01422  0.68485  0.29222  1.0000
  C   C31       1.0  0.01071  0.68233  0.3611  1.0000
  C   C32       1.0  0.98963  0.73805  0.39728  1.0000
  C   C33       1.0  0.9732099999999998  0.7955300000000001  0.3628  1.0000
  C   C34       1.0  0.97877  0.79612  0.29406  1.0000
  C   C35       1.0  0.96686  0.8534100000000001  0.25261  1.0000
  C   C36       1.0  0.54  0.8730499999999999  0.75981  1.0000
  C   C37       1.0  0.51853  0.8197199999999999  0.71401  1.0000
  C   C38       1.0  0.51701  0.82398  0.64509  1.0000
  C   C39       1.0  0.49561  0.76888  0.60602  1.0000
  C   C40       1.0  0.47755  0.70986  0.63766  1.0000
  C   C41       1.0  0.4808  0.70772  0.70668  1.0000
  C   C42       1.0  0.46506  0.64921  0.74545  1.0000
  C   C43       1.0  0.46077  0.37351  0.74933  1.0000
  C   C44       1.0  0.48075  0.32034  0.79243  1.0000
  C   C45       1.0  0.48295  0.32481  0.8615099999999999  1.0000
  C   C46       1.0  0.5038999999999999  0.27035  0.89798  1.0000
  C   C47       1.0  0.52148  0.21216999999999997  0.86357  1.0000
  C   C48       1.0  0.5173799999999998  0.20983  0.79451  1.0000
  C   C49       1.0  0.5331  0.1521  0.75331  1.0000
  C   C50       1.0  0.9590499999999997  0.12612  0.24373000000000003  1.0000
  C   C51       1.0  0.9823899999999999  0.18165  0.20471999999999999  1.0000
  C   C52       1.0  0.9888599999999999  0.17939  0.13609  1.0000
  C   C53       1.0  0.011039999999999996  0.2363  0.10348  1.0000
  C   C54       1.0  0.02515  0.29456  0.14111  1.0000
  C   C55       1.0  0.01682  0.2948  0.20957  1.0000
  C   C56       1.0  0.027219999999999994  0.35258  0.25392  1.0000
  C   C57       1.0  0.249  0.03562  0.63072  1.0000
  C   C58       1.0  0.2922199999999999  0.014219999999999998  0.68485  1.0000
  C   C59       1.0  0.3610999999999999  0.01071  0.68233  1.0000
  C   C60       1.0  0.39727999999999997  0.9896200000000002  0.73805  1.0000
  C   C61       1.0  0.36281  0.97321  0.7955300000000001  1.0000
  C   C62       1.0  0.29407  0.9787600000000001  0.7961200000000002  1.0000
  C   C63       1.0  0.25264  0.9668500000000001  0.85342  1.0000
  C   C64       1.0  0.75982  0.54  0.87304  1.0000
  C   C65       1.0  0.71401  0.51853  0.81971  1.0000
  C   C66       1.0  0.6450899999999999  0.51701  0.8239699999999999  1.0000
  C   C67       1.0  0.6060199999999999  0.4956  0.76887  1.0000
  C   C68       1.0  0.63765  0.47753999999999996  0.70986  1.0000
  C   C69       1.0  0.70667  0.48079000000000005  0.70772  1.0000
  C   C70       1.0  0.74543  0.46506  0.64921  1.0000
  C   C71       1.0  0.74933  0.46077000000000007  0.37352  1.0000
  C   C72       1.0  0.79243  0.48075000000000007  0.32035  1.0000
  C   C73       1.0  0.8615099999999999  0.48295  0.32483  1.0000
  C   C74       1.0  0.89798  0.5039  0.27036  1.0000
  C   C75       1.0  0.86358  0.52148  0.21218  1.0000
  C   C76       1.0  0.79452  0.51736  0.20983  1.0000
  C   C77       1.0  0.75329  0.53303  0.1521  1.0000
  C   C78       1.0  0.24371999999999996  0.95904  0.12612  1.0000
  C   C79       1.0  0.20470999999999995  0.9823799999999999  0.18164  1.0000
  C   C80       1.0  0.13608  0.98884  0.17938  1.0000
  C   C81       1.0  0.10347999999999997  0.01103  0.23628  1.0000
  C   C82       1.0  0.14109999999999998  0.02515  0.29454  1.0000
  C   C83       1.0  0.20956999999999995  0.01682  0.29479  1.0000
  C   C84       1.0  0.25392  0.02722  0.35257  1.0000
  C   C85       1.0  0.36927999999999994  0.751  0.96438  1.0000
  C   C86       1.0  0.31515  0.70778  0.98578  1.0000
  C   C87       1.0  0.31766  0.6389  0.98929  1.0000
  C   C88       1.0  0.26195  0.60271  0.01037  1.0000
  C   C89       1.0  0.20447  0.63718  0.02679  1.0000
  C   C90       1.0  0.20388  0.70592  0.02123  1.0000
  C   C91       1.0  0.14658  0.74735  0.03314  1.0000
  C   C92       1.0  0.12695  0.24018000000000003  0.45998999999999995  1.0000
  C   C93       1.0  0.18027999999999994  0.28598  0.48147  1.0000
  C   C94       1.0  0.17603  0.35490000000000005  0.48299000000000003  1.0000
  C   C95       1.0  0.23113000000000003  0.39397  0.5044  1.0000
  C   C96       1.0  0.29014  0.36233  0.52245  1.0000
  C   C97       1.0  0.29228  0.29332  0.5192  1.0000
  C   C98       1.0  0.35079  0.25455  0.53494  1.0000
  C   C99       1.0  0.62648  0.25067  0.53922  1.0000
  C   C100      1.0  0.6796399999999999  0.20757  0.51924  1.0000
  C   C101      1.0  0.67516  0.13849  0.51705  1.0000
  C   C102      1.0  0.72962  0.10202  0.49609  1.0000
  C   C103      1.0  0.7878  0.13643  0.47852  1.0000
  C   C104      1.0  0.79015  0.20549  0.48264  1.0000
  C   C105      1.0  0.8478899999999999  0.24674000000000001  0.46703000000000006  1.0000
  C   C106      1.0  0.87388  0.75627  0.04096  1.0000
  C   C107      1.0  0.8183599999999999  0.79528  0.01761  1.0000
  C   C108      1.0  0.8206099999999998  0.86391  0.01115  1.0000
  C   C109      1.0  0.7637099999999999  0.8965300000000002  0.98896  1.0000
  C   C110      1.0  0.7054499999999999  0.8589000000000001  0.9748399999999999  1.0000
  C   C111      1.0  0.70521  0.79043  0.9831800000000002  1.0000
  C   C112      1.0  0.6474299999999998  0.74608  0.9727799999999999  1.0000
  C   C113      1.0  0.96438  0.36928  0.75099  1.0000
  C   C114      1.0  0.9857799999999999  0.31515  0.70778  1.0000
  C   C115      1.0  0.9892899999999999  0.31767  0.6389  1.0000
  C   C116      1.0  0.010369999999999997  0.26195  0.60272  1.0000
  C   C117      1.0  0.02679000000000001  0.20447  0.6372  1.0000
  C   C118      1.0  0.021230000000000002  0.20387  0.70594  1.0000
  C   C119      1.0  0.033139999999999996  0.14658  0.74739  1.0000
  C   C120      1.0  0.46  0.12695  0.24019000000000001  1.0000
  C   C121      1.0  0.48147  0.18028  0.28599  1.0000
  C   C122      1.0  0.4829899999999999  0.17602  0.35491  1.0000
  C   C123      1.0  0.5043999999999998  0.23112  0.39398  1.0000
  C   C124      1.0  0.5224499999999999  0.29013  0.36234  1.0000
  C   C125      1.0  0.5192  0.29227  0.29332  1.0000
  C   C126      1.0  0.53494  0.35079  0.25455  1.0000
  C   C127      1.0  0.53923  0.62648  0.25066  1.0000
  C   C128      1.0  0.51925  0.67966  0.20757  1.0000
  C   C129      1.0  0.51705  0.67518  0.13849  1.0000
  C   C130      1.0  0.4961  0.72965  0.10202000000000001  1.0000
  C   C131      1.0  0.47852999999999996  0.78782  0.13642  1.0000
  C   C132      1.0  0.48262  0.79016  0.20548  1.0000
  C   C133      1.0  0.4668999999999999  0.84789  0.24669  1.0000
  C   C134      1.0  0.040949999999999986  0.87387  0.75627  1.0000
  C   C135      1.0  0.01761  0.8183499999999999  0.7952800000000001  1.0000
  C   C136      1.0  0.011140000000000002  0.8206000000000001  0.86391  1.0000
  C   C137      1.0  0.9889599999999998  0.76369  0.8965200000000001  1.0000
  C   C138      1.0  0.9748499999999998  0.70544  0.8588900000000002  1.0000
  C   C139      1.0  0.98319  0.7052  0.79043  1.0000
  C   C140      1.0  0.9727799999999999  0.64742  0.74608  1.0000
  C   C141      1.0  0.751  0.9643800000000001  0.36928  1.0000
  C   C142      1.0  0.70778  0.9857800000000001  0.31515  1.0000
  C   C143      1.0  0.6389000000000001  0.98929  0.31766  1.0000
  C   C144      1.0  0.60272  0.01037  0.26195  1.0000
  C   C145      1.0  0.63719  0.02679  0.20447  1.0000
  C   C146      1.0  0.70593  0.02123  0.20388  1.0000
  C   C147      1.0  0.7473599999999999  0.03314  0.14658  1.0000
  C   C148      1.0  0.24018  0.45998999999999995  0.12696  1.0000
  C   C149      1.0  0.28599  0.48147  0.18029  1.0000
  C   C150      1.0  0.35490999999999995  0.48299000000000003  0.17603  1.0000
  C   C151      1.0  0.39398  0.5044  0.23113000000000003  1.0000
  C   C152      1.0  0.36235  0.52245  0.29014  1.0000
  C   C153      1.0  0.29333  0.5192  0.29228  1.0000
  C   C154      1.0  0.25457  0.53493  0.35079  1.0000
  C   C155      1.0  0.25067  0.53923  0.62648  1.0000
  C   C156      1.0  0.20757  0.51924  0.67965  1.0000
  C   C157      1.0  0.13848999999999997  0.51705  0.67517  1.0000
  C   C158      1.0  0.10201999999999997  0.4960899999999999  0.72964  1.0000
  C   C159      1.0  0.13642  0.47851999999999995  0.78782  1.0000
  C   C160      1.0  0.20548  0.48263  0.79016  1.0000
  C   C161      1.0  0.24670999999999998  0.46697  0.8479  1.0000
  C   C162      1.0  0.75628  0.04096  0.8738799999999999  1.0000
  C   C163      1.0  0.7952899999999999  0.01762  0.81836  1.0000
  C   C164      1.0  0.8639199999999999  0.011149999999999998  0.8206199999999999  1.0000
  C   C165      1.0  0.8965299999999999  0.98896  0.76371  1.0000
  C   C166      1.0  0.8589  0.97484  0.70546  1.0000
  C   C167      1.0  0.79043  0.98318  0.70521  1.0000
  C   C168      1.0  0.74608  0.97278  0.64743  1.0000
  N   N1        1.0  0.7411999999999999  0.25818  0.99842  1.0000
  N   N2        1.0  0.7622099999999999  0.74539  0.50011  1.0000
  N   N3        1.0  0.26334  0.75828  0.49743  1.0000
  N   N4        1.0  0.23858000000000001  0.24200000000000002  0.9964000000000001  1.0000
  N   N5        1.0  0.99843  0.7412  0.25818  1.0000
  N   N6        1.0  0.50011  0.76221  0.74539  1.0000
  N   N7        1.0  0.49743999999999994  0.26331  0.75827  1.0000
  N   N8        1.0  0.9964  0.23858  0.24201000000000003  1.0000
  N   N9        1.0  0.25818  0.9984200000000001  0.7412  1.0000
  N   N10       1.0  0.7453899999999999  0.5001  0.76221  1.0000
  N   N11       1.0  0.75828  0.49744  0.26332  1.0000
  N   N12       1.0  0.24199999999999997  0.9964000000000001  0.23858000000000001  1.0000
  N   N13       1.0  0.2588  0.74182  0.0015799999999999998  1.0000
  N   N14       1.0  0.23779  0.2546  0.49989  1.0000
  N   N15       1.0  0.7366699999999998  0.24172  0.50257  1.0000
  N   N16       1.0  0.76142  0.75799  0.0036  1.0000
  N   N17       1.0  0.0015699999999999987  0.2588  0.74182  1.0000
  N   N18       1.0  0.49988999999999995  0.23779  0.25461  1.0000
  N   N19       1.0  0.50256  0.73668  0.24171999999999996  1.0000
  N   N20       1.0  0.0036000000000000016  0.76142  0.75799  1.0000
  N   N21       1.0  0.74182  0.0015799999999999998  0.2588  1.0000
  N   N22       1.0  0.25460999999999995  0.49989  0.23779000000000003  1.0000
  N   N23       1.0  0.24172  0.50256  0.73668  1.0000
  N   N24       1.0  0.7579999999999999  0.0036  0.76142  1.0000
  O   O1        1.0  0.63989  0.18538  0.03387  1.0000
  O   O2        1.0  0.5762399999999999  0.27316  0.05734  1.0000
  O   O3        1.0  0.8484899999999999  0.19103  0.98326  1.0000
  O   O4        1.0  0.9058499999999999  0.27637  0.93927  1.0000
  O   O5        1.0  0.86223  0.8228100000000002  0.53542  1.0000
  O   O6        1.0  0.9281999999999999  0.73801  0.56457  1.0000
  O   O7        1.0  0.65371  0.80925  0.47493  1.0000
  O   O8        1.0  0.59584  0.71708  0.44081  1.0000
  O   O9        1.0  0.36345999999999995  0.6857  0.46466  1.0000
  O   O10       1.0  0.42801  0.77407  0.43803999999999993  1.0000
  O   O11       1.0  0.15533  0.68999  0.52139  1.0000
  O   O12       1.0  0.10067  0.77943  0.55921  1.0000
  O   O13       1.0  0.13494  0.30782  0.95603  1.0000
  O   O14       1.0  0.07087  0.21537  0.9397199999999999  1.0000
  O   O15       1.0  0.3465599999999999  0.31518  0.01031  1.0000
  O   O16       1.0  0.40696  0.23263000000000003  0.05378999999999999  1.0000
  O   O17       1.0  0.03387999999999999  0.63987  0.18539  1.0000
  O   O18       1.0  0.05734  0.57623  0.27318  1.0000
  O   O19       1.0  0.9832799999999999  0.84847  0.19099  1.0000
  O   O20       1.0  0.9392599999999998  0.90585  0.27633  1.0000
  O   O21       1.0  0.5354199999999999  0.86222  0.82281  1.0000
  O   O22       1.0  0.56457  0.9282  0.73801  1.0000
  O   O23       1.0  0.47492999999999996  0.65371  0.8092500000000001  1.0000
  O   O24       1.0  0.44082  0.59583  0.71708  1.0000
  O   O25       1.0  0.46466999999999997  0.36346  0.68571  1.0000
  O   O26       1.0  0.43803000000000003  0.428  0.77407  1.0000
  O   O27       1.0  0.52164  0.15532000000000004  0.69002  1.0000
  O   O28       1.0  0.55922  0.10067  0.77968  1.0000
  O   O29       1.0  0.95604  0.13494  0.30783  1.0000
  O   O30       1.0  0.93973  0.07087  0.21536999999999998  1.0000
  O   O31       1.0  0.0103  0.34656  0.31518  1.0000
  O   O32       1.0  0.05379  0.40696  0.23264  1.0000
  O   O33       1.0  0.18539000000000003  0.03388  0.63988  1.0000
  O   O34       1.0  0.27317  0.05734  0.57623  1.0000
  O   O35       1.0  0.19102  0.9832600000000001  0.8484800000000001  1.0000
  O   O36       1.0  0.27635999999999994  0.9392599999999999  0.90585  1.0000
  O   O37       1.0  0.82281  0.53542  0.86222  1.0000
  O   O38       1.0  0.73802  0.56456  0.9281900000000001  1.0000
  O   O39       1.0  0.8092399999999998  0.4749300000000001  0.65371  1.0000
  O   O40       1.0  0.71707  0.44082  0.59583  1.0000
  O   O41       1.0  0.6857099999999999  0.46466  0.36346  1.0000
  O   O42       1.0  0.77408  0.43801999999999996  0.428  1.0000
  O   O43       1.0  0.69001  0.52152  0.15532  1.0000
  O   O44       1.0  0.77954  0.55921  0.10066  1.0000
  O   O45       1.0  0.30782  0.95603  0.13495  1.0000
  O   O46       1.0  0.21537  0.93971  0.07087  1.0000
  O   O47       1.0  0.31517999999999996  0.0103  0.34656  1.0000
  O   O48       1.0  0.23264  0.053790000000000004  0.40695  1.0000
  O   O49       1.0  0.36010999999999993  0.81462  0.9661199999999999  1.0000
  O   O50       1.0  0.42376  0.72684  0.94266  1.0000
  O   O51       1.0  0.15152  0.80897  0.01674  1.0000
  O   O52       1.0  0.09415  0.72363  0.06073  1.0000
  O   O53       1.0  0.13776999999999998  0.17718  0.46458  1.0000
  O   O54       1.0  0.0718  0.26198  0.43543000000000004  1.0000
  O   O55       1.0  0.3462899999999999  0.19074  0.52507  1.0000
  O   O56       1.0  0.40417  0.28292  0.55919  1.0000
  O   O57       1.0  0.6365399999999999  0.3143  0.53534  1.0000
  O   O58       1.0  0.57199  0.22593  0.56196  1.0000
  O   O59       1.0  0.8446799999999999  0.31  0.47861  1.0000
  O   O60       1.0  0.89933  0.22056  0.44079  1.0000
  O   O61       1.0  0.8650599999999999  0.69217  0.04396  1.0000
  O   O62       1.0  0.9291299999999999  0.78463  0.06028000000000001  1.0000
  O   O63       1.0  0.6534399999999999  0.68481  0.9896899999999998  1.0000
  O   O64       1.0  0.5930399999999999  0.76736  0.9462100000000001  1.0000
  O   O65       1.0  0.96613  0.36012  0.81461  1.0000
  O   O66       1.0  0.9426599999999999  0.42377000000000004  0.72682  1.0000
  O   O67       1.0  0.016720000000000002  0.15153  0.8090100000000001  1.0000
  O   O68       1.0  0.06074  0.09414999999999998  0.72366  1.0000
  O   O69       1.0  0.46458  0.13777  0.17719  1.0000
  O   O70       1.0  0.43542999999999993  0.07179  0.26199  1.0000
  O   O71       1.0  0.5250699999999999  0.34629  0.19074  1.0000
  O   O72       1.0  0.5591899999999999  0.40415999999999996  0.28292  1.0000
  O   O73       1.0  0.53533  0.63654  0.31429  1.0000
  O   O74       1.0  0.5619699999999999  0.57199  0.22593  1.0000
  O   O75       1.0  0.47836  0.84467  0.30998  1.0000
  O   O76       1.0  0.44077999999999995  0.8993200000000001  0.22032  1.0000
  O   O77       1.0  0.04395999999999999  0.86505  0.69217  1.0000
  O   O78       1.0  0.06027  0.92912  0.78463  1.0000
  O   O79       1.0  0.9896999999999999  0.65343  0.68482  1.0000
  O   O80       1.0  0.94621  0.59304  0.76736  1.0000
  O   O81       1.0  0.81461  0.96611  0.36012  1.0000
  O   O82       1.0  0.72684  0.9426599999999999  0.4237699999999999  1.0000
  O   O83       1.0  0.80898  0.01674  0.15152  1.0000
  O   O84       1.0  0.72364  0.06074  0.09414  1.0000
  O   O85       1.0  0.17719  0.46457000000000004  0.13778  1.0000
  O   O86       1.0  0.26198999999999995  0.43543000000000004  0.07181  1.0000
  O   O87       1.0  0.19076  0.52507  0.34629  1.0000
  O   O88       1.0  0.28293  0.55918  0.4041699999999999  1.0000
  O   O89       1.0  0.31428999999999996  0.53533  0.63654  1.0000
  O   O90       1.0  0.22591999999999998  0.56197  0.57199  1.0000
  O   O91       1.0  0.30999  0.47847  0.8446799999999999  1.0000
  O   O92       1.0  0.22046  0.44078999999999996  0.8993400000000001  1.0000
  O   O93       1.0  0.69218  0.04396  0.86505  1.0000
  O   O94       1.0  0.78463  0.06028  0.92913  1.0000
  O   O95       1.0  0.6848199999999999  0.98969  0.65344  1.0000
  O   O96       1.0  0.76736  0.94621  0.59305  1.0000
