data_image0
_chemical_formula_structural       Zn18H54C144N18O72
_chemical_formula_sum              "Zn18 H54 C144 N18 O72"
_cell_length_a       20.82137
_cell_length_b       22.92814
_cell_length_c       22.93213
_cell_angle_alpha    119.98462000000002
_cell_angle_beta     89.98751
_cell_angle_gamma    89.97129999999999

_symmetry_space_group_name_H-M    'P 1'
_symmetry_Int_Tables_number       1

loop_
  _symmetry_equiv_pos_as_xyz
  'x,y,z'

loop_
  _atom_site_type_symbol
  _atom_site_label
  _atom_site_symmetry_multiplicity
  _atom_site_fract_x
  _atom_site_fract_y
  _atom_site_fract_z
  _atom_site_occupancy
  Zn  Zn1       1.0  0.8225299999999999  0.81681  0.21440999999999996  1.0000
  Zn  Zn2       1.0  0.8455400000000001  0.8769300000000001  0.14518  1.0000
  Zn  Zn3       1.0  0.51163  0.93697  0.46287999999999996  1.0000
  Zn  Zn4       1.0  0.8205300000000001  0.39923  0.18322  1.0000
  Zn  Zn5       1.0  0.8449200000000001  0.26852  0.12334999999999999  1.0000
  Zn  Zn6       1.0  0.51159  0.52588  0.06302  1.0000
  Zn  Zn7       1.0  0.82258  0.7854000000000001  0.6024499999999999  1.0000
  Zn  Zn8       1.0  0.8453900000000001  0.8547  0.73182  1.0000
  Zn  Zn9       1.0  0.51159  0.5371799999999999  0.47413999999999995  1.0000
  Zn  Zn10      1.0  0.17746  0.1831899999999999  0.7855799999999998  1.0000
  Zn  Zn11      1.0  0.15446  0.12307000000000001  0.8548199999999999  1.0000
  Zn  Zn12      1.0  0.4883700000000001  0.06303  0.53712  1.0000
  Zn  Zn13      1.0  0.17947  0.60077  0.81678  1.0000
  Zn  Zn14      1.0  0.15508  0.7314800000000001  0.87664  1.0000
  Zn  Zn15      1.0  0.48841  0.47412000000000004  0.9369799999999999  1.0000
  Zn  Zn16      1.0  0.17742  0.21459999999999999  0.39754999999999996  1.0000
  Zn  Zn17      1.0  0.15461  0.1453  0.26818  1.0000
  Zn  Zn18      1.0  0.48841  0.46282000000000006  0.52585  1.0000
  H   H1        1.0  0.66794  0.93438  0.32704  1.0000
  H   H2        1.0  0.5899  0.13516  0.42001  1.0000
  H   H3        1.0  0.7321  0.07264999999999998  0.26327  1.0000
  H   H4        1.0  0.74157  0.22892000000000004  0.2404  1.0000
  H   H5        1.0  0.60952  0.29386  0.4059  1.0000
  H   H6        1.0  0.66592  0.43087  0.33767  1.0000
  H   H7        1.0  0.9202400000000001  0.6372099999999999  0.09116  1.0000
  H   H8        1.0  0.05933  0.53959  0.9321899999999999  1.0000
  H   H9        1.0  0.99773  0.7422199999999998  0.9948299999999998  1.0000
  H   H10       1.0  0.66775  0.39252000000000004  0.06511  1.0000
  H   H11       1.0  0.58954  0.2847  0.8646  1.0000
  H   H12       1.0  0.73191  0.19039  0.92673  1.0000
  H   H13       1.0  0.74228  0.012249999999999971  0.77102  1.0000
  H   H14       1.0  0.60924  0.11194  0.70616  1.0000
  H   H15       1.0  0.66627  0.90688  0.56924  1.0000
  H   H16       1.0  0.91916  0.4543400000000001  0.3631  1.0000
  H   H17       1.0  0.05918  0.39273  0.45974999999999994  1.0000
  H   H18       1.0  0.99703  0.25313  0.25751  1.0000
  H   H19       1.0  0.66778  0.6729700000000001  0.60741  1.0000
  H   H20       1.0  0.58983  0.57993  0.7151499999999998  1.0000
  H   H21       1.0  0.73182  0.73663  0.80941  1.0000
  H   H22       1.0  0.74218  0.7589099999999999  0.9878099999999999  1.0000
  H   H23       1.0  0.60925  0.59443  0.88827  1.0000
  H   H24       1.0  0.66648  0.6623800000000002  0.0932  1.0000
  H   H25       1.0  0.92018  0.90834  0.5456  1.0000
  H   H26       1.0  0.0591  0.06745000000000001  0.60738  1.0000
  H   H27       1.0  0.99742  0.0046799999999999385  0.7470599999999998  1.0000
  H   H28       1.0  0.33205  0.06561999999999993  0.6729499999999999  1.0000
  H   H29       1.0  0.4101000000000001  0.86484  0.57999  1.0000
  H   H30       1.0  0.2679  0.9273500000000001  0.73673  1.0000
  H   H31       1.0  0.25842  0.7710800000000001  0.7596  1.0000
  H   H32       1.0  0.39047  0.70614  0.5941  1.0000
  H   H33       1.0  0.33408  0.56913  0.66233  1.0000
  H   H34       1.0  0.07976  0.36279  0.9088399999999999  1.0000
  H   H35       1.0  0.9406700000000001  0.46041  0.06781  1.0000
  H   H36       1.0  0.00227  0.25778  0.00516  1.0000
  H   H37       1.0  0.33225  0.60748  0.9348799999999999  1.0000
  H   H38       1.0  0.41046  0.7153  0.13539  1.0000
  H   H39       1.0  0.26809  0.80961  0.07327  1.0000
  H   H40       1.0  0.25772  0.98775  0.22898  1.0000
  H   H41       1.0  0.39076  0.88806  0.29383  1.0000
  H   H42       1.0  0.33373  0.09312  0.4307599999999999  1.0000
  H   H43       1.0  0.08084  0.54566  0.6369  1.0000
  H   H44       1.0  0.9408200000000001  0.60727  0.54025  1.0000
  H   H45       1.0  0.0029700000000000004  0.7468700000000001  0.74249  1.0000
  H   H46       1.0  0.33222  0.32702999999999993  0.3925899999999999  1.0000
  H   H47       1.0  0.41017  0.42007  0.28484  1.0000
  H   H48       1.0  0.26818  0.26337  0.19059  1.0000
  H   H49       1.0  0.25782  0.24109  0.012189999999999998  1.0000
  H   H50       1.0  0.39075  0.40557  0.11172  1.0000
  H   H51       1.0  0.33352  0.3376199999999999  0.9067999999999999  1.0000
  H   H52       1.0  0.07982  0.09166000000000005  0.45439  1.0000
  H   H53       1.0  0.94089  0.93255  0.39261  1.0000
  H   H54       1.0  0.00258  0.99532  0.25294  1.0000
  C   C1        1.0  0.70532  0.99814  0.29031  1.0000
  C   C2        1.0  0.66557  0.98372  0.33136  1.0000
  C   C3        1.0  0.62361  0.03260999999999997  0.37795999999999996  1.0000
  C   C4        1.0  0.62161  0.09629999999999996  0.38360999999999995  1.0000
  C   C5        1.0  0.65991  0.11045  0.34193  1.0000
  C   C6        1.0  0.70194  0.06114000000000002  0.29491  1.0000
  C   C7        1.0  0.75281  0.94575  0.24417999999999998  1.0000
  C   C8        1.0  0.70786  0.3315  0.28411  1.0000
  C   C9        1.0  0.71158  0.26799  0.27885  1.0000
  C   C10       1.0  0.6770600000000001  0.25429  0.32295  1.0000
  C   C11       1.0  0.63743  0.30436  0.37216  1.0000
  C   C12       1.0  0.63338  0.36729  0.3766  1.0000
  C   C13       1.0  0.66913  0.38153  0.3333  1.0000
  C   C14       1.0  0.74606  0.34361  0.23642  1.0000
  C   C15       1.0  0.58833  0.41917  0.4254899999999999  1.0000
  C   C16       1.0  0.95383  0.69641  0.04738  1.0000
  C   C17       1.0  0.95123  0.63841  0.05361  1.0000
  C   C18       1.0  0.9885499999999999  0.58173  0.01147  1.0000
  C   C19       1.0  0.02984  0.5832400000000001  0.96395  1.0000
  C   C20       1.0  0.03327  0.64095  0.9586  1.0000
  C   C21       1.0  0.99482  0.6974499999999999  0.9995999999999999  1.0000
  C   C22       1.0  0.08044  0.6435  0.91113  1.0000
  C   C23       1.0  0.91363  0.7568700000000002  0.09292  1.0000
  C   C24       1.0  0.58074  0.017689999999999997  0.42167  1.0000
  C   C25       1.0  0.70511  0.29195  0.00144  1.0000
  C   C26       1.0  0.66536  0.34744  0.01585  1.0000
  C   C27       1.0  0.62339  0.3452300000000001  0.96705  1.0000
  C   C28       1.0  0.62129  0.2872100000000001  0.9034199999999999  1.0000
  C   C29       1.0  0.65963  0.2313900000000001  0.88923  1.0000
  C   C30       1.0  0.70173  0.2336  0.93842  1.0000
  C   C31       1.0  0.75259  0.29832  0.05384  1.0000
  C   C32       1.0  0.70846  0.9529300000000002  0.66852  1.0000
  C   C33       1.0  0.71209  0.011269999999999988  0.73191  1.0000
  C   C34       1.0  0.67716  0.06878000000000001  0.7455399999999999  1.0000
  C   C35       1.0  0.63732  0.06777  0.69559  1.0000
  C   C36       1.0  0.63343  0.009250000000000008  0.63273  1.0000
  C   C37       1.0  0.66947  0.9518500000000001  0.61855  1.0000
  C   C38       1.0  0.7472  0.89347  0.65654  1.0000
  C   C39       1.0  0.5883  0.0061200000000000004  0.58088  1.0000
  C   C40       1.0  0.95284  0.35143  0.30368  1.0000
  C   C41       1.0  0.95042  0.41566000000000003  0.36173  1.0000
  C   C42       1.0  0.98808  0.43005  0.41817999999999994  1.0000
  C   C43       1.0  0.02946  0.38092  0.4163  1.0000
  C   C44       1.0  0.03282  0.318  0.35853  1.0000
  C   C45       1.0  0.99415  0.30261999999999994  0.30227999999999994  1.0000
  C   C46       1.0  0.08006  0.26804  0.35588999999999993  1.0000
  C   C47       1.0  0.9121400000000001  0.33602999999999994  0.24335999999999997  1.0000
  C   C48       1.0  0.58063  0.40393  0.98205  1.0000
  C   C49       1.0  0.70518  0.70969  0.70786  1.0000
  C   C50       1.0  0.66541  0.6686999999999999  0.6524499999999999  1.0000
  C   C51       1.0  0.62347  0.6221  0.65472  1.0000
  C   C52       1.0  0.62148  0.61636  0.7127  1.0000
  C   C53       1.0  0.65977  0.658  0.76851  1.0000
  C   C54       1.0  0.70175  0.70503  0.7662299999999999  1.0000
  C   C55       1.0  0.7527  0.7557600000000001  0.70158  1.0000
  C   C56       1.0  0.70851  0.71558  0.04703  1.0000
  C   C57       1.0  0.71206  0.7207300000000001  0.9887299999999999  1.0000
  C   C58       1.0  0.67716  0.67689  0.93123  1.0000
  C   C59       1.0  0.63735  0.6279899999999999  0.9323599999999999  1.0000
  C   C60       1.0  0.63345  0.62361  0.99088  1.0000
  C   C61       1.0  0.66954  0.66672  0.0482  1.0000
  C   C62       1.0  0.74722  0.7630100000000001  0.10646999999999998  1.0000
  C   C63       1.0  0.58834  0.57487  0.99402  1.0000
  C   C64       1.0  0.95376  0.95212  0.64864  1.0000
  C   C65       1.0  0.95114  0.9458900000000001  0.5844  1.0000
  C   C66       1.0  0.9884  0.9881300000000001  0.56998  1.0000
  C   C67       1.0  0.029520000000000005  0.03569999999999998  0.61912  1.0000
  C   C68       1.0  0.03291  0.04110000000000001  0.68215  1.0000
  C   C69       1.0  0.9946300000000001  0.9999500000000001  0.69754  1.0000
  C   C70       1.0  0.08012  0.0885  0.73204  1.0000
  C   C71       1.0  0.91361  0.9065399999999999  0.6635499999999999  1.0000
  C   C72       1.0  0.58066  0.57842  0.59606  1.0000
  C   C73       1.0  0.29467  0.0018599999999999487  0.70968  1.0000
  C   C74       1.0  0.33442  0.016279999999999965  0.6686399999999999  1.0000
  C   C75       1.0  0.37638  0.96739  0.62203  1.0000
  C   C76       1.0  0.37839  0.9037  0.61638  1.0000
  C   C77       1.0  0.34009  0.88955  0.65807  1.0000
  C   C78       1.0  0.29806  0.93886  0.70509  1.0000
  C   C79       1.0  0.24719  0.05425000000000008  0.75582  1.0000
  C   C80       1.0  0.29214  0.6684999999999999  0.7158799999999998  1.0000
  C   C81       1.0  0.28842  0.73201  0.72114  1.0000
  C   C82       1.0  0.32294  0.74571  0.67705  1.0000
  C   C83       1.0  0.36257  0.69564  0.62783  1.0000
  C   C84       1.0  0.36662  0.63271  0.6233899999999999  1.0000
  C   C85       1.0  0.33087  0.61847  0.6667  1.0000
  C   C86       1.0  0.25394  0.6564  0.76358  1.0000
  C   C87       1.0  0.41167  0.5808399999999999  0.5744999999999999  1.0000
  C   C88       1.0  0.04617  0.3035899999999999  0.9526099999999997  1.0000
  C   C89       1.0  0.04876  0.36159  0.94639  1.0000
  C   C90       1.0  0.01144  0.4182699999999999  0.9885199999999998  1.0000
  C   C91       1.0  0.97016  0.41676  0.03605  1.0000
  C   C92       1.0  0.96673  0.35905  0.041389999999999996  1.0000
  C   C93       1.0  0.00518  0.30255  0.0004  1.0000
  C   C94       1.0  0.91956  0.35651000000000005  0.08887  1.0000
  C   C95       1.0  0.08637  0.24313  0.90707  1.0000
  C   C96       1.0  0.4192600000000001  0.9823100000000001  0.5783199999999998  1.0000
  C   C97       1.0  0.29489  0.7080500000000001  0.9985599999999999  1.0000
  C   C98       1.0  0.33464  0.65256  0.98414  1.0000
  C   C99       1.0  0.37661  0.65477  0.03294  1.0000
  C   C100      1.0  0.37871  0.7128000000000001  0.09657  1.0000
  C   C101      1.0  0.34037  0.76861  0.11075999999999998  1.0000
  C   C102      1.0  0.29826  0.7664000000000001  0.06157  1.0000
  C   C103      1.0  0.24741  0.7016899999999998  0.9461499999999998  1.0000
  C   C104      1.0  0.29154  0.04706999999999999  0.33147999999999994  1.0000
  C   C105      1.0  0.2879  0.98873  0.26808  1.0000
  C   C106      1.0  0.32284  0.93122  0.25445  1.0000
  C   C107      1.0  0.36268  0.9322300000000001  0.3044  1.0000
  C   C108      1.0  0.36657  0.99075  0.36726  1.0000
  C   C109      1.0  0.33053  0.048139999999999995  0.38145  1.0000
  C   C110      1.0  0.2528  0.10653  0.34345  1.0000
  C   C111      1.0  0.4117  0.9938800000000001  0.4191099999999999  1.0000
  C   C112      1.0  0.04716  0.64857  0.69631  1.0000
  C   C113      1.0  0.04958  0.58434  0.6382599999999999  1.0000
  C   C114      1.0  0.01192  0.56995  0.58182  1.0000
  C   C115      1.0  0.9705400000000001  0.61909  0.5836899999999999  1.0000
  C   C116      1.0  0.96717  0.682  0.64147  1.0000
  C   C117      1.0  0.00585  0.69738  0.69771  1.0000
  C   C118      1.0  0.9199300000000001  0.73196  0.6441  1.0000
  C   C119      1.0  0.08786  0.66397  0.7566399999999999  1.0000
  C   C120      1.0  0.41937  0.59607  0.01796  1.0000
  C   C121      1.0  0.29482  0.29031  0.29213999999999996  1.0000
  C   C122      1.0  0.33458  0.3313  0.34753999999999996  1.0000
  C   C123      1.0  0.37653  0.37790000000000007  0.34528  1.0000
  C   C124      1.0  0.37852  0.38364  0.28729  1.0000
  C   C125      1.0  0.34023  0.342  0.23149  1.0000
  C   C126      1.0  0.29825  0.29497  0.23377  1.0000
  C   C127      1.0  0.2473  0.24423000000000003  0.29841  1.0000
  C   C128      1.0  0.29149  0.2844300000000001  0.95296  1.0000
  C   C129      1.0  0.28794  0.27928  0.01127  1.0000
  C   C130      1.0  0.32284  0.32311  0.06876  1.0000
  C   C131      1.0  0.36265  0.37201  0.06763  1.0000
  C   C132      1.0  0.36655  0.37639  0.00911  1.0000
  C   C133      1.0  0.33046  0.33327999999999997  0.95179  1.0000
  C   C134      1.0  0.25277  0.23698999999999995  0.89353  1.0000
  C   C135      1.0  0.4116600000000001  0.42513  0.005979999999999999  1.0000
  C   C136      1.0  0.04623  0.047880000000000006  0.35136  1.0000
  C   C137      1.0  0.04886  0.05411000000000001  0.41559  1.0000
  C   C138      1.0  0.0116  0.011870000000000006  0.43002  1.0000
  C   C139      1.0  0.97048  0.9643  0.38086999999999993  1.0000
  C   C140      1.0  0.9670800000000002  0.9589  0.31783999999999996  1.0000
  C   C141      1.0  0.00536  5.000000000000779e-05  0.30245  1.0000
  C   C142      1.0  0.91988  0.9115  0.26796  1.0000
  C   C143      1.0  0.08639  0.09346  0.33645  1.0000
  C   C144      1.0  0.41934000000000005  0.4215899999999999  0.40392999999999996  1.0000
  N   N1        1.0  0.65231  0.17641  0.3522  1.0000
  N   N2        1.0  0.6852  0.18825  0.31245  1.0000
  N   N3        1.0  0.9827599999999999  0.52502  0.02033  1.0000
  N   N4        1.0  0.65206  0.17578000000000002  0.82331  1.0000
  N   N5        1.0  0.68514  0.1243  0.8115  1.0000
  N   N6        1.0  0.9827000000000001  0.49554  0.4751099999999999  1.0000
  N   N7        1.0  0.65225  0.64767  0.82417  1.0000
  N   N8        1.0  0.68518  0.68738  0.87569  1.0000
  N   N9        1.0  0.98286  0.97948  0.50449  1.0000
  N   N10       1.0  0.34769  0.82359  0.64779  1.0000
  N   N11       1.0  0.3148  0.8117499999999999  0.6875399999999999  1.0000
  N   N12       1.0  0.01724  0.47497999999999996  0.9796699999999999  1.0000
  N   N13       1.0  0.34793  0.8242200000000001  0.17668  1.0000
  N   N14       1.0  0.31486  0.8757  0.18849  1.0000
  N   N15       1.0  0.0173  0.50446  0.52489  1.0000
  N   N16       1.0  0.34775  0.35233000000000003  0.17582999999999996  1.0000
  N   N17       1.0  0.31482  0.31262  0.12431  1.0000
  N   N18       1.0  0.01714  0.020520000000000035  0.49551  1.0000
  O   O1        1.0  0.76058  0.8962  0.25419  1.0000
  O   O2        1.0  0.7825700000000001  0.9539600000000001  0.19969999999999996  1.0000
  O   O3        1.0  0.57505  0.9561  0.40636999999999995  1.0000
  O   O4        1.0  0.55239  0.06789000000000005  0.4708  1.0000
  O   O5        1.0  0.55918  0.40564  0.46647  1.0000
  O   O6        1.0  0.58135  0.47254  0.4215499999999999  1.0000
  O   O7        1.0  0.75325  0.40407  0.24779  1.0000
  O   O8        1.0  0.77001  0.29105  0.18651  1.0000
  O   O9        1.0  0.90605  0.80348  0.07796  1.0000
  O   O10       1.0  0.8893900000000001  0.757  0.14416  1.0000
  O   O11       1.0  0.11064000000000002  0.58926  0.87063  1.0000
  O   O12       1.0  0.08764  0.70095  0.91577  1.0000
  O   O13       1.0  0.76008  0.358  0.10333  1.0000
  O   O14       1.0  0.78255  0.24583  0.04581999999999999  1.0000
  O   O15       1.0  0.575  0.45019  0.04363999999999999  1.0000
  O   O16       1.0  0.5523  0.40292  0.9318899999999999  1.0000
  O   O17       1.0  0.55914  0.06059999999999999  0.59427  1.0000
  O   O18       1.0  0.58126  0.9487100000000002  0.5277  1.0000
  O   O19       1.0  0.75379  0.8437900000000002  0.5964299999999999  1.0000
  O   O20       1.0  0.7725200000000001  0.89714  0.70905  1.0000
  O   O21       1.0  0.9054100000000002  0.27431  0.19672  1.0000
  O   O22       1.0  0.88662  0.38653  0.24313  1.0000
  O   O23       1.0  0.11015  0.28158999999999995  0.41008999999999995  1.0000
  O   O24       1.0  0.08758  0.21544  0.29829  1.0000
  O   O25       1.0  0.76043  0.7457899999999997  0.6420199999999999  1.0000
  O   O26       1.0  0.78251  0.8001399999999997  0.7542099999999999  1.0000
  O   O27       1.0  0.57499  0.59377  0.54981  1.0000
  O   O28       1.0  0.55234  0.52926  0.59707  1.0000
  O   O29       1.0  0.55924  0.53379  0.9395499999999999  1.0000
  O   O30       1.0  0.58131  0.57902  0.05141  1.0000
  O   O31       1.0  0.75381  0.7525  0.1561  1.0000
  O   O32       1.0  0.7725200000000001  0.81189  0.10282999999999999  1.0000
  O   O33       1.0  0.90591  0.92156  0.7251  1.0000
  O   O34       1.0  0.8895500000000001  0.85521  0.61241  1.0000
  O   O35       1.0  0.11025000000000001  0.12915999999999997  0.71857  1.0000
  O   O36       1.0  0.0876  0.08340000000000006  0.78461  1.0000
  O   O37       1.0  0.23942  0.10381000000000003  0.7458  1.0000
  O   O38       1.0  0.21743  0.04604  0.80029  1.0000
  O   O39       1.0  0.42495000000000005  0.043910000000000025  0.59363  1.0000
  O   O40       1.0  0.4476  0.93211  0.5292  1.0000
  O   O41       1.0  0.44082  0.59436  0.5335299999999998  1.0000
  O   O42       1.0  0.41865  0.52746  0.57844  1.0000
  O   O43       1.0  0.24674  0.59593  0.75221  1.0000
  O   O44       1.0  0.22998999999999997  0.70895  0.81348  1.0000
  O   O45       1.0  0.09394  0.19651999999999992  0.9220299999999998  1.0000
  O   O46       1.0  0.1106  0.2429999999999999  0.85584  1.0000
  O   O47       1.0  0.88936  0.41074  0.12936  1.0000
  O   O48       1.0  0.91235  0.29905  0.08422  1.0000
  O   O49       1.0  0.23992  0.642  0.89667  1.0000
  O   O50       1.0  0.21745000000000003  0.7541600000000002  0.95418  1.0000
  O   O51       1.0  0.425  0.5498  0.95635  1.0000
  O   O52       1.0  0.44769000000000003  0.59708  0.0681  1.0000
  O   O53       1.0  0.44086  0.9394  0.4057299999999999  1.0000
  O   O54       1.0  0.41873  0.05129999999999997  0.4723  1.0000
  O   O55       1.0  0.24621000000000004  0.15621000000000002  0.40357  1.0000
  O   O56       1.0  0.22748  0.10286  0.29095  1.0000
  O   O57       1.0  0.09458  0.7256900000000001  0.80327  1.0000
  O   O58       1.0  0.11338000000000001  0.61347  0.75687  1.0000
  O   O59       1.0  0.88985  0.7184100000000001  0.58991  1.0000
  O   O60       1.0  0.9124200000000001  0.78457  0.70171  1.0000
  O   O61       1.0  0.23957000000000003  0.25421000000000005  0.35797  1.0000
  O   O62       1.0  0.21748000000000003  0.19986000000000004  0.24578  1.0000
  O   O63       1.0  0.42501  0.40623  0.45019  1.0000
  O   O64       1.0  0.44766  0.47074  0.40292  1.0000
  O   O65       1.0  0.44076  0.46621  0.06044  1.0000
  O   O66       1.0  0.41869  0.4209799999999999  0.9485799999999999  1.0000
  O   O67       1.0  0.24619  0.24750000000000005  0.8439  1.0000
  O   O68       1.0  0.22748  0.18810999999999992  0.8971599999999998  1.0000
  O   O69       1.0  0.09408  0.07844  0.27489  1.0000
  O   O70       1.0  0.11045  0.14479000000000006  0.38759  1.0000
  O   O71       1.0  0.88975  0.8708399999999997  0.28142  1.0000
  O   O72       1.0  0.9124000000000001  0.9166000000000001  0.21538999999999997  1.0000
