data_image0
_chemical_formula_structural       Ni4H96C120N24O24
_chemical_formula_sum              "Ni4 H96 C120 N24 O24"
_cell_length_a       20.32676
_cell_length_b       20.325150000000004
_cell_length_c       20.32531
_cell_angle_alpha    109.52986999999999
_cell_angle_beta     109.53818000000001
_cell_angle_gamma    109.53787

_space_group_name_H-M_alt    "P 1"
_space_group_IT_number       1

loop_
  _space_group_symop_operation_xyz
  'x, y, z'

loop_
  _atom_site_type_symbol
  _atom_site_label
  _atom_site_symmetry_multiplicity
  _atom_site_fract_x
  _atom_site_fract_y
  _atom_site_fract_z
  _atom_site_occupancy
  Ni  Ni1       1.0  0.0  0.5  0.0  1.0000
  Ni  Ni2       1.0  0.4999999999999999  0.0  0.0  1.0000
  Ni  Ni3       1.0  0.0  0.0  0.5  1.0000
  Ni  Ni4       1.0  0.4999999999999999  0.5  0.5  1.0000
  H   H1        1.0  0.03785  0.36884  0.10754  1.0000
  H   H2        1.0  0.38811999999999997  0.10489999999999997  0.8023  1.0000
  H   H3        1.0  0.11429999999999997  0.8516699999999999  0.17578  1.0000
  H   H4        1.0  0.41377  0.71625  0.61137  1.0000
  H   H5        1.0  0.17577  0.11430999999999998  0.85165  1.0000
  H   H6        1.0  0.28316  0.69733  0.8950900000000003  1.0000
  H   H7        1.0  0.17514  0.32368  0.06085000000000001  1.0000
  H   H8        1.0  0.6694499999999999  0.038330000000000086  0.93076  1.0000
  H   H9        1.0  0.6099  0.51181  0.4197200000000001  1.0000
  H   H10       1.0  0.63166  0.66921  0.73924  1.0000
  H   H11       1.0  0.10488999999999994  0.8022799999999998  0.3881100000000001  1.0000
  H   H12       1.0  0.6113499999999998  0.41375999999999996  0.71624  1.0000
  H   H13       1.0  0.6692099999999996  0.7392899999999998  0.6317  1.0000
  H   H14       1.0  0.6973499999999998  0.89509  0.28318  1.0000
  H   H15       1.0  0.11429999999999997  0.93858  0.26267  1.0000
  H   H16       1.0  0.9391600000000001  0.8248599999999999  0.67632  1.0000
  H   H17       1.0  0.19767999999999988  0.6118599999999998  0.8951  1.0000
  H   H18       1.0  0.4881899999999999  0.58029  0.39011  1.0000
  H   H19       1.0  0.10489999999999997  0.71683  0.30268  1.0000
  H   H20       1.0  0.2613400000000001  0.9302899999999998  0.8924600000000003  1.0000
  H   H21       1.0  0.8950999999999999  0.28316  0.69732  1.0000
  H   H22       1.0  0.09258999999999999  0.19065  0.58009  1.0000
  H   H23       1.0  0.8857  0.061410000000000006  0.73732  1.0000
  H   H24       1.0  0.26217999999999997  0.32383  0.14785  1.0000
  H   H25       1.0  0.90192  0.38966  0.8097  1.0000
  H   H26       1.0  0.061400000000000045  0.7373  0.88569  1.0000
  H   H27       1.0  0.8924499999999999  0.2612800000000002  0.9302500000000002  1.0000
  H   H28       1.0  0.41394999999999993  0.8018599999999999  0.6969800000000003  1.0000
  H   H29       1.0  0.90783  0.48773999999999995  0.09801  1.0000
  H   H30       1.0  0.3688599999999999  0.10754  0.03787  1.0000
  H   H31       1.0  0.7168399999999999  0.30267  0.10491  1.0000
  H   H32       1.0  0.06973000000000001  0.10754  0.73867  1.0000
  H   H33       1.0  0.8242300000000001  0.88569  0.14834000000000006  1.0000
  H   H34       1.0  0.8924499999999997  0.96216  0.6311900000000003  1.0000
  H   H35       1.0  0.90199  0.09221000000000004  0.51229  1.0000
  H   H36       1.0  0.14785  0.26218  0.32383  1.0000
  H   H37       1.0  0.9616599999999998  0.06921999999999998  0.33056  1.0000
  H   H38       1.0  0.51181  0.41971  0.60989  1.0000
  H   H39       1.0  0.03834000000000011  0.9307800000000003  0.6694400000000003  1.0000
  H   H40       1.0  0.58623  0.28375  0.38863  1.0000
  H   H41       1.0  0.38968  0.8097200000000002  0.9019200000000003  1.0000
  H   H42       1.0  0.26075  0.36833  0.33079  1.0000
  H   H43       1.0  0.26271000000000005  0.11430000000000017  0.9386100000000003  1.0000
  H   H44       1.0  0.9302799999999999  0.89246  0.26133  1.0000
  H   H45       1.0  0.06083999999999996  0.1751399999999999  0.32368  1.0000
  H   H46       1.0  0.28376  0.38864999999999994  0.58624  1.0000
  H   H47       1.0  0.71624  0.6113499999999998  0.41376  1.0000
  H   H48       1.0  0.5801  0.09262  0.19069  1.0000
  H   H49       1.0  0.10754999999999999  0.73872  0.06975  1.0000
  H   H50       1.0  0.19026000000000004  0.0980700000000001  0.6103000000000002  1.0000
  H   H51       1.0  0.41970999999999997  0.60991  0.51182  1.0000
  H   H52       1.0  0.38865  0.58624  0.28376  1.0000
  H   H53       1.0  0.09809000000000001  0.61033  0.1903  1.0000
  H   H54       1.0  0.73866  0.06969999999999998  0.10754  1.0000
  H   H55       1.0  0.3901100000000001  0.48819  0.5802800000000002  1.0000
  H   H56       1.0  0.30265  0.10491000000000014  0.7168200000000002  1.0000
  H   H57       1.0  0.06922000000000011  0.3305600000000001  0.9616500000000002  1.0000
  H   H58       1.0  0.73925  0.63166  0.66921  1.0000
  H   H59       1.0  0.32368999999999987  0.06087000000000003  0.17515000000000006  1.0000
  H   H60       1.0  0.8951099999999999  0.19771  0.61189  1.0000
  H   H61       1.0  0.80232  0.38813999999999993  0.10490000000000002  1.0000
  H   H62       1.0  0.09217  0.51225  0.90199  1.0000
  H   H63       1.0  0.7372899999999999  0.88569  0.06139000000000001  1.0000
  H   H64       1.0  0.73782  0.6761699999999999  0.8521500000000002  1.0000
  H   H65       1.0  0.85164  0.17574999999999996  0.11431  1.0000
  H   H66       1.0  0.8857  0.14832  0.82422  1.0000
  H   H67       1.0  0.32383999999999996  0.14782000000000006  0.2621400000000001  1.0000
  H   H68       1.0  0.6103199999999999  0.19027  0.09808  1.0000
  H   H69       1.0  0.9386  0.26269  0.11431  1.0000
  H   H70       1.0  0.41989999999999994  0.90738  0.8093100000000002  1.0000
  H   H71       1.0  0.19811  0.30299  0.58606  1.0000
  H   H72       1.0  0.33054999999999995  0.9616699999999999  0.06924  1.0000
  H   H73       1.0  0.09801  0.90778  0.48771  1.0000
  H   H74       1.0  0.90741  0.80934  0.4199  1.0000
  H   H75       1.0  0.58606  0.19813999999999996  0.30302  1.0000
  H   H76       1.0  0.9621500000000002  0.63115  0.8924600000000003  1.0000
  H   H77       1.0  0.19066  0.5801  0.09260000000000002  1.0000
  H   H78       1.0  0.8521499999999999  0.7378199999999999  0.67617  1.0000
  H   H79       1.0  0.6763100000000001  0.93913  0.8248500000000002  1.0000
  H   H80       1.0  0.303  0.58606  0.19811000000000006  1.0000
  H   H81       1.0  0.58029  0.39009  0.48818  1.0000
  H   H82       1.0  0.6969999999999997  0.4139299999999999  0.80188  1.0000
  H   H83       1.0  0.3307899999999999  0.26071  0.3683  1.0000
  H   H84       1.0  0.8097399999999997  0.9019199999999999  0.3897000000000001  1.0000
  H   H85       1.0  0.61188  0.8950999999999999  0.1977  1.0000
  H   H86       1.0  0.51228  0.9019999999999998  0.09219  1.0000
  H   H87       1.0  0.14836  0.8242499999999999  0.88569  1.0000
  H   H88       1.0  0.48772  0.09800000000000007  0.9078000000000003  1.0000
  H   H89       1.0  0.80189  0.6969999999999998  0.41394  1.0000
  H   H90       1.0  0.6311400000000001  0.8924600000000003  0.9621300000000003  1.0000
  H   H91       1.0  0.36834000000000006  0.33079  0.26076  1.0000
  H   H92       1.0  0.8248599999999999  0.67632  0.93915  1.0000
  H   H93       1.0  0.10755000000000003  0.03784000000000004  0.36881000000000014  1.0000
  H   H94       1.0  0.8093500000000001  0.41990000000000005  0.9074000000000002  1.0000
  H   H95       1.0  0.67616  0.85217  0.73785  1.0000
  H   H96       1.0  0.9307799999999998  0.66944  0.03834000000000001  1.0000
  C   C1        1.0  0.25128000000000006  0.10919000000000013  0.7964100000000002  1.0000
  C   C2        1.0  0.89259  0.2607199999999999  0.87667  1.0000
  C   C3        1.0  0.68723  0.54508  0.7964  1.0000
  C   C4        1.0  0.10732999999999998  0.98408  0.36809  1.0000
  C   C5        1.0  0.38026999999999994  0.52746  0.27426  1.0000
  C   C6        1.0  0.10914999999999994  0.85794  0.3128  1.0000
  C   C7        1.0  0.2036  0.31277  0.45491  1.0000
  C   C8        1.0  0.80646  0.4731  0.91018  1.0000
  C   C9        1.0  0.80029  0.68984  0.61734  1.0000
  C   C10       1.0  0.5624999999999998  0.4728800000000001  0.6662800000000002  1.0000
  C   C11       1.0  0.8770499999999999  0.6162599999999999  0.9844199999999999  1.0000
  C   C12       1.0  0.01589999999999992  0.6318899999999998  0.89267  1.0000
  C   C13       1.0  0.5273199999999999  0.14741999999999994  0.2534  1.0000
  C   C14       1.0  0.8172199999999998  0.8895599999999999  0.20001  1.0000
  C   C15       1.0  0.10595999999999996  0.8527899999999999  0.38002  1.0000
  C   C16       1.0  0.91037  0.43724  0.10368  1.0000
  C   C17       1.0  0.4374999999999999  0.5271199999999999  0.33372  1.0000
  C   C18       1.0  0.54508  0.7964  0.68723  1.0000
  C   C19       1.0  0.9841  0.36811  0.10733000000000002  1.0000
  C   C20       1.0  0.7963999999999998  0.6872299999999999  0.54508  1.0000
  C   C21       1.0  0.11044  0.8000099999999999  0.18279  1.0000
  C   C22       1.0  0.74661  0.4726799999999999  0.85258  1.0000
  C   C23       1.0  0.26043  0.36783  0.38395  1.0000
  C   C24       1.0  0.31046  0.11039  0.92769  1.0000
  C   C25       1.0  0.14741  0.25339  0.52732  1.0000
  C   C26       1.0  0.19344999999999996  0.10379999999999992  0.66653  1.0000
  C   C27       1.0  0.33371999999999996  0.43749  0.5271100000000002  1.0000
  C   C28       1.0  0.38253  0.07202999999999998  0.18244  1.0000
  C   C29       1.0  0.56278  0.89632  0.08964  1.0000
  C   C30       1.0  0.14204999999999982  0.6871899999999996  0.89084  1.0000
  C   C31       1.0  0.18278  0.11043999999999994  0.79999  1.0000
  C   C32       1.0  0.14719000000000002  0.6199600000000001  0.89403  1.0000
  C   C33       1.0  0.8940400000000001  0.14721000000000006  0.6199800000000002  1.0000
  C   C34       1.0  0.72602  0.25327  0.10603000000000003  1.0000
  C   C35       1.0  0.18243999999999996  0.38253  0.07202  1.0000
  C   C36       1.0  0.43721999999999994  0.10367000000000005  0.91036  1.0000
  C   C37       1.0  0.19354  0.5269  0.08982  1.0000
  C   C38       1.0  0.8766899999999999  0.89259  0.26076  1.0000
  C   C39       1.0  0.01557999999999998  0.12294999999999999  0.38374  1.0000
  C   C40       1.0  0.6174699999999997  0.9279699999999999  0.81755  1.0000
  C   C41       1.0  0.19971  0.31015  0.38265  1.0000
  C   C42       1.0  0.6199699999999999  0.8940299999999999  0.1472  1.0000
  C   C43       1.0  0.38395  0.26041000000000003  0.3678000000000001  1.0000
  C   C44       1.0  0.07231999999999995  0.68955  0.8896  1.0000
  C   C45       1.0  0.1036799999999999  0.9103399999999999  0.4372100000000001  1.0000
  C   C46       1.0  0.6895399999999999  0.8896  0.07231000000000003  1.0000
  C   C47       1.0  0.68719  0.8908399999999999  0.14205  1.0000
  C   C48       1.0  0.9101899999999999  0.8064599999999998  0.47310000000000013  1.0000
  C   C49       1.0  0.8963200000000001  0.08965000000000013  0.5627900000000002  1.0000
  C   C50       1.0  0.3101599999999999  0.3826599999999999  0.19971  1.0000
  C   C51       1.0  0.7488199999999999  0.54519  0.85798  1.0000
  C   C52       1.0  0.7487199999999998  0.8908099999999999  0.20359000000000005  1.0000
  C   C53       1.0  0.7467399999999997  0.89397  0.2739900000000001  1.0000
  C   C54       1.0  0.36783  0.38394999999999996  0.26043  1.0000
  C   C55       1.0  0.3334599999999999  0.8065499999999999  0.8962  1.0000
  C   C56       1.0  0.7257399999999998  0.6197300000000001  0.4725400000000001  1.0000
  C   C57       1.0  0.25118  0.4548  0.14202000000000006  1.0000
  C   C58       1.0  0.47268  0.85257  0.7466  1.0000
  C   C59       1.0  0.38266000000000006  0.19968999999999998  0.31014  1.0000
  C   C60       1.0  0.6898400000000001  0.6173400000000001  0.8002900000000001  1.0000
  C   C61       1.0  0.45492  0.2035899999999999  0.31276  1.0000
  C   C62       1.0  0.14202000000000004  0.25117000000000006  0.4548000000000001  1.0000
  C   C63       1.0  0.61973  0.47254  0.72574  1.0000
  C   C64       1.0  0.63188  0.89267  0.01589000000000001  1.0000
  C   C65       1.0  0.66654  0.19345  0.10380000000000003  1.0000
  C   C66       1.0  0.26076000000000005  0.8767  0.8925900000000002  1.0000
  C   C67       1.0  0.8908499999999999  0.14206  0.6872  1.0000
  C   C68       1.0  0.85259  0.74661  0.47268  1.0000
  C   C69       1.0  0.52689  0.08983999999999998  0.19356  1.0000
  C   C70       1.0  0.5274599999999999  0.27425  0.38026  1.0000
  C   C71       1.0  0.27426000000000006  0.38027000000000005  0.5274600000000002  1.0000
  C   C72       1.0  0.9279799999999999  0.81756  0.61747  1.0000
  C   C73       1.0  0.08963000000000014  0.5627600000000001  0.8963200000000002  1.0000
  C   C74       1.0  0.7999799999999999  0.18276999999999996  0.11044  1.0000
  C   C75       1.0  0.61627  0.98441  0.8770300000000002  1.0000
  C   C76       1.0  0.63217  0.61605  0.73956  1.0000
  C   C77       1.0  0.47311000000000003  0.91016  0.8064400000000003  1.0000
  C   C78       1.0  0.10602999999999999  0.72602  0.25327  1.0000
  C   C79       1.0  0.27397999999999983  0.7467299999999997  0.89396  1.0000
  C   C80       1.0  0.8939699999999999  0.27398  0.74672  1.0000
  C   C81       1.0  0.73957  0.63217  0.6160500000000002  1.0000
  C   C82       1.0  0.8065499999999999  0.8961999999999999  0.3334700000000001  1.0000
  C   C83       1.0  0.8579499999999999  0.31281  0.10915  1.0000
  C   C84       1.0  0.92768  0.31044999999999995  0.11039  1.0000
  C   C85       1.0  0.61605  0.73959  0.63219  1.0000
  C   C86       1.0  0.12331000000000003  0.1074  0.73924  1.0000
  C   C87       1.0  0.8175599999999998  0.61747  0.92797  1.0000
  C   C88       1.0  0.07201999999999999  0.18244  0.38253  1.0000
  C   C89       1.0  0.1038  0.66656  0.19347  1.0000
  C   C90       1.0  0.8895599999999999  0.1999900000000001  0.8172100000000002  1.0000
  C   C91       1.0  0.8528100000000001  0.38004  0.10597000000000002  1.0000
  C   C92       1.0  0.38374  0.015590000000000003  0.12297  1.0000
  C   C93       1.0  0.11039000000000003  0.92767  0.31043  1.0000
  C   C94       1.0  0.8962  0.33344  0.80653  1.0000
  C   C95       1.0  0.7392399999999998  0.12329999999999999  0.1074  1.0000
  C   C96       1.0  0.6662900000000003  0.5624999999999999  0.4728900000000001  1.0000
  C   C97       1.0  0.31281  0.10914999999999997  0.85795  1.0000
  C   C98       1.0  0.20359  0.7487199999999999  0.8908100000000002  1.0000
  C   C99       1.0  0.10740999999999996  0.73927  0.12333  1.0000
  C   C100      1.0  0.36812  0.10733000000000002  0.98411  1.0000
  C   C101      1.0  0.8579799999999999  0.74882  0.5452  1.0000
  C   C102      1.0  0.25326  0.10603  0.7260100000000002  1.0000
  C   C103      1.0  0.12294999999999999  0.38374  0.015580000000000002  1.0000
  C   C104      1.0  0.61734  0.8002999999999998  0.68986  1.0000
  C   C105      1.0  0.89082  0.20358999999999994  0.74871  1.0000
  C   C106      1.0  0.45479999999999987  0.14202  0.25118  1.0000
  C   C107      1.0  0.47288999999999987  0.6663  0.56252  1.0000
  C   C108      1.0  0.20001999999999998  0.8172299999999999  0.88955  1.0000
  C   C109      1.0  0.88961  0.07233000000000006  0.6895600000000001  1.0000
  C   C110      1.0  0.79641  0.25127999999999995  0.10919000000000002  1.0000
  C   C111      1.0  0.08982000000000011  0.1935400000000001  0.5268900000000002  1.0000
  C   C112      1.0  0.5452  0.8579799999999999  0.74882  1.0000
  C   C113      1.0  0.38003000000000003  0.10596000000000007  0.8528  1.0000
  C   C114      1.0  0.89267  0.015909999999999987  0.63191  1.0000
  C   C115      1.0  0.47253999999999996  0.7257399999999998  0.61974  1.0000
  C   C116      1.0  0.25339  0.52732  0.14741  1.0000
  C   C117      1.0  0.31277  0.45491999999999994  0.20360000000000003  1.0000
  C   C118      1.0  0.10918999999999998  0.79641  0.25128  1.0000
  C   C119      1.0  0.9844299999999998  0.8770499999999999  0.61626  1.0000
  C   C120      1.0  0.52712  0.33370000000000005  0.43748  1.0000
  N   N1        1.0  0.32716999999999996  0.43188  0.45563  1.0000
  N   N2        1.0  0.02356  0.12826  0.45544  1.0000
  N   N3        1.0  0.89523  0.32718  0.87155  1.0000
  N   N4        1.0  0.89533  0.023640000000000008  0.56809  1.0000
  N   N5        1.0  0.12825999999999999  0.45544999999999997  0.02356  1.0000
  N   N6        1.0  0.12841999999999998  0.10474999999999997  0.67278  1.0000
  N   N7        1.0  0.54456  0.9764299999999998  0.8717200000000003  1.0000
  N   N8        1.0  0.6727899999999999  0.12841000000000002  0.10476000000000003  1.0000
  N   N9        1.0  0.43187999999999993  0.4556300000000001  0.32717000000000007  1.0000
  N   N10       1.0  0.45543999999999996  0.023559999999999998  0.12828  1.0000
  N   N11       1.0  0.10467000000000001  0.97636  0.4319100000000001  1.0000
  N   N12       1.0  0.3272099999999999  0.8715799999999999  0.89524  1.0000
  N   N13       1.0  0.10477000000000003  0.67282  0.12844  1.0000
  N   N14       1.0  0.97637  0.43192  0.10466  1.0000
  N   N15       1.0  0.54437  0.67285  0.56813  1.0000
  N   N16       1.0  0.87174  0.54455  0.9764400000000001  1.0000
  N   N17       1.0  0.97644  0.8717399999999998  0.54456  1.0000
  N   N18       1.0  0.87158  0.89524  0.32721  1.0000
  N   N19       1.0  0.4556299999999999  0.32715  0.43187  1.0000
  N   N20       1.0  0.5681199999999997  0.54436  0.67283  1.0000
  N   N21       1.0  0.6728299999999999  0.5681199999999997  0.54437  1.0000
  N   N22       1.0  0.56808  0.89535  0.02363  1.0000
  N   N23       1.0  0.023630000000000023  0.56808  0.89534  1.0000
  N   N24       1.0  0.4319199999999999  0.10465  0.97636  1.0000
  O   O1        1.0  0.8982699999999999  0.9683499999999999  0.5134  1.0000
  O   O2        1.0  0.03168999999999999  0.9299999999999999  0.54514  1.0000
  O   O3        1.0  0.4548499999999999  0.9683099999999999  0.07004  1.0000
  O   O4        1.0  0.545  0.61516  0.51353  1.0000
  O   O5        1.0  0.3850100000000001  0.92985  0.8983200000000002  1.0000
  O   O6        1.0  0.9298499999999994  0.8983299999999997  0.38502  1.0000
  O   O7        1.0  0.10172999999999999  0.03165000000000003  0.4865900000000001  1.0000
  O   O8        1.0  0.6151199999999999  0.51352  0.54499  1.0000
  O   O9        1.0  0.9683499999999999  0.51339  0.89831  1.0000
  O   O10       1.0  0.03164999999999999  0.48661  0.10169  1.0000
  O   O11       1.0  0.4866099999999999  0.10169  0.03165  1.0000
  O   O12       1.0  0.06999999999999998  0.45486  0.96831  1.0000
  O   O13       1.0  0.48648  0.4550199999999999  0.38488  1.0000
  O   O14       1.0  0.9683099999999998  0.06999999999999997  0.45486  1.0000
  O   O15       1.0  0.8982899999999999  0.38496000000000014  0.9298100000000002  1.0000
  O   O16       1.0  0.5135199999999998  0.54498  0.61511  1.0000
  O   O17       1.0  0.38488  0.48647  0.455  1.0000
  O   O18       1.0  0.07015000000000002  0.10167  0.61498  1.0000
  O   O19       1.0  0.61499  0.07015000000000002  0.10168000000000003  1.0000
  O   O20       1.0  0.10170999999999998  0.61504  0.07019000000000003  1.0000
  O   O21       1.0  0.51339  0.8983099999999999  0.96835  1.0000
  O   O22       1.0  0.455  0.38484000000000007  0.48647  1.0000
  O   O23       1.0  0.93  0.5451399999999997  0.03169  1.0000
  O   O24       1.0  0.54515  0.03169000000000011  0.9299600000000002  1.0000
