data_image0
_chemical_formula_structural       Cd10H120C216O48
_chemical_formula_sum              "Cd10 H120 C216 O48"
_cell_length_a       17.04207
_cell_length_b       20.15004
_cell_length_c       25.0425
_cell_angle_alpha    88.22862
_cell_angle_beta     70.13727
_cell_angle_gamma    64.99923

_space_group_name_H-M_alt    "P 1"
_space_group_IT_number       1

loop_
  _space_group_symop_operation_xyz
  'x, y, z'

loop_
  _atom_site_type_symbol
  _atom_site_label
  _atom_site_symmetry_multiplicity
  _atom_site_fract_x
  _atom_site_fract_y
  _atom_site_fract_z
  _atom_site_occupancy
  Cd  Cd1       1.0  0.01474999999999996  0.82314  0.5536  1.0000
  Cd  Cd2       1.0  0.03228000000000001  0.64906  0.61568  1.0000
  Cd  Cd3       1.0  0.8921999999999999  0.6765000000000001  0.94635  1.0000
  Cd  Cd4       1.0  0.79841  0.8503700000000001  0.8839700000000003  1.0000
  Cd  Cd5       1.0  0.98525  0.17686  0.4464  1.0000
  Cd  Cd6       1.0  0.96772  0.35095  0.38432  1.0000
  Cd  Cd7       1.0  0.10780000000000003  0.3235  0.05365000000000001  1.0000
  Cd  Cd8       1.0  0.20159  0.14963  0.11603  1.0000
  Cd  Cd9       1.0  0.0  0.0  0.5  1.0000
  Cd  Cd10      1.0  0.0  0.5  0.0  1.0000
  H   H1        1.0  0.5677199999999999  0.8828900000000001  0.47366  1.0000
  H   H2        1.0  0.57142  0.8657900000000001  0.30230000000000007  1.0000
  H   H3        1.0  0.8218500000000001  0.74372  0.33723000000000003  1.0000
  H   H4        1.0  0.63553  0.78727  0.5204  1.0000
  H   H5        1.0  0.7218300000000003  0.7502500000000001  0.58777  1.0000
  H   H6        1.0  0.9599599999999999  0.75749  0.4593000000000001  1.0000
  H   H7        1.0  0.8741199999999995  0.7946300000000001  0.3918100000000001  1.0000
  H   H8        1.0  0.4728599999999999  0.004490000000000021  0.3477800000000001  1.0000
  H   H9        1.0  0.30151999999999995  0.08231000000000001  0.37661000000000006  1.0000
  H   H10       1.0  0.25062999999999985  0.942  0.50273  1.0000
  H   H11       1.0  0.42214  0.86462  0.47541  1.0000
  H   H12       1.0  0.6805000000000001  0.8654  0.21814000000000006  1.0000
  H   H13       1.0  0.75627  0.8045600000000002  0.11694000000000003  1.0000
  H   H14       1.0  0.9059400000000001  0.60016  0.17080000000000004  1.0000
  H   H15       1.0  0.83247  0.65971  0.27165  1.0000
  H   H16       1.0  0.98302  0.32227  0.85168  1.0000
  H   H17       1.0  0.9513099999999998  0.2436800000000001  0.7055900000000002  1.0000
  H   H18       1.0  0.015379999999999916  0.10035000000000004  0.8304200000000002  1.0000
  H   H19       1.0  0.12029999999999991  0.08517000000000002  0.8705400000000001  1.0000
  H   H20       1.0  0.16069000000000006  0.06582  0.95844  1.0000
  H   H21       1.0  0.9638999999999999  0.28941  0.0313  1.0000
  H   H22       1.0  0.9227300000000003  0.30951  0.9444  1.0000
  H   H23       1.0  0.92215  0.42673  0.83024  1.0000
  H   H24       1.0  0.94506  0.5312  0.7846  1.0000
  H   H25       1.0  0.02692999999999995  0.41683  0.61847  1.0000
  H   H26       1.0  0.006599999999999914  0.31115000000000004  0.6631300000000001  1.0000
  H   H27       1.0  0.9205199999999999  0.06184000000000003  0.8002400000000002  1.0000
  H   H28       1.0  0.93453  0.9588600000000002  0.73895  1.0000
  H   H29       1.0  0.07944000000000001  0.02866000000000001  0.58866  1.0000
  H   H30       1.0  0.06555999999999997  0.13089000000000006  0.6489700000000002  1.0000
  H   H31       1.0  0.4246  0.61703  0.026150000000000003  1.0000
  H   H32       1.0  0.23942999999999995  0.6346900000000001  0.19748000000000002  1.0000
  H   H33       1.0  0.40362000000000015  0.75618  0.16257  1.0000
  H   H34       1.0  0.44325000000000003  0.71233  0.97927  1.0000
  H   H35       1.0  0.56034  0.74831  0.9114500000000001  1.0000
  H   H36       1.0  0.6776100000000002  0.74196  0.0397  1.0000
  H   H37       1.0  0.5609899999999999  0.70587  0.10767000000000003  1.0000
  H   H38       1.0  0.32551  0.49562  0.15221  1.0000
  H   H39       1.0  0.2594300000000001  0.4181800000000001  0.12433  1.0000
  H   H40       1.0  0.19404000000000007  0.55768  0.99788  1.0000
  H   H41       1.0  0.26195  0.63493  0.024350000000000004  1.0000
  H   H42       1.0  0.26393  0.63502  0.28181  1.0000
  H   H43       1.0  0.1771999999999999  0.69614  0.38283000000000006  1.0000
  H   H44       1.0  0.17715  0.90032  0.32879  1.0000
  H   H45       1.0  0.26454999999999995  0.8405300000000001  0.22817  1.0000
  H   H46       1.0  0.6570699999999999  0.17700999999999997  0.64813  1.0000
  H   H47       1.0  0.40115999999999996  0.25562000000000007  0.7943  1.0000
  H   H48       1.0  0.4466799999999999  0.39899000000000007  0.6695900000000001  1.0000
  H   H49       1.0  0.5770499999999997  0.414  0.6289600000000001  1.0000
  H   H50       1.0  0.68597  0.43303  0.54104  1.0000
  H   H51       1.0  0.7846399999999998  0.20918000000000003  0.46854000000000007  1.0000
  H   H52       1.0  0.67653  0.18985  0.55552  1.0000
  H   H53       1.0  0.6792599999999999  0.07239  0.6696  1.0000
  H   H54       1.0  0.7613699999999999  0.96825  0.7152800000000001  1.0000
  H   H55       1.0  0.56299  0.08275999999999997  0.88138  1.0000
  H   H56       1.0  0.48156999999999994  0.18820000000000003  0.8367400000000002  1.0000
  H   H57       1.0  0.2831000000000001  0.43761  0.70014  1.0000
  H   H58       1.0  0.13355000000000003  0.54048  0.76129  1.0000
  H   H59       1.0  0.1985199999999999  0.46985  0.9116100000000003  1.0000
  H   H60       1.0  0.3466799999999999  0.36804  0.85105  1.0000
  H   H61       1.0  0.43227  0.11711  0.52634  1.0000
  H   H62       1.0  0.4285799999999999  0.13421000000000005  0.6977000000000002  1.0000
  H   H63       1.0  0.1781399999999999  0.25628  0.66277  1.0000
  H   H64       1.0  0.36447000000000007  0.21273  0.4796  1.0000
  H   H65       1.0  0.2781699999999998  0.24975  0.41223  1.0000
  H   H66       1.0  0.04004000000000001  0.24251999999999999  0.5407  1.0000
  H   H67       1.0  0.12586999999999998  0.20538  0.60819  1.0000
  H   H68       1.0  0.52714  0.9955100000000001  0.65222  1.0000
  H   H69       1.0  0.69847  0.9177  0.62339  1.0000
  H   H70       1.0  0.74937  0.058010000000000006  0.49727000000000005  1.0000
  H   H71       1.0  0.5778599999999999  0.13539000000000004  0.5245900000000001  1.0000
  H   H72       1.0  0.31949999999999995  0.1346  0.78186  1.0000
  H   H73       1.0  0.24372999999999997  0.19544  0.8830600000000001  1.0000
  H   H74       1.0  0.0940599999999999  0.39984  0.8292000000000003  1.0000
  H   H75       1.0  0.16753000000000004  0.34029  0.7283500000000002  1.0000
  H   H76       1.0  0.016980000000000002  0.67773  0.14832  1.0000
  H   H77       1.0  0.048679999999999966  0.75633  0.29441  1.0000
  H   H78       1.0  0.9846199999999998  0.8996500000000001  0.16958000000000004  1.0000
  H   H79       1.0  0.8797000000000001  0.91483  0.12946  1.0000
  H   H80       1.0  0.8393099999999999  0.9341800000000001  0.04156  1.0000
  H   H81       1.0  0.036099999999999965  0.71059  0.9687000000000001  1.0000
  H   H82       1.0  0.07726  0.6905  0.05560000000000001  1.0000
  H   H83       1.0  0.07783999999999994  0.5732700000000001  0.16976000000000002  1.0000
  H   H84       1.0  0.054939999999999954  0.46881000000000006  0.2154  1.0000
  H   H85       1.0  0.9730599999999999  0.58318  0.3815300000000001  1.0000
  H   H86       1.0  0.9933899999999999  0.6888600000000001  0.33687  1.0000
  H   H87       1.0  0.07946999999999999  0.93817  0.19976  1.0000
  H   H88       1.0  0.06546000000000006  0.04115  0.26105  1.0000
  H   H89       1.0  0.9205599999999999  0.97134  0.41134  1.0000
  H   H90       1.0  0.93444  0.86912  0.35103  1.0000
  H   H91       1.0  0.5754  0.38298  0.9738500000000001  1.0000
  H   H92       1.0  0.76057  0.3653100000000001  0.8025200000000002  1.0000
  H   H93       1.0  0.5963699999999998  0.24382  0.8374300000000001  1.0000
  H   H94       1.0  0.55675  0.28767  0.020730000000000002  1.0000
  H   H95       1.0  0.43964999999999993  0.25169  0.08855  1.0000
  H   H96       1.0  0.32239000000000023  0.25805  0.9603  1.0000
  H   H97       1.0  0.4389999999999999  0.29413  0.8923300000000001  1.0000
  H   H98       1.0  0.6744900000000001  0.50439  0.84779  1.0000
  H   H99       1.0  0.7405600000000001  0.58182  0.87567  1.0000
  H   H100      1.0  0.8059599999999999  0.44233  0.00212  1.0000
  H   H101      1.0  0.73805  0.36507  0.9756600000000002  1.0000
  H   H102      1.0  0.73607  0.36497999999999997  0.71819  1.0000
  H   H103      1.0  0.8228000000000001  0.30387  0.61717  1.0000
  H   H104      1.0  0.82284  0.09969  0.67121  1.0000
  H   H105      1.0  0.7354399999999996  0.15947  0.77183  1.0000
  H   H106      1.0  0.34293  0.823  0.35187000000000007  1.0000
  H   H107      1.0  0.59884  0.74438  0.2057  1.0000
  H   H108      1.0  0.55332  0.60101  0.33041000000000004  1.0000
  H   H109      1.0  0.42294  0.586  0.37104000000000004  1.0000
  H   H110      1.0  0.31403000000000003  0.56698  0.4589600000000001  1.0000
  H   H111      1.0  0.21535999999999997  0.79082  0.53146  1.0000
  H   H112      1.0  0.3234600000000002  0.81015  0.44448000000000004  1.0000
  H   H113      1.0  0.32074  0.92761  0.3304000000000001  1.0000
  H   H114      1.0  0.23863  0.03175  0.28472  1.0000
  H   H115      1.0  0.43701  0.91724  0.11862  1.0000
  H   H116      1.0  0.5184199999999999  0.8118  0.16326  1.0000
  H   H117      1.0  0.7168999999999999  0.56239  0.29986000000000007  1.0000
  H   H118      1.0  0.86644  0.45952000000000004  0.23871000000000006  1.0000
  H   H119      1.0  0.80148  0.53015  0.08839  1.0000
  H   H120      1.0  0.6533199999999999  0.63196  0.14895000000000003  1.0000
  C   C1        1.0  0.7009  0.81145  0.41006  1.0000
  C   C2        1.0  0.6054  0.85935  0.42881  1.0000
  C   C3        1.0  0.5589699999999996  0.8801299999999999  0.3899900000000001  1.0000
  C   C4        1.0  0.6084499999999998  0.85182  0.33192  1.0000
  C   C5        1.0  0.7030600000000001  0.8014  0.3124  1.0000
  C   C6        1.0  0.7486099999999998  0.7823600000000003  0.35188000000000014  1.0000
  C   C7        1.0  0.7496699999999998  0.7923800000000001  0.45098000000000005  1.0000
  C   C8        1.0  0.7060699999999999  0.78156  0.50715  1.0000
  C   C9        1.0  0.7537299999999999  0.76072  0.54481  1.0000
  C   C10       1.0  0.84571  0.75113  0.52753  1.0000
  C   C11       1.0  0.8892199999999999  0.76356  0.4721  1.0000
  C   C12       1.0  0.8414299999999999  0.7838700000000001  0.4345  1.0000
  C   C13       1.0  0.45849999999999996  0.92927  0.40948  1.0000
  C   C14       1.0  0.42416  0.9910400000000001  0.38184000000000007  1.0000
  C   C15       1.0  0.32897999999999994  0.03455  0.39781  1.0000
  C   C16       1.0  0.26656  0.01601  0.44094  1.0000
  C   C17       1.0  0.30041000000000007  0.95549  0.4696  1.0000
  C   C18       1.0  0.39565  0.91286  0.45438000000000006  1.0000
  C   C19       1.0  0.75076  0.76691  0.25223  1.0000
  C   C20       1.0  0.7294500000000002  0.80718  0.20790000000000006  1.0000
  C   C21       1.0  0.77152  0.77366  0.15142  1.0000
  C   C22       1.0  0.83534  0.69857  0.13783  1.0000
  C   C23       1.0  0.85744  0.65837  0.18158  1.0000
  C   C24       1.0  0.8161700000000001  0.69203  0.23800000000000002  1.0000
  C   C25       1.0  0.8974699999999999  0.72494  0.5673100000000001  1.0000
  C   C26       1.0  0.16424999999999995  0.05789000000000002  0.45429000000000014  1.0000
  C   C27       1.0  0.87879  0.66152  0.07715  1.0000
  C   C28       1.0  0.9971599999999997  0.21130000000000002  0.8484900000000001  1.0000
  C   C29       1.0  0.9798299999999992  0.27978  0.8280300000000003  1.0000
  C   C30       1.0  0.96703  0.29191  0.7753500000000001  1.0000
  C   C31       1.0  0.9667200000000001  0.23455  0.74467  1.0000
  C   C32       1.0  0.98438  0.16534999999999997  0.76392  1.0000
  C   C33       1.0  0.9997799999999998  0.15433000000000005  0.8158500000000002  1.0000
  C   C34       1.0  0.01796999999999994  0.19854000000000002  0.9014100000000002  1.0000
  C   C35       1.0  0.08430999999999998  0.12931  0.9062800000000001  1.0000
  C   C36       1.0  0.10759999999999996  0.11825000000000001  0.9549500000000001  1.0000
  C   C37       1.0  0.06473999999999998  0.17607  0.00017000000000000004  1.0000
  C   C38       1.0  0.9971899999999998  0.24470000000000006  0.9962000000000002  1.0000
  C   C39       1.0  0.97448  0.25590000000000007  0.9473  1.0000
  C   C40       1.0  0.9651599999999999  0.35953  0.75028  1.0000
  C   C41       1.0  0.94625  0.42343  0.7838200000000002  1.0000
  C   C42       1.0  0.95835  0.48262999999999995  0.75848  1.0000
  C   C43       1.0  0.9891500000000001  0.47952  0.69856  1.0000
  C   C44       1.0  0.004159999999999959  0.41782  0.6647700000000001  1.0000
  C   C45       1.0  0.9918999999999998  0.3591  0.6903  1.0000
  C   C46       1.0  0.9912899999999999  0.10418  0.7288800000000001  1.0000
  C   C47       1.0  0.9560099999999997  0.05423000000000005  0.7540600000000002  1.0000
  C   C48       1.0  0.9632799999999994  0.99692  0.72019  1.0000
  C   C49       1.0  0.007069999999999963  0.98798  0.66037  1.0000
  C   C50       1.0  0.04437999999999994  0.03630000000000002  0.6349200000000002  1.0000
  C   C51       1.0  0.03569999999999996  0.09407  0.66895  1.0000
  C   C52       1.0  0.09734999999999999  0.16547  0.0493  1.0000
  C   C53       1.0  0.006509999999999914  0.53997  0.66907  1.0000
  C   C54       1.0  0.012079999999999992  0.9276  0.62467  1.0000
  C   C55       1.0  0.42264999999999997  0.6886  0.08972000000000002  1.0000
  C   C56       1.0  0.39366999999999996  0.64069  0.071  1.0000
  C   C57       1.0  0.32918000000000003  0.61995  0.10983  1.0000
  C   C58       1.0  0.2923799999999998  0.64843  0.16789  1.0000
  C   C59       1.0  0.31727000000000005  0.69878  0.18741000000000002  1.0000
  C   C60       1.0  0.38337  0.7177  0.14791  1.0000
  C   C61       1.0  0.49327999999999994  0.70752  0.04864000000000001  1.0000
  C   C62       1.0  0.4950700000000001  0.71787  0.99239  1.0000
  C   C63       1.0  0.5598100000000005  0.73818  0.95446  1.0000
  C   C64       1.0  0.6251499999999999  0.74781  0.9715200000000002  1.0000
  C   C65       1.0  0.62566  0.73583  0.027  1.0000
  C   C66       1.0  0.5602500000000004  0.71608  0.0649  1.0000
  C   C67       1.0  0.29705  0.57077  0.09053  1.0000
  C   C68       1.0  0.29679999999999995  0.5091400000000001  0.11841000000000003  1.0000
  C   C69       1.0  0.26048  0.4657700000000001  0.10291000000000003  1.0000
  C   C70       1.0  0.22231999999999996  0.4841500000000001  0.05989  1.0000
  C   C71       1.0  0.22440999999999994  0.5444400000000001  0.03093  1.0000
  C   C72       1.0  0.2623099999999999  0.5869900000000001  0.04574  1.0000
  C   C73       1.0  0.27035  0.73336  0.24758  1.0000
  C   C74       1.0  0.24461000000000008  0.69325  0.29195  1.0000
  C   C75       1.0  0.19626999999999992  0.7269600000000002  0.34838  1.0000
  C   C76       1.0  0.17128999999999983  0.8021  0.3619400000000001  1.0000
  C   C77       1.0  0.19748999999999997  0.84209  0.31817  1.0000
  C   C78       1.0  0.24672999999999998  0.80825  0.2618  1.0000
  C   C79       1.0  0.6898900000000001  0.77429  0.9315  1.0000
  C   C80       1.0  0.17523999999999995  0.44209000000000004  0.04678000000000001  1.0000
  C   C81       1.0  0.11633  0.83937  0.4225700000000001  1.0000
  C   C82       1.0  0.5573  0.28803  0.6513400000000001  1.0000
  C   C83       1.0  0.5878900000000001  0.21954  0.67181  1.0000
  C   C84       1.0  0.5346899999999998  0.20737000000000003  0.7245200000000003  1.0000
  C   C85       1.0  0.4465199999999997  0.26472  0.75525  1.0000
  C   C86       1.0  0.4143500000000001  0.33396000000000003  0.73607  1.0000
  C   C87       1.0  0.47047  0.3449900000000001  0.6840900000000001  1.0000
  C   C88       1.0  0.6183199999999999  0.30072000000000004  0.5983400000000001  1.0000
  C   C89       1.0  0.6207499999999998  0.36977000000000004  0.5933000000000002  1.0000
  C   C90       1.0  0.6818900000000001  0.38055000000000005  0.54459  1.0000
  C   C91       1.0  0.74202  0.3226  0.49943  1.0000
  C   C92       1.0  0.73857  0.25415  0.50354  1.0000
  C   C93       1.0  0.67789  0.24333000000000007  0.5525000000000001  1.0000
  C   C94       1.0  0.5753399999999999  0.13971000000000003  0.7495700000000001  1.0000
  C   C95       1.0  0.65379  0.07579000000000001  0.7160400000000001  1.0000
  C   C96       1.0  0.69992  0.01673000000000001  0.74142  1.0000
  C   C97       1.0  0.66782  0.019860000000000034  0.8013400000000002  1.0000
  C   C98       1.0  0.58747  0.08158000000000003  0.8350900000000001  1.0000
  C   C99       1.0  0.5419099999999999  0.14022  0.80955  1.0000
  C   C100      1.0  0.3252500000000001  0.39504  0.77129  1.0000
  C   C101      1.0  0.2650199999999999  0.44511000000000006  0.7463  1.0000
  C   C102      1.0  0.1812699999999999  0.50241  0.7802500000000002  1.0000
  C   C103      1.0  0.15643  0.51125  0.84008  1.0000
  C   C104      1.0  0.21676000000000004  0.46263  0.86538  1.0000
  C   C105      1.0  0.2998100000000001  0.40497  0.83121  1.0000
  C   C106      1.0  0.8134299999999998  0.33303  0.45033000000000006  1.0000
  C   C107      1.0  0.7160100000000001  0.9594099999999999  0.83085  1.0000
  C   C108      1.0  0.06581999999999982  0.5720400000000001  0.8758600000000002  1.0000
  C   C109      1.0  0.29908999999999997  0.18855  0.58994  1.0000
  C   C110      1.0  0.3945899999999999  0.14066000000000006  0.5711900000000001  1.0000
  C   C111      1.0  0.44102  0.11987  0.61001  1.0000
  C   C112      1.0  0.39153999999999994  0.14818000000000003  0.6680800000000001  1.0000
  C   C113      1.0  0.29694  0.1986  0.6876  1.0000
  C   C114      1.0  0.25138999999999995  0.21765  0.64812  1.0000
  C   C115      1.0  0.25032999999999983  0.20763000000000004  0.5490200000000001  1.0000
  C   C116      1.0  0.2939199999999999  0.21844000000000005  0.4928500000000001  1.0000
  C   C117      1.0  0.24626999999999996  0.23928  0.45519  1.0000
  C   C118      1.0  0.15428999999999987  0.24887  0.4724700000000001  1.0000
  C   C119      1.0  0.1107699999999999  0.23645  0.5279000000000001  1.0000
  C   C120      1.0  0.15857  0.21614  0.5655  1.0000
  C   C121      1.0  0.5414999999999998  0.07073000000000003  0.5905200000000002  1.0000
  C   C122      1.0  0.57583  0.008969999999999999  0.61816  1.0000
  C   C123      1.0  0.6710199999999998  0.9654500000000001  0.6021900000000001  1.0000
  C   C124      1.0  0.73344  0.9840000000000001  0.5590600000000001  1.0000
  C   C125      1.0  0.6995899999999999  0.044520000000000025  0.5304000000000001  1.0000
  C   C126      1.0  0.60435  0.08715  0.54562  1.0000
  C   C127      1.0  0.24923  0.2331  0.74777  1.0000
  C   C128      1.0  0.27055  0.19282  0.7921  1.0000
  C   C129      1.0  0.22848  0.22634  0.84858  1.0000
  C   C130      1.0  0.16465999999999992  0.30144000000000004  0.8621700000000001  1.0000
  C   C131      1.0  0.14256  0.34163000000000004  0.81842  1.0000
  C   C132      1.0  0.18382999999999997  0.30797  0.762  1.0000
  C   C133      1.0  0.10253  0.27506  0.43269  1.0000
  C   C134      1.0  0.83574  0.94211  0.54571  1.0000
  C   C135      1.0  0.12120999999999986  0.33848  0.9228500000000001  1.0000
  C   C136      1.0  0.0028400000000000755  0.7887  0.15151  1.0000
  C   C137      1.0  0.020169999999999924  0.72023  0.17197000000000007  1.0000
  C   C138      1.0  0.03295999999999992  0.7081  0.22465000000000004  1.0000
  C   C139      1.0  0.03327999999999988  0.7654500000000001  0.25533  1.0000
  C   C140      1.0  0.01561999999999992  0.83466  0.23608000000000007  1.0000
  C   C141      1.0  0.00021999999999988508  0.8456800000000001  0.18415000000000004  1.0000
  C   C142      1.0  0.9820199999999999  0.80147  0.09859  1.0000
  C   C143      1.0  0.91569  0.87069  0.09372  1.0000
  C   C144      1.0  0.8924000000000001  0.88175  0.045050000000000014  1.0000
  C   C145      1.0  0.9352599999999996  0.8239300000000003  0.9998300000000001  1.0000
  C   C146      1.0  0.0028099999999999796  0.75531  0.0038  1.0000
  C   C147      1.0  0.02552000000000001  0.74411  0.05270000000000001  1.0000
  C   C148      1.0  0.034830000000000014  0.64047  0.24972000000000003  1.0000
  C   C149      1.0  0.05374999999999998  0.57657  0.21618000000000004  1.0000
  C   C150      1.0  0.041649999999999944  0.51738  0.24152  1.0000
  C   C151      1.0  0.010849999999999978  0.52049  0.30144000000000004  1.0000
  C   C152      1.0  0.99583  0.58218  0.33523  1.0000
  C   C153      1.0  0.008089999999999984  0.6409  0.30970000000000003  1.0000
  C   C154      1.0  0.008710000000000016  0.89582  0.27112  1.0000
  C   C155      1.0  0.04398999999999995  0.94578  0.24594000000000005  1.0000
  C   C156      1.0  0.03672000000000001  0.003089999999999997  0.27981  1.0000
  C   C157      1.0  0.99293  0.012030000000000004  0.33963  1.0000
  C   C158      1.0  0.9556199999999997  0.9637100000000001  0.36508  1.0000
  C   C159      1.0  0.9642900000000001  0.90594  0.33105000000000007  1.0000
  C   C160      1.0  0.90265  0.83454  0.9507000000000001  1.0000
  C   C161      1.0  0.9934900000000001  0.46003  0.33093000000000006  1.0000
  C   C162      1.0  0.9879199999999999  0.07240000000000002  0.37534000000000006  1.0000
  C   C163      1.0  0.57734  0.3114  0.9102800000000001  1.0000
  C   C164      1.0  0.6063299999999999  0.3593100000000001  0.9290000000000003  1.0000
  C   C165      1.0  0.6708199999999997  0.38005  0.89017  1.0000
  C   C166      1.0  0.70762  0.35158  0.83211  1.0000
  C   C167      1.0  0.6827299999999998  0.30123  0.81259  1.0000
  C   C168      1.0  0.61663  0.28231  0.85209  1.0000
  C   C169      1.0  0.50672  0.29249  0.95136  1.0000
  C   C170      1.0  0.50493  0.28213  0.007610000000000001  1.0000
  C   C171      1.0  0.4401900000000001  0.26183  0.04554  1.0000
  C   C172      1.0  0.37485  0.2522  0.028480000000000002  1.0000
  C   C173      1.0  0.3743300000000001  0.26418  0.973  1.0000
  C   C174      1.0  0.43975  0.28393000000000007  0.9351000000000002  1.0000
  C   C175      1.0  0.7029399999999998  0.42924  0.9094700000000002  1.0000
  C   C176      1.0  0.7031999999999999  0.49087000000000003  0.88159  1.0000
  C   C177      1.0  0.73951  0.53424  0.8970900000000002  1.0000
  C   C178      1.0  0.77767  0.51585  0.9401200000000002  1.0000
  C   C179      1.0  0.77558  0.45556  0.96907  1.0000
  C   C180      1.0  0.7376799999999998  0.41301  0.9542600000000001  1.0000
  C   C181      1.0  0.72965  0.26664  0.75242  1.0000
  C   C182      1.0  0.7553900000000001  0.30676000000000003  0.7080500000000001  1.0000
  C   C183      1.0  0.80373  0.27304  0.65162  1.0000
  C   C184      1.0  0.8287  0.1979  0.63806  1.0000
  C   C185      1.0  0.8025100000000001  0.15791000000000002  0.6818300000000002  1.0000
  C   C186      1.0  0.7532699999999999  0.19176  0.7382  1.0000
  C   C187      1.0  0.3101  0.22572  0.0685  1.0000
  C   C188      1.0  0.82476  0.55792  0.9532200000000001  1.0000
  C   C189      1.0  0.88367  0.16064  0.57743  1.0000
  C   C190      1.0  0.44270000000000004  0.71197  0.34866  1.0000
  C   C191      1.0  0.41211000000000003  0.78046  0.32819000000000004  1.0000
  C   C192      1.0  0.46531  0.79264  0.27548  1.0000
  C   C193      1.0  0.5534800000000001  0.73528  0.24475000000000002  1.0000
  C   C194      1.0  0.58565  0.66605  0.26393000000000005  1.0000
  C   C195      1.0  0.52953  0.65501  0.31591  1.0000
  C   C196      1.0  0.3816800000000001  0.69928  0.40166  1.0000
  C   C197      1.0  0.37924999999999986  0.6302400000000001  0.4067  1.0000
  C   C198      1.0  0.31810999999999995  0.61946  0.45541000000000004  1.0000
  C   C199      1.0  0.25798  0.6774100000000001  0.50057  1.0000
  C   C200      1.0  0.2614199999999999  0.74586  0.4964600000000001  1.0000
  C   C201      1.0  0.32211000000000006  0.75668  0.4475  1.0000
  C   C202      1.0  0.42464999999999997  0.86029  0.25043  1.0000
  C   C203      1.0  0.34620999999999996  0.9242200000000002  0.28396  1.0000
  C   C204      1.0  0.30006999999999995  0.98327  0.25858000000000003  1.0000
  C   C205      1.0  0.3321799999999999  0.9801400000000001  0.19866  1.0000
  C   C206      1.0  0.41253000000000006  0.91843  0.16491  1.0000
  C   C207      1.0  0.4580899999999999  0.8597900000000002  0.19045  1.0000
  C   C208      1.0  0.6747399999999998  0.60496  0.22871  1.0000
  C   C209      1.0  0.7349699999999999  0.5549  0.25370000000000004  1.0000
  C   C210      1.0  0.8187299999999998  0.49759  0.21975000000000003  1.0000
  C   C211      1.0  0.8435700000000002  0.48875  0.15992  1.0000
  C   C212      1.0  0.7832300000000001  0.53738  0.13462  1.0000
  C   C213      1.0  0.7001800000000001  0.59504  0.16879  1.0000
  C   C214      1.0  0.18657  0.66697  0.54967  1.0000
  C   C215      1.0  0.28399  0.04059000000000001  0.16915000000000002  1.0000
  C   C216      1.0  0.93418  0.42797  0.12414000000000003  1.0000
  O   O1        1.0  0.9814600000000001  0.72056  0.54997  1.0000
  O   O2        1.0  0.8645699999999997  0.7042300000000001  0.61379  1.0000
  O   O3        1.0  0.13890999999999992  0.10812  0.4232  1.0000
  O   O4        1.0  0.11039999999999996  0.04023  0.49489  1.0000
  O   O5        1.0  0.84198  0.69753  0.042300000000000004  1.0000
  O   O6        1.0  0.9481699999999998  0.59838  0.06618000000000002  1.0000
  O   O7        1.0  0.15126  0.10152  0.05517000000000001  1.0000
  O   O8        1.0  0.07297999999999999  0.22311000000000003  0.08392  1.0000
  O   O9        1.0  0.00805999999999994  0.59151  0.6971  1.0000
  O   O10       1.0  0.020029999999999912  0.53843  0.6157600000000001  1.0000
  O   O11       1.0  0.9835800000000001  0.88182  0.64825  1.0000
  O   O12       1.0  0.04710999999999995  0.9227600000000001  0.56896  1.0000
  O   O13       1.0  0.75351  0.77791  0.9479400000000001  1.0000
  O   O14       1.0  0.6807799999999999  0.7959900000000001  0.8857000000000003  1.0000
  O   O15       1.0  0.16674  0.39345  0.07912  1.0000
  O   O16       1.0  0.14646  0.45788  0.00514  1.0000
  O   O17       1.0  0.08003999999999993  0.8037400000000001  0.4573800000000001  1.0000
  O   O18       1.0  0.11159999999999999  0.9025500000000001  0.43354  1.0000
  O   O19       1.0  0.80976  0.39693  0.44489  1.0000
  O   O20       1.0  0.8809  0.27558  0.4154200000000001  1.0000
  O   O21       1.0  0.7977299999999998  0.90873  0.80305  1.0000
  O   O22       1.0  0.6741300000000001  0.9601099999999999  0.88392  1.0000
  O   O23       1.0  0.01620999999999991  0.61928  0.8524200000000002  1.0000
  O   O24       1.0  0.03964999999999999  0.57577  0.9315  1.0000
  O   O25       1.0  0.018539999999999973  0.27945  0.45003  1.0000
  O   O26       1.0  0.13542999999999988  0.29578000000000004  0.3862100000000001  1.0000
  O   O27       1.0  0.8610900000000001  0.8918899999999998  0.5768  1.0000
  O   O28       1.0  0.88959  0.9597800000000001  0.50511  1.0000
  O   O29       1.0  0.15801999999999997  0.3024800000000001  0.9577000000000001  1.0000
  O   O30       1.0  0.05182999999999998  0.40162000000000003  0.93382  1.0000
  O   O31       1.0  0.8487300000000001  0.89848  0.94483  1.0000
  O   O32       1.0  0.92702  0.7769  0.91608  1.0000
  O   O33       1.0  0.9919399999999999  0.4085  0.30290000000000006  1.0000
  O   O34       1.0  0.9799700000000001  0.46157999999999993  0.38424  1.0000
  O   O35       1.0  0.01641000000000002  0.11818  0.35175  1.0000
  O   O36       1.0  0.9528799999999996  0.07724000000000002  0.43104000000000003  1.0000
  O   O37       1.0  0.24647999999999995  0.22210000000000002  0.05206000000000001  1.0000
  O   O38       1.0  0.3192100000000002  0.20402  0.11430000000000001  1.0000
  O   O39       1.0  0.83326  0.60655  0.9208800000000003  1.0000
  O   O40       1.0  0.8535399999999999  0.54213  0.99486  1.0000
  O   O41       1.0  0.9199600000000001  0.19626  0.54262  1.0000
  O   O42       1.0  0.8884  0.09746  0.56646  1.0000
  O   O43       1.0  0.19023999999999985  0.60308  0.5551100000000001  1.0000
  O   O44       1.0  0.11909999999999998  0.72443  0.58458  1.0000
  O   O45       1.0  0.20227  0.09128  0.19695000000000004  1.0000
  O   O46       1.0  0.32586  0.0399  0.11608000000000002  1.0000
  O   O47       1.0  0.9837900000000002  0.38072  0.14758  1.0000
  O   O48       1.0  0.9603499999999997  0.42423  0.0685  1.0000
