data_image0
_chemical_formula_structural       Cu6H90C132O30
_chemical_formula_sum              "Cu6 H90 C132 O30"
_cell_length_a       21.75906
_cell_length_b       21.759739999999997
_cell_length_c       21.75976
_cell_angle_alpha    107.65689000000003
_cell_angle_beta     107.63372
_cell_angle_gamma    107.63373

_space_group_name_H-M_alt    "P 1"
_space_group_IT_number       1

loop_
  _space_group_symop_operation_xyz
  'x, y, z'

loop_
  _atom_site_type_symbol
  _atom_site_label
  _atom_site_symmetry_multiplicity
  _atom_site_fract_x
  _atom_site_fract_y
  _atom_site_fract_z
  _atom_site_occupancy
  Cu  Cu1       1.0  0.06302000000000002  0.5397  0.5397  1.0000
  Cu  Cu2       1.0  0.53969  0.06303000000000004  0.53971  1.0000
  Cu  Cu3       1.0  0.53969  0.53971  0.06303  1.0000
  Cu  Cu4       1.0  0.46031000000000005  0.4603  0.9369800000000001  1.0000
  Cu  Cu5       1.0  0.46031  0.9369799999999999  0.4603  1.0000
  Cu  Cu6       1.0  0.93698  0.4603  0.4603  1.0000
  H   H1        1.0  0.14997  0.56888  0.39076  1.0000
  H   H2        1.0  0.17236  0.56694  0.28478  1.0000
  H   H3        1.0  0.95223  0.41653  0.14593  1.0000
  H   H4        1.0  0.9303199999999997  0.41902  0.25226  1.0000
  H   H5        1.0  0.9755999999999999  0.49908  0.09829  1.0000
  H   H6        1.0  0.11888999999999998  0.38594999999999996  0.16969  1.0000
  H   H7        1.0  0.28308  0.43981  0.23228000000000001  1.0000
  H   H8        1.0  0.39075000000000015  0.14998000000000014  0.5688800000000003  1.0000
  H   H9        1.0  0.28478  0.17239999999999997  0.56695  1.0000
  H   H10       1.0  0.14595  0.95223  0.41653  1.0000
  H   H11       1.0  0.25225999999999993  0.9302999999999999  0.419  1.0000
  H   H12       1.0  0.09829  0.97562  0.49908  1.0000
  H   H13       1.0  0.16968  0.11888000000000004  0.38593000000000005  1.0000
  H   H14       1.0  0.23228  0.28309  0.43983  1.0000
  H   H15       1.0  0.5688899999999999  0.39078  0.14998  1.0000
  H   H16       1.0  0.56694  0.2848  0.17237000000000002  1.0000
  H   H17       1.0  0.41652  0.14592000000000005  0.9522200000000001  1.0000
  H   H18       1.0  0.41901  0.2522400000000001  0.9303200000000001  1.0000
  H   H19       1.0  0.49908  0.09827000000000002  0.97561  1.0000
  H   H20       1.0  0.38595  0.16968  0.11888  1.0000
  H   H21       1.0  0.4398099999999999  0.2323  0.28309  1.0000
  H   H22       1.0  0.60925  0.43112999999999996  0.85003  1.0000
  H   H23       1.0  0.71523  0.43305  0.82761  1.0000
  H   H24       1.0  0.85406  0.58347  0.04778000000000001  1.0000
  H   H25       1.0  0.74774  0.581  0.06971  1.0000
  H   H26       1.0  0.90171  0.50092  0.02439  1.0000
  H   H27       1.0  0.8303200000000001  0.6140800000000001  0.8811300000000001  1.0000
  H   H28       1.0  0.76773  0.56018  0.7169200000000001  1.0000
  H   H29       1.0  0.43112000000000006  0.8500200000000001  0.6092300000000002  1.0000
  H   H30       1.0  0.43306  0.8276300000000001  0.7152  1.0000
  H   H31       1.0  0.58348  0.047779999999999996  0.85408  1.0000
  H   H32       1.0  0.58099  0.06969000000000003  0.74777  1.0000
  H   H33       1.0  0.5009300000000001  0.024400000000000106  0.9017400000000001  1.0000
  H   H34       1.0  0.61405  0.88112  0.83033  1.0000
  H   H35       1.0  0.56019  0.71691  0.7677100000000002  1.0000
  H   H36       1.0  0.85003  0.60924  0.43113  1.0000
  H   H37       1.0  0.82764  0.71522  0.43307  1.0000
  H   H38       1.0  0.04778000000000004  0.8540800000000001  0.5834700000000002  1.0000
  H   H39       1.0  0.06967999999999995  0.7477499999999999  0.58099  1.0000
  H   H40       1.0  0.024399999999999963  0.90172  0.50092  1.0000
  H   H41       1.0  0.8811200000000001  0.83032  0.6140500000000002  1.0000
  H   H42       1.0  0.71692  0.76773  0.56019  1.0000
  H   H43       1.0  0.85003  0.43112999999999996  0.60924  1.0000
  H   H44       1.0  0.8276400000000002  0.4330700000000001  0.7152200000000002  1.0000
  H   H45       1.0  0.04777999999999996  0.58348  0.85408  1.0000
  H   H46       1.0  0.06968  0.58099  0.74775  1.0000
  H   H47       1.0  0.024400000000000026  0.5009300000000001  0.9017200000000001  1.0000
  H   H48       1.0  0.8811199999999999  0.61405  0.83032  1.0000
  H   H49       1.0  0.7169200000000001  0.5601900000000001  0.7677300000000001  1.0000
  H   H50       1.0  0.6092500000000001  0.85003  0.43113  1.0000
  H   H51       1.0  0.71523  0.82761  0.43305  1.0000
  H   H52       1.0  0.85406  0.047780000000000086  0.5834700000000002  1.0000
  H   H53       1.0  0.74774  0.06970999999999995  0.581  1.0000
  H   H54       1.0  0.90171  0.024390000000000002  0.50092  1.0000
  H   H55       1.0  0.83032  0.8811300000000002  0.6140700000000001  1.0000
  H   H56       1.0  0.7677299999999997  0.71692  0.56018  1.0000
  H   H57       1.0  0.4311199999999999  0.60923  0.85002  1.0000
  H   H58       1.0  0.43306  0.7152  0.82763  1.0000
  H   H59       1.0  0.58348  0.8540800000000001  0.04778000000000001  1.0000
  H   H60       1.0  0.58099  0.74777  0.06968  1.0000
  H   H61       1.0  0.50092  0.9017399999999999  0.02439  1.0000
  H   H62       1.0  0.61405  0.83033  0.88112  1.0000
  H   H63       1.0  0.56019  0.7677100000000001  0.71691  1.0000
  H   H64       1.0  0.39075  0.56888  0.14998  1.0000
  H   H65       1.0  0.28478  0.56695  0.17239  1.0000
  H   H66       1.0  0.14595  0.41653  0.95223  1.0000
  H   H67       1.0  0.25226  0.419  0.9303000000000001  1.0000
  H   H68       1.0  0.09829  0.49908  0.97562  1.0000
  H   H69       1.0  0.16968000000000003  0.38593000000000005  0.11888  1.0000
  H   H70       1.0  0.23228  0.43983  0.28309  1.0000
  H   H71       1.0  0.56889  0.14998  0.39078  1.0000
  H   H72       1.0  0.56694  0.17237  0.2848  1.0000
  H   H73       1.0  0.41652  0.95222  0.14592  1.0000
  H   H74       1.0  0.41901  0.93032  0.25224  1.0000
  H   H75       1.0  0.49908  0.9756100000000001  0.09826  1.0000
  H   H76       1.0  0.38595  0.11888000000000003  0.16968000000000003  1.0000
  H   H77       1.0  0.4398099999999999  0.28309000000000006  0.23230000000000003  1.0000
  H   H78       1.0  0.14997000000000013  0.39077000000000023  0.5688800000000003  1.0000
  H   H79       1.0  0.17236000000000004  0.28478000000000003  0.5669400000000001  1.0000
  H   H80       1.0  0.95223  0.14593  0.41653  1.0000
  H   H81       1.0  0.9303200000000001  0.25226000000000004  0.41902000000000006  1.0000
  H   H82       1.0  0.9755999999999999  0.09829000000000004  0.49908  1.0000
  H   H83       1.0  0.11889  0.16969  0.38596  1.0000
  H   H84       1.0  0.28308  0.23228  0.43981  1.0000
  H   H85       1.0  0.22122999999999998  0.3572199999999999  0.22122  1.0000
  H   H86       1.0  0.22122999999999998  0.22122  0.35722  1.0000
  H   H87       1.0  0.35721  0.22125  0.22125000000000003  1.0000
  H   H88       1.0  0.77877  0.64279  0.77878  1.0000
  H   H89       1.0  0.6428  0.77875  0.7787500000000002  1.0000
  H   H90       1.0  0.7787699999999999  0.7787799999999999  0.64279  1.0000
  C   C1        1.0  0.025069999999999978  0.49545  0.39153  1.0000
  C   C2        1.0  0.03878  0.49402  0.32814  1.0000
  C   C3        1.0  0.10712  0.53548  0.33692  1.0000
  C   C4        1.0  0.11947  0.53446  0.27754  1.0000
  C   C5        1.0  0.06364999999999998  0.49235  0.20778  1.0000
  C   C6        1.0  0.9954800000000001  0.45050000000000007  0.19955  1.0000
  C   C7        1.0  0.98301  0.45132  0.2588  1.0000
  C   C8        1.0  0.07427  0.49376  0.14403  1.0000
  C   C9        1.0  0.02168999999999999  0.49652999999999997  0.08993  1.0000
  C   C10       1.0  0.39153000000000004  0.02506000000000006  0.4954500000000001  1.0000
  C   C11       1.0  0.32814  0.038769999999999985  0.49401000000000006  1.0000
  C   C12       1.0  0.33691  0.10712  0.53548  1.0000
  C   C13       1.0  0.27754  0.11948999999999996  0.53447  1.0000
  C   C14       1.0  0.20779  0.06366000000000004  0.49235  1.0000
  C   C15       1.0  0.19955999999999996  0.9954799999999999  0.4505  1.0000
  C   C16       1.0  0.25880999999999993  0.9829999999999999  0.45131  1.0000
  C   C17       1.0  0.14404  0.07428  0.49377  1.0000
  C   C18       1.0  0.08992999999999997  0.021709999999999983  0.49653  1.0000
  C   C19       1.0  0.49546  0.39153  0.02507  1.0000
  C   C20       1.0  0.49402  0.32814  0.03878  1.0000
  C   C21       1.0  0.53549  0.33693  0.10712000000000002  1.0000
  C   C22       1.0  0.53445  0.27756  0.11948  1.0000
  C   C23       1.0  0.49234  0.20778  0.06366  1.0000
  C   C24       1.0  0.4504899999999999  0.19955000000000003  0.9954900000000001  1.0000
  C   C25       1.0  0.45132000000000005  0.2588000000000001  0.9830200000000001  1.0000
  C   C26       1.0  0.49376  0.14405  0.07429  1.0000
  C   C27       1.0  0.49652  0.08993  0.02171  1.0000
  C   C28       1.0  0.60848  0.50455  0.97495  1.0000
  C   C29       1.0  0.6718699999999997  0.506  0.96124  1.0000
  C   C30       1.0  0.6630899999999997  0.46452  0.89288  1.0000
  C   C31       1.0  0.72246  0.46554  0.8805100000000001  1.0000
  C   C32       1.0  0.79222  0.5076500000000002  0.9363500000000001  1.0000
  C   C33       1.0  0.80044  0.5495  0.004520000000000001  1.0000
  C   C34       1.0  0.74119  0.5487  0.017000000000000005  1.0000
  C   C35       1.0  0.8559699999999999  0.50624  0.92573  1.0000
  C   C36       1.0  0.9100699999999999  0.50348  0.9783  1.0000
  C   C37       1.0  0.50454  0.9749299999999999  0.60847  1.0000
  C   C38       1.0  0.50598  0.9612300000000001  0.67186  1.0000
  C   C39       1.0  0.46451999999999993  0.89288  0.66308  1.0000
  C   C40       1.0  0.4655500000000001  0.8805200000000001  0.7224500000000001  1.0000
  C   C41       1.0  0.5076700000000001  0.93635  0.7922200000000001  1.0000
  C   C42       1.0  0.54951  0.0045200000000000535  0.8004600000000001  1.0000
  C   C43       1.0  0.54869  0.01698999999999997  0.74121  1.0000
  C   C44       1.0  0.50624  0.9257200000000001  0.85596  1.0000
  C   C45       1.0  0.50348  0.9783  0.91008  1.0000
  C   C46       1.0  0.9749299999999999  0.60847  0.50455  1.0000
  C   C47       1.0  0.96123  0.67187  0.50599  1.0000
  C   C48       1.0  0.89289  0.66309  0.46452  1.0000
  C   C49       1.0  0.8805299999999999  0.72246  0.4655500000000001  1.0000
  C   C50       1.0  0.9363599999999999  0.7922300000000001  0.50766  1.0000
  C   C51       1.0  0.004519999999999981  0.8004600000000001  0.5495  1.0000
  C   C52       1.0  0.016990000000000026  0.7412  0.5486900000000001  1.0000
  C   C53       1.0  0.9257299999999999  0.85597  0.50624  1.0000
  C   C54       1.0  0.9783099999999998  0.9100799999999999  0.50348  1.0000
  C   C55       1.0  0.9749299999999999  0.50455  0.60847  1.0000
  C   C56       1.0  0.96123  0.50599  0.67187  1.0000
  C   C57       1.0  0.89289  0.46452  0.66309  1.0000
  C   C58       1.0  0.8805299999999999  0.46554999999999996  0.72246  1.0000
  C   C59       1.0  0.9363599999999999  0.50766  0.79223  1.0000
  C   C60       1.0  0.004519999999999961  0.54951  0.80045  1.0000
  C   C61       1.0  0.016990000000000047  0.54869  0.7412  1.0000
  C   C62       1.0  0.9257399999999999  0.5062400000000001  0.8559700000000002  1.0000
  C   C63       1.0  0.9783099999999999  0.50348  0.91008  1.0000
  C   C64       1.0  0.60848  0.97495  0.50455  1.0000
  C   C65       1.0  0.6718699999999997  0.9612399999999999  0.50599  1.0000
  C   C66       1.0  0.66309  0.89288  0.46452  1.0000
  C   C67       1.0  0.72246  0.88051  0.46554000000000006  1.0000
  C   C68       1.0  0.7922200000000003  0.93635  0.5076500000000002  1.0000
  C   C69       1.0  0.80044  0.004520000000000011  0.5495  1.0000
  C   C70       1.0  0.74119  0.016999999999999987  0.5487  1.0000
  C   C71       1.0  0.85596  0.92573  0.50623  1.0000
  C   C72       1.0  0.9100699999999999  0.9783  0.50347  1.0000
  C   C73       1.0  0.50454  0.60848  0.9749300000000002  1.0000
  C   C74       1.0  0.50598  0.6718700000000001  0.9612300000000001  1.0000
  C   C75       1.0  0.4645199999999999  0.6630799999999999  0.89288  1.0000
  C   C76       1.0  0.46555  0.72245  0.8805200000000001  1.0000
  C   C77       1.0  0.5076700000000001  0.79222  0.9363500000000001  1.0000
  C   C78       1.0  0.54951  0.8004600000000001  0.004520000000000001  1.0000
  C   C79       1.0  0.54869  0.74121  0.01699  1.0000
  C   C80       1.0  0.50624  0.85596  0.92572  1.0000
  C   C81       1.0  0.5034799999999999  0.9100799999999999  0.9783  1.0000
  C   C82       1.0  0.39152  0.49545  0.02506  1.0000
  C   C83       1.0  0.32813  0.49401000000000006  0.03877  1.0000
  C   C84       1.0  0.33691  0.53548  0.10712000000000002  1.0000
  C   C85       1.0  0.27754  0.53447  0.11949000000000001  1.0000
  C   C86       1.0  0.20778  0.49235  0.06366  1.0000
  C   C87       1.0  0.19956000000000004  0.45050000000000007  0.9954800000000001  1.0000
  C   C88       1.0  0.25881  0.45131000000000004  0.983  1.0000
  C   C89       1.0  0.14403999999999995  0.49377  0.07428  1.0000
  C   C90       1.0  0.08992999999999997  0.49652999999999997  0.02171  1.0000
  C   C91       1.0  0.49545999999999996  0.02506999999999999  0.39153  1.0000
  C   C92       1.0  0.49402  0.03878  0.32814  1.0000
  C   C93       1.0  0.53549  0.10712  0.33693  1.0000
  C   C94       1.0  0.53445  0.11948  0.27756  1.0000
  C   C95       1.0  0.49234  0.06366  0.20778  1.0000
  C   C96       1.0  0.4504899999999999  0.9954899999999999  0.19955  1.0000
  C   C97       1.0  0.45131  0.98302  0.2588  1.0000
  C   C98       1.0  0.49376  0.07429  0.14405  1.0000
  C   C99       1.0  0.49652  0.021710000000000007  0.08993  1.0000
  C   C100      1.0  0.02507000000000004  0.39153  0.4954500000000001  1.0000
  C   C101      1.0  0.038780000000000044  0.32814000000000004  0.49402000000000007  1.0000
  C   C102      1.0  0.10711999999999997  0.33692  0.53548  1.0000
  C   C103      1.0  0.11947000000000003  0.27754  0.53446  1.0000
  C   C104      1.0  0.06365  0.20778  0.49235  1.0000
  C   C105      1.0  0.9954799999999999  0.19955  0.4505  1.0000
  C   C106      1.0  0.98301  0.2588  0.45132  1.0000
  C   C107      1.0  0.07427  0.14403  0.49376000000000003  1.0000
  C   C108      1.0  0.02169999999999999  0.08992999999999998  0.49653  1.0000
  C   C109      1.0  0.027929999999999996  0.49787  0.027930000000000003  1.0000
  C   C110      1.0  0.13567  0.49224  0.13567  1.0000
  C   C111      1.0  0.17183000000000004  0.41252999999999995  0.17183  1.0000
  C   C112      1.0  0.23079999999999998  0.41256999999999994  0.2308  1.0000
  C   C113      1.0  0.027929999999999996  0.02793999999999995  0.49787  1.0000
  C   C114      1.0  0.13567000000000007  0.13567000000000007  0.49224000000000007  1.0000
  C   C115      1.0  0.17183000000000007  0.17183000000000004  0.41253000000000006  1.0000
  C   C116      1.0  0.23079999999999998  0.2308  0.41257  1.0000
  C   C117      1.0  0.49787  0.02794  0.027940000000000003  1.0000
  C   C118      1.0  0.49225  0.13569  0.13569  1.0000
  C   C119      1.0  0.41252  0.17184  0.17184  1.0000
  C   C120      1.0  0.41255  0.23081000000000002  0.23081000000000002  1.0000
  C   C121      1.0  0.97207  0.50213  0.9720700000000001  1.0000
  C   C122      1.0  0.8643399999999999  0.50776  0.86433  1.0000
  C   C123      1.0  0.82817  0.58748  0.82817  1.0000
  C   C124      1.0  0.7692  0.58744  0.7692  1.0000
  C   C125      1.0  0.5021300000000002  0.9720700000000002  0.9720700000000001  1.0000
  C   C126      1.0  0.5077599999999999  0.86432  0.86432  1.0000
  C   C127      1.0  0.58748  0.8281700000000001  0.8281600000000001  1.0000
  C   C128      1.0  0.58745  0.76919  0.76919  1.0000
  C   C129      1.0  0.97207  0.97207  0.50213  1.0000
  C   C130      1.0  0.8643399999999999  0.8643300000000002  0.50776  1.0000
  C   C131      1.0  0.82817  0.8281700000000001  0.58748  1.0000
  C   C132      1.0  0.7692  0.7691999999999999  0.58744  1.0000
  O   O1        1.0  0.9605199999999999  0.45865000000000006  0.37922  1.0000
  O   O2        1.0  0.07855000000000002  0.53338  0.45350000000000007  1.0000
  O   O3        1.0  0.3792300000000001  0.9605000000000001  0.45865  1.0000
  O   O4        1.0  0.45349  0.07854000000000008  0.5333900000000001  1.0000
  O   O5        1.0  0.45866999999999997  0.3792200000000001  0.96052  1.0000
  O   O6        1.0  0.53339  0.45351  0.07855000000000001  1.0000
  O   O7        1.0  0.62077  0.54135  0.0395  1.0000
  O   O8        1.0  0.54651  0.46662000000000003  0.9214600000000001  1.0000
  O   O9        1.0  0.54133  0.03948000000000001  0.62079  1.0000
  O   O10       1.0  0.46661  0.9214500000000001  0.54649  1.0000
  O   O11       1.0  0.039480000000000015  0.62078  0.5413500000000001  1.0000
  O   O12       1.0  0.9214500000000001  0.5465  0.46662000000000003  1.0000
  O   O13       1.0  0.039480000000000015  0.54135  0.62078  1.0000
  O   O14       1.0  0.92145  0.46662999999999993  0.5465  1.0000
  O   O15       1.0  0.62077  0.03950000000000004  0.5413500000000001  1.0000
  O   O16       1.0  0.5465100000000002  0.9214600000000001  0.46662000000000003  1.0000
  O   O17       1.0  0.54133  0.62079  0.03948  1.0000
  O   O18       1.0  0.46661  0.5465  0.92145  1.0000
  O   O19       1.0  0.37923  0.45866  0.9605  1.0000
  O   O20       1.0  0.45349  0.53339  0.07854  1.0000
  O   O21       1.0  0.45866999999999986  0.96052  0.37922  1.0000
  O   O22       1.0  0.53339  0.07855000000000006  0.4535100000000001  1.0000
  O   O23       1.0  0.9605199999999999  0.37923  0.45865  1.0000
  O   O24       1.0  0.07854999999999998  0.45349999999999996  0.53338  1.0000
  O   O25       1.0  0.18701  0.48693000000000003  0.18701000000000004  1.0000
  O   O26       1.0  0.18701  0.18701  0.48693  1.0000
  O   O27       1.0  0.4869299999999999  0.18704  0.18704  1.0000
  O   O28       1.0  0.8129900000000001  0.5130800000000001  0.8129900000000002  1.0000
  O   O29       1.0  0.51307  0.81296  0.81296  1.0000
  O   O30       1.0  0.8129899999999998  0.8129899999999999  0.51307  1.0000
