data_image0
_chemical_formula_structural       Cu6H144C144N48
_chemical_formula_sum              "Cu6 H144 C144 N48"
_cell_length_a       20.59548
_cell_length_b       20.594800000000003
_cell_length_c       20.59494
_cell_angle_alpha    109.53439
_cell_angle_beta     109.54342
_cell_angle_gamma    109.54356000000001

_symmetry_space_group_name_H-M    'P 1'
_symmetry_Int_Tables_number       1

loop_
  _symmetry_equiv_pos_as_xyz
  'x,y,z'

loop_
  _atom_site_type_symbol
  _atom_site_label
  _atom_site_symmetry_multiplicity
  _atom_site_fract_x
  _atom_site_fract_y
  _atom_site_fract_z
  _atom_site_occupancy
  Cu  Cu1       1.0  0.24987000000000004  0.74965  0.49977  1.0000
  Cu  Cu2       1.0  0.7496300000000004  0.24985  0.49977  1.0000
  Cu  Cu3       1.0  0.7496300000000001  0.49978  0.24985  1.0000
  Cu  Cu4       1.0  0.24987000000000015  0.4997800000000001  0.7496400000000002  1.0000
  Cu  Cu5       1.0  0.49977  0.74964  0.24986000000000003  1.0000
  Cu  Cu6       1.0  0.4997800000000003  0.24986000000000014  0.7496400000000002  1.0000
  H   H1        1.0  0.38303  0.75115  0.51236  1.0000
  H   H2        1.0  0.4359900000000001  0.8414100000000001  0.51675  1.0000
  H   H3        1.0  0.08693000000000004  0.7044  0.21644000000000005  1.0000
  H   H4        1.0  0.08518999999999999  0.61475  0.16806  1.0000
  H   H5        1.0  0.6172500000000001  0.12933  0.36834  1.0000
  H   H6        1.0  0.5646000000000001  0.08062000000000005  0.4057100000000001  1.0000
  H   H7        1.0  0.9136100000000001  0.13026  0.618  1.0000
  H   H8        1.0  0.9146400000000003  0.08336000000000014  0.5296300000000003  1.0000
  H   H9        1.0  0.76109  0.24887  0.63174  1.0000
  H   H10       1.0  0.6747600000000001  0.15863  0.59401  1.0000
  H   H11       1.0  0.5121800000000001  0.29547  0.38263  1.0000
  H   H12       1.0  0.55396  0.38513  0.47106  1.0000
  H   H13       1.0  0.23845000000000013  0.8700100000000001  0.48716000000000004  1.0000
  H   H14       1.0  0.32468000000000014  0.9189500000000002  0.48338000000000003  1.0000
  H   H15       1.0  0.4877000000000001  0.87053  0.7832  1.0000
  H   H16       1.0  0.44635  0.9173100000000001  0.83129  1.0000
  H   H17       1.0  0.86999  0.48717  0.23847  1.0000
  H   H18       1.0  0.9189200000000002  0.48338  0.32469  1.0000
  H   H19       1.0  0.87053  0.7831700000000001  0.48769000000000007  1.0000
  H   H20       1.0  0.9173100000000001  0.8312800000000001  0.44635  1.0000
  H   H21       1.0  0.24887000000000012  0.6317200000000001  0.76108  1.0000
  H   H22       1.0  0.15862000000000007  0.59397  0.67475  1.0000
  H   H23       1.0  0.29545  0.38262999999999997  0.5122  1.0000
  H   H24       1.0  0.38512  0.47108  0.55398  1.0000
  H   H25       1.0  0.12933  0.36835  0.61726  1.0000
  H   H26       1.0  0.08065000000000001  0.40574000000000005  0.56463  1.0000
  H   H27       1.0  0.13027000000000008  0.6179900000000002  0.9135800000000001  1.0000
  H   H28       1.0  0.08336000000000017  0.5296300000000002  0.9146300000000003  1.0000
  H   H29       1.0  0.7511400000000001  0.51235  0.38302  1.0000
  H   H30       1.0  0.84141  0.51675  0.43596  1.0000
  H   H31       1.0  0.7044200000000002  0.21648000000000003  0.08696  1.0000
  H   H32       1.0  0.61475  0.16808  0.0852  1.0000
  H   H33       1.0  0.6317400000000002  0.7611000000000001  0.24887000000000004  1.0000
  H   H34       1.0  0.5939900000000001  0.67477  0.15863  1.0000
  H   H35       1.0  0.3826300000000001  0.51218  0.29546  1.0000
  H   H36       1.0  0.47107000000000004  0.55394  0.38512000000000013  1.0000
  H   H37       1.0  0.48715  0.2384500000000001  0.8700000000000002  1.0000
  H   H38       1.0  0.4833700000000001  0.3246799999999999  0.91892  1.0000
  H   H39       1.0  0.78319  0.48771000000000003  0.87053  1.0000
  H   H40       1.0  0.8313000000000001  0.44638000000000005  0.91734  1.0000
  H   H41       1.0  0.51236  0.38305  0.75115  1.0000
  H   H42       1.0  0.51676  0.4359700000000001  0.84141  1.0000
  H   H43       1.0  0.21645  0.08693999999999999  0.70441  1.0000
  H   H44       1.0  0.16805000000000012  0.0852  0.61475  1.0000
  H   H45       1.0  0.3683300000000001  0.61724  0.12933  1.0000
  H   H46       1.0  0.40572  0.56462  0.08066  1.0000
  H   H47       1.0  0.618  0.9136  0.13026  1.0000
  H   H48       1.0  0.52963  0.91463  0.08333  1.0000
  H   H49       1.0  0.38303  0.51236  0.75115  1.0000
  H   H50       1.0  0.4359900000000001  0.51675  0.84141  1.0000
  H   H51       1.0  0.08693000000000013  0.21644000000000016  0.7044000000000002  1.0000
  H   H52       1.0  0.08518999999999999  0.16806  0.61474  1.0000
  H   H53       1.0  0.61724  0.36834  0.12933  1.0000
  H   H54       1.0  0.5646000000000001  0.40571  0.08062000000000002  1.0000
  H   H55       1.0  0.9136100000000001  0.618  0.13026  1.0000
  H   H56       1.0  0.9146400000000001  0.52963  0.08336  1.0000
  H   H57       1.0  0.7610899999999999  0.63174  0.24887000000000004  1.0000
  H   H58       1.0  0.6747600000000001  0.5940100000000001  0.15863  1.0000
  H   H59       1.0  0.5121800000000001  0.38263  0.29547  1.0000
  H   H60       1.0  0.55396  0.47106000000000003  0.38513  1.0000
  H   H61       1.0  0.2384500000000001  0.4871600000000001  0.8700000000000002  1.0000
  H   H62       1.0  0.32468000000000014  0.4833800000000001  0.9189500000000002  1.0000
  H   H63       1.0  0.4877100000000001  0.7831999999999999  0.87053  1.0000
  H   H64       1.0  0.4463600000000003  0.83129  0.9173100000000002  1.0000
  H   H65       1.0  0.86999  0.23847000000000002  0.48717  1.0000
  H   H66       1.0  0.9189200000000002  0.32469000000000003  0.48338000000000003  1.0000
  H   H67       1.0  0.87053  0.48769000000000007  0.78317  1.0000
  H   H68       1.0  0.9173100000000001  0.44635  0.83128  1.0000
  H   H69       1.0  0.24887000000000026  0.7610900000000003  0.6317200000000002  1.0000
  H   H70       1.0  0.15862000000000012  0.67475  0.59397  1.0000
  H   H71       1.0  0.29545  0.5122  0.38263  1.0000
  H   H72       1.0  0.38512000000000013  0.5539800000000001  0.4710800000000001  1.0000
  H   H73       1.0  0.12933000000000003  0.6172600000000001  0.36835  1.0000
  H   H74       1.0  0.08065000000000005  0.56463  0.40574  1.0000
  H   H75       1.0  0.13027000000000002  0.9135900000000001  0.61799  1.0000
  H   H76       1.0  0.08336000000000006  0.9146400000000001  0.5296200000000001  1.0000
  H   H77       1.0  0.7511400000000001  0.38302  0.51234  1.0000
  H   H78       1.0  0.84141  0.4359600000000002  0.5167400000000002  1.0000
  H   H79       1.0  0.7044200000000003  0.08696  0.21647  1.0000
  H   H80       1.0  0.61475  0.0852  0.16807  1.0000
  H   H81       1.0  0.6317400000000002  0.24887  0.76109  1.0000
  H   H82       1.0  0.59399  0.15863  0.67477  1.0000
  H   H83       1.0  0.3826300000000001  0.29546  0.51218  1.0000
  H   H84       1.0  0.4710700000000001  0.38512000000000013  0.5539400000000002  1.0000
  H   H85       1.0  0.48715  0.8700000000000001  0.23845  1.0000
  H   H86       1.0  0.4833700000000001  0.9189200000000001  0.3246800000000001  1.0000
  H   H87       1.0  0.78319  0.87053  0.48771  1.0000
  H   H88       1.0  0.8313000000000001  0.91734  0.44638  1.0000
  H   H89       1.0  0.51236  0.75116  0.38305  1.0000
  H   H90       1.0  0.51676  0.8414100000000001  0.43597  1.0000
  H   H91       1.0  0.21645  0.70442  0.08694  1.0000
  H   H92       1.0  0.16805  0.61475  0.0852  1.0000
  H   H93       1.0  0.36833000000000016  0.12933  0.61724  1.0000
  H   H94       1.0  0.40572  0.08066  0.56462  1.0000
  H   H95       1.0  0.6180000000000003  0.13026000000000013  0.9135900000000002  1.0000
  H   H96       1.0  0.52963  0.08333000000000008  0.9146300000000003  1.0000
  H   H97       1.0  0.42435000000000006  0.68185  0.42437  1.0000
  H   H98       1.0  0.5102900000000001  0.7679800000000001  0.51029  1.0000
  H   H99       1.0  0.16661  0.76918  0.16659  1.0000
  H   H100      1.0  0.08460000000000005  0.6772600000000001  0.08461000000000003  1.0000
  H   H101      1.0  0.57532  0.99959  0.25741  1.0000
  H   H102      1.0  0.48968000000000006  0.9996  0.25751  1.0000
  H   H103      1.0  0.8336900000000005  0.00043000000000001793  0.60267  1.0000
  H   H104      1.0  0.91538  0.00047000000000003024  0.59281  1.0000
  H   H105      1.0  0.7426400000000002  0.3182300000000002  0.7426300000000002  1.0000
  H   H106      1.0  0.7421600000000002  0.23218000000000003  0.74216  1.0000
  H   H107      1.0  0.39728  0.23067  0.39729  1.0000
  H   H108      1.0  0.40759000000000006  0.32256  0.40758  1.0000
  H   H109      1.0  0.25739  0.99956  0.5753  1.0000
  H   H110      1.0  0.25751000000000007  0.99961  0.48969000000000007  1.0000
  H   H111      1.0  0.60268  0.00044999999999993255  0.8337  1.0000
  H   H112      1.0  0.5928100000000001  0.0004600000000000043  0.91538  1.0000
  H   H113      1.0  0.9995700000000003  0.57533  0.2574  1.0000
  H   H114      1.0  0.9996  0.48972  0.25753  1.0000
  H   H115      1.0  0.00044000000000000804  0.83368  0.60267  1.0000
  H   H116      1.0  0.0004700000000001213  0.9153500000000001  0.5927900000000003  1.0000
  H   H117      1.0  0.31822000000000006  0.74263  0.74262  1.0000
  H   H118      1.0  0.23219000000000006  0.7421400000000001  0.74214  1.0000
  H   H119      1.0  0.23067  0.39731  0.39731  1.0000
  H   H120      1.0  0.3225400000000001  0.4076000000000001  0.4076  1.0000
  H   H121      1.0  0.9995700000000003  0.2574  0.57533  1.0000
  H   H122      1.0  0.9996  0.25754  0.48972  1.0000
  H   H123      1.0  0.00044000000000005114  0.60267  0.83367  1.0000
  H   H124      1.0  0.0004700000000001644  0.5927900000000003  0.9153400000000003  1.0000
  H   H125      1.0  0.68185  0.4243500000000001  0.4243500000000001  1.0000
  H   H126      1.0  0.76797  0.5102600000000002  0.51026  1.0000
  H   H127      1.0  0.76918  0.16662  0.16662  1.0000
  H   H128      1.0  0.67727  0.08464  0.08464  1.0000
  H   H129      1.0  0.7426400000000001  0.74264  0.31823  1.0000
  H   H130      1.0  0.7421600000000002  0.74217  0.23218  1.0000
  H   H131      1.0  0.3972800000000001  0.39729000000000003  0.23067000000000004  1.0000
  H   H132      1.0  0.4075800000000002  0.4075800000000001  0.32256000000000007  1.0000
  H   H133      1.0  0.57532  0.2574100000000001  0.9995900000000001  1.0000
  H   H134      1.0  0.48968000000000006  0.25751  0.9996  1.0000
  H   H135      1.0  0.8336900000000002  0.60267  0.0004300000000000001  1.0000
  H   H136      1.0  0.91538  0.59281  0.00047000000000000004  1.0000
  H   H137      1.0  0.42435000000000006  0.4243700000000001  0.68185  1.0000
  H   H138      1.0  0.5102900000000002  0.5103000000000002  0.7679800000000002  1.0000
  H   H139      1.0  0.16661  0.16659  0.76917  1.0000
  H   H140      1.0  0.0846  0.08461000000000002  0.67726  1.0000
  H   H141      1.0  0.2573900000000002  0.5753000000000001  0.9995600000000001  1.0000
  H   H142      1.0  0.25751000000000007  0.48969  0.99961  1.0000
  H   H143      1.0  0.60268  0.83371  0.00045  1.0000
  H   H144      1.0  0.5928100000000001  0.91538  0.00046  1.0000
  C   C1        1.0  0.19693000000000002  0.70736  0.27134  1.0000
  C   C2        1.0  0.33061  0.75258  0.40475  1.0000
  C   C3        1.0  0.40263  0.776  0.47839000000000004  1.0000
  C   C4        1.0  0.12184000000000007  0.6801400000000001  0.19802  1.0000
  C   C5        1.0  0.8032900000000001  0.07492000000000006  0.5107600000000001  1.0000
  C   C6        1.0  0.6696  0.07418  0.42212  1.0000
  C   C7        1.0  0.59763  0.07566000000000003  0.3735  1.0000
  C   C8        1.0  0.87835  0.07678000000000001  0.55858  1.0000
  C   C9        1.0  0.564  0.29245  0.48958  1.0000
  C   C10       1.0  0.65204  0.24742  0.57792  1.0000
  C   C11       1.0  0.70216  0.22404000000000002  0.62641  1.0000
  C   C12       1.0  0.51812  0.31973000000000007  0.44191  1.0000
  C   C13       1.0  0.4359700000000001  0.92566  0.7284400000000002  1.0000
  C   C14       1.0  0.3477400000000001  0.92557  0.5950400000000002  1.0000
  C   C15       1.0  0.29745  0.92379  0.5214000000000001  1.0000
  C   C16       1.0  0.48196000000000017  0.9239700000000001  0.80168  1.0000
  C   C17       1.0  0.92565  0.7284300000000001  0.43597  1.0000
  C   C18       1.0  0.9255600000000002  0.5950400000000001  0.3477400000000001  1.0000
  C   C19       1.0  0.92378  0.52141  0.29746  1.0000
  C   C20       1.0  0.9239600000000002  0.8016600000000002  0.48195000000000005  1.0000
  C   C21       1.0  0.2924400000000001  0.48959  0.56401  1.0000
  C   C22       1.0  0.24742000000000014  0.57791  0.6520500000000002  1.0000
  C   C23       1.0  0.22404000000000002  0.62639  0.70216  1.0000
  C   C24       1.0  0.31972000000000006  0.44193  0.51814  1.0000
  C   C25       1.0  0.07492000000000011  0.51076  0.8032800000000002  1.0000
  C   C26       1.0  0.07418000000000016  0.42213000000000017  0.6696100000000003  1.0000
  C   C27       1.0  0.07567000000000002  0.37352  0.59765  1.0000
  C   C28       1.0  0.07678  0.55857  0.87834  1.0000
  C   C29       1.0  0.7073700000000002  0.27136  0.19694  1.0000
  C   C30       1.0  0.7525700000000003  0.40475  0.3306  1.0000
  C   C31       1.0  0.776  0.47839  0.40262  1.0000
  C   C32       1.0  0.68014  0.19805  0.12186  1.0000
  C   C33       1.0  0.48959000000000014  0.5640000000000001  0.29245  1.0000
  C   C34       1.0  0.5779200000000001  0.6520599999999999  0.24742  1.0000
  C   C35       1.0  0.6264000000000001  0.70217  0.22404  1.0000
  C   C36       1.0  0.4419200000000001  0.51811  0.31972  1.0000
  C   C37       1.0  0.7284300000000001  0.4359700000000001  0.92565  1.0000
  C   C38       1.0  0.59503  0.34774  0.92556  1.0000
  C   C39       1.0  0.52139  0.29745  0.92378  1.0000
  C   C40       1.0  0.8016800000000001  0.4819700000000001  0.9239700000000002  1.0000
  C   C41       1.0  0.27134  0.19693  0.70736  1.0000
  C   C42       1.0  0.40474  0.33061  0.75257  1.0000
  C   C43       1.0  0.47839  0.40264000000000005  0.77599  1.0000
  C   C44       1.0  0.19802  0.12185  0.68014  1.0000
  C   C45       1.0  0.51075  0.80329  0.07492000000000003  1.0000
  C   C46       1.0  0.42212000000000005  0.66961  0.07418  1.0000
  C   C47       1.0  0.37350000000000005  0.59763  0.07567  1.0000
  C   C48       1.0  0.5585800000000001  0.87835  0.07677000000000003  1.0000
  C   C49       1.0  0.19693000000000002  0.27134  0.70736  1.0000
  C   C50       1.0  0.33061000000000024  0.4047500000000001  0.7525800000000002  1.0000
  C   C51       1.0  0.40263  0.47839  0.776  1.0000
  C   C52       1.0  0.12184000000000006  0.19802  0.68014  1.0000
  C   C53       1.0  0.8032900000000001  0.51076  0.07492000000000003  1.0000
  C   C54       1.0  0.6696000000000002  0.42212000000000005  0.07418  1.0000
  C   C55       1.0  0.59763  0.37350000000000005  0.07566  1.0000
  C   C56       1.0  0.87835  0.55858  0.07678000000000003  1.0000
  C   C57       1.0  0.564  0.48959  0.29245  1.0000
  C   C58       1.0  0.6520399999999998  0.5779199999999999  0.24742  1.0000
  C   C59       1.0  0.7021700000000003  0.6264100000000001  0.22404  1.0000
  C   C60       1.0  0.51812  0.44192  0.31973  1.0000
  C   C61       1.0  0.4359700000000001  0.72844  0.92565  1.0000
  C   C62       1.0  0.34774000000000016  0.5950400000000001  0.92556  1.0000
  C   C63       1.0  0.29745  0.5214  0.92379  1.0000
  C   C64       1.0  0.48195999999999994  0.80168  0.92396  1.0000
  C   C65       1.0  0.92565  0.4359700000000001  0.72842  1.0000
  C   C66       1.0  0.9255600000000005  0.34774000000000016  0.5950400000000002  1.0000
  C   C67       1.0  0.92378  0.29746000000000017  0.5214000000000001  1.0000
  C   C68       1.0  0.9239600000000002  0.48195  0.80166  1.0000
  C   C69       1.0  0.2924400000000001  0.56401  0.4895900000000001  1.0000
  C   C70       1.0  0.24742000000000014  0.6520500000000002  0.5779100000000003  1.0000
  C   C71       1.0  0.22404000000000002  0.70216  0.62639  1.0000
  C   C72       1.0  0.31972000000000006  0.51814  0.44193  1.0000
  C   C73       1.0  0.07492000000000003  0.80328  0.51075  1.0000
  C   C74       1.0  0.0741800000000001  0.6696200000000001  0.42212  1.0000
  C   C75       1.0  0.07567000000000002  0.59765  0.3735200000000001  1.0000
  C   C76       1.0  0.07678000000000004  0.8783400000000001  0.55857  1.0000
  C   C77       1.0  0.70737  0.19694000000000003  0.27136  1.0000
  C   C78       1.0  0.75257  0.3306  0.40474  1.0000
  C   C79       1.0  0.776  0.40262000000000003  0.4783800000000001  1.0000
  C   C80       1.0  0.68014  0.12186  0.19805000000000003  1.0000
  C   C81       1.0  0.48959000000000014  0.29245  0.564  1.0000
  C   C82       1.0  0.5779200000000001  0.24742000000000008  0.6520500000000002  1.0000
  C   C83       1.0  0.6264  0.22404000000000002  0.70217  1.0000
  C   C84       1.0  0.4419200000000001  0.31973000000000007  0.5181100000000001  1.0000
  C   C85       1.0  0.7284300000000001  0.92566  0.43597  1.0000
  C   C86       1.0  0.5950300000000002  0.92556  0.3477400000000001  1.0000
  C   C87       1.0  0.52139  0.9237800000000002  0.29745  1.0000
  C   C88       1.0  0.8016800000000001  0.9239700000000001  0.48197  1.0000
  C   C89       1.0  0.27134  0.70736  0.19693000000000005  1.0000
  C   C90       1.0  0.40475000000000017  0.7525700000000001  0.3306100000000001  1.0000
  C   C91       1.0  0.47839  0.776  0.40263  1.0000
  C   C92       1.0  0.19802000000000006  0.6801400000000001  0.12185  1.0000
  C   C93       1.0  0.51075  0.07492000000000013  0.8032900000000002  1.0000
  C   C94       1.0  0.42212000000000005  0.07418  0.6696  1.0000
  C   C95       1.0  0.37350000000000005  0.07567000000000011  0.5976300000000002  1.0000
  C   C96       1.0  0.55858  0.07676999999999999  0.87835  1.0000
  C   C97       1.0  0.26619000000000004  0.7183200000000001  0.26619  1.0000
  C   C98       1.0  0.33561000000000013  0.7426600000000001  0.33561  1.0000
  C   C99       1.0  0.45609  0.74737  0.45609  1.0000
  C   C100      1.0  0.14035000000000009  0.70429  0.14035  1.0000
  C   C101      1.0  0.73388  0.0002100000000000875  0.4521700000000001  1.0000
  C   C102      1.0  0.6644299999999999  0.99995  0.40702  1.0000
  C   C103      1.0  0.5437900000000001  0.9996300000000001  0.2912000000000001  1.0000
  C   C104      1.0  0.8597400000000004  0.00043000000000001793  0.56401  1.0000
  C   C105      1.0  0.5479700000000002  0.28170000000000006  0.5479600000000001  1.0000
  C   C106      1.0  0.593  0.2575  0.59301  1.0000
  C   C107      1.0  0.70861  0.2527  0.70862  1.0000
  C   C108      1.0  0.43619  0.29558  0.43618  1.0000
  C   C109      1.0  0.45217  0.00020999999999999597  0.73388  1.0000
  C   C110      1.0  0.4070200000000002  0.9999500000000002  0.6644300000000002  1.0000
  C   C111      1.0  0.2912  0.9996300000000001  0.54378  1.0000
  C   C112      1.0  0.56401  0.0004300000000000637  0.85974  1.0000
  C   C113      1.0  0.00021000000000001657  0.7338800000000001  0.4521700000000001  1.0000
  C   C114      1.0  0.9999400000000002  0.6644400000000001  0.4070100000000001  1.0000
  C   C115      1.0  0.9996300000000001  0.54381  0.29122  1.0000
  C   C116      1.0  0.000429999999999999  0.8597100000000001  0.56399  1.0000
  C   C117      1.0  0.28169000000000016  0.5479700000000002  0.5479700000000002  1.0000
  C   C118      1.0  0.25750000000000006  0.59301  0.59301  1.0000
  C   C119      1.0  0.2527  0.70859  0.70859  1.0000
  C   C120      1.0  0.29557000000000005  0.43621000000000004  0.4362100000000001  1.0000
  C   C121      1.0  0.00021000000000001657  0.45217  0.73387  1.0000
  C   C122      1.0  0.9999400000000004  0.4070100000000001  0.6644300000000002  1.0000
  C   C123      1.0  0.9996300000000001  0.2912200000000001  0.5438100000000001  1.0000
  C   C124      1.0  0.0004300000000000206  0.564  0.85971  1.0000
  C   C125      1.0  0.7183200000000001  0.2662  0.26619  1.0000
  C   C126      1.0  0.74266  0.33561  0.33561  1.0000
  C   C127      1.0  0.7473700000000002  0.4560700000000001  0.45606000000000013  1.0000
  C   C128      1.0  0.7042900000000003  0.14038  0.14038  1.0000
  C   C129      1.0  0.5479700000000001  0.5479700000000001  0.2817  1.0000
  C   C130      1.0  0.593  0.59301  0.25750000000000006  1.0000
  C   C131      1.0  0.70861  0.7086200000000002  0.2527000000000001  1.0000
  C   C132      1.0  0.43619  0.43618  0.29558  1.0000
  C   C133      1.0  0.7338799999999999  0.45217  0.00021  1.0000
  C   C134      1.0  0.6644300000000003  0.40702  0.99995  1.0000
  C   C135      1.0  0.5437800000000003  0.2912000000000001  0.9996300000000001  1.0000
  C   C136      1.0  0.8597400000000001  0.56402  0.0004300000000000001  1.0000
  C   C137      1.0  0.26619  0.26619  0.71831  1.0000
  C   C138      1.0  0.33561  0.33561  0.74266  1.0000
  C   C139      1.0  0.45609  0.45609000000000005  0.74737  1.0000
  C   C140      1.0  0.14035000000000009  0.14035  0.70429  1.0000
  C   C141      1.0  0.45217  0.73388  0.00021  1.0000
  C   C142      1.0  0.40702  0.6644300000000001  0.99995  1.0000
  C   C143      1.0  0.2912000000000001  0.5437800000000002  0.9996300000000001  1.0000
  C   C144      1.0  0.56402  0.85974  0.0004300000000000001  1.0000
  N   N1        1.0  0.26277000000000006  0.7405400000000001  0.40507  1.0000
  N   N2        1.0  0.19486  0.71934  0.33784  1.0000
  N   N3        1.0  0.7374800000000002  0.1426300000000001  0.47828000000000004  1.0000
  N   N4        1.0  0.8054600000000002  0.14360000000000012  0.5251300000000002  1.0000
  N   N5        1.0  0.6641500000000001  0.25898  0.52185  1.0000
  N   N6        1.0  0.6182100000000003  0.28014  0.47524  1.0000
  N   N7        1.0  0.3355200000000001  0.85733  0.59445  1.0000
  N   N8        1.0  0.38152  0.85683  0.66171  1.0000
  N   N9        1.0  0.85732  0.5944500000000001  0.33550000000000013  1.0000
  N   N10       1.0  0.8568200000000001  0.6617000000000002  0.3815  1.0000
  N   N11       1.0  0.2589900000000001  0.52185  0.66418  1.0000
  N   N12       1.0  0.28014000000000006  0.47524  0.61823  1.0000
  N   N13       1.0  0.1426300000000001  0.4782600000000001  0.73749  1.0000
  N   N14       1.0  0.14360999999999996  0.52512  0.80547  1.0000
  N   N15       1.0  0.7405200000000001  0.40508  0.26276  1.0000
  N   N16       1.0  0.7193300000000001  0.33785  0.19485000000000005  1.0000
  N   N17       1.0  0.5218600000000001  0.6641800000000002  0.259  1.0000
  N   N18       1.0  0.47526  0.61823  0.28016  1.0000
  N   N19       1.0  0.5944500000000003  0.3355099999999999  0.85732  1.0000
  N   N20       1.0  0.6617000000000001  0.38151000000000007  0.8568300000000001  1.0000
  N   N21       1.0  0.40507000000000004  0.26277  0.74051  1.0000
  N   N22       1.0  0.33783  0.19484999999999994  0.71932  1.0000
  N   N23       1.0  0.4782500000000001  0.7374900000000001  0.14263  1.0000
  N   N24       1.0  0.5251100000000001  0.80547  0.14361000000000004  1.0000
  N   N25       1.0  0.26277  0.40508  0.74054  1.0000
  N   N26       1.0  0.19486  0.33784  0.71934  1.0000
  N   N27       1.0  0.73748  0.47828000000000004  0.14263  1.0000
  N   N28       1.0  0.80546  0.5251300000000001  0.1436  1.0000
  N   N29       1.0  0.6641500000000001  0.52185  0.25898  1.0000
  N   N30       1.0  0.61821  0.47524  0.28014  1.0000
  N   N31       1.0  0.3355200000000001  0.59445  0.85733  1.0000
  N   N32       1.0  0.38152000000000025  0.6617100000000002  0.8568300000000001  1.0000
  N   N33       1.0  0.8573200000000001  0.3355000000000001  0.59445  1.0000
  N   N34       1.0  0.85682  0.38151  0.6617  1.0000
  N   N35       1.0  0.25899  0.66418  0.52185  1.0000
  N   N36       1.0  0.28014000000000006  0.6182400000000001  0.47524  1.0000
  N   N37       1.0  0.1426300000000001  0.7374900000000001  0.47826  1.0000
  N   N38       1.0  0.14361000000000004  0.80547  0.52512  1.0000
  N   N39       1.0  0.74052  0.26276  0.40508  1.0000
  N   N40       1.0  0.7193300000000001  0.19485  0.33785  1.0000
  N   N41       1.0  0.5218600000000001  0.25900000000000006  0.66418  1.0000
  N   N42       1.0  0.47526  0.28016  0.61823  1.0000
  N   N43       1.0  0.5944500000000003  0.85732  0.33551  1.0000
  N   N44       1.0  0.6617000000000001  0.85683  0.38151  1.0000
  N   N45       1.0  0.40507000000000004  0.74052  0.26277  1.0000
  N   N46       1.0  0.33783  0.71932  0.19485000000000005  1.0000
  N   N47       1.0  0.47826  0.14263000000000003  0.73748  1.0000
  N   N48       1.0  0.5251100000000001  0.14361000000000002  0.80547  1.0000
