data_image0
_chemical_formula_structural       Co16H96C128S16N64O64
_chemical_formula_sum              "Co16 H96 C128 S16 N64 O64"
_cell_length_a       16.60534
_cell_length_b       16.950599999999998
_cell_length_c       19.896089999999997
_cell_angle_alpha    89.91533999999999
_cell_angle_beta     90.02534
_cell_angle_gamma    90.0586

_symmetry_space_group_name_H-M    'P 1'
_symmetry_Int_Tables_number       1

loop_
  _symmetry_equiv_pos_as_xyz
  'x,y,z'

loop_
  _atom_site_type_symbol
  _atom_site_label
  _atom_site_symmetry_multiplicity
  _atom_site_fract_x
  _atom_site_fract_y
  _atom_site_fract_z
  _atom_site_occupancy
  Co  Co1       1.0  0.28359  0.84504  0.4939299999999999  1.0000
  Co  Co2       1.0  0.38652  0.9598200000000001  0.2432  1.0000
  Co  Co3       1.0  0.26629  0.86878  0.99961  1.0000
  Co  Co4       1.0  0.37509  0.95413  0.75891  1.0000
  Co  Co5       1.0  0.717  0.65297  0.99433  1.0000
  Co  Co6       1.0  0.6132400000000001  0.53859  0.74299  1.0000
  Co  Co7       1.0  0.73314  0.63077  0.49862  1.0000
  Co  Co8       1.0  0.6248300000000001  0.5458200000000001  0.25738  1.0000
  Co  Co9       1.0  0.78399  0.15459  0.006139999999999999  1.0000
  Co  Co10      1.0  0.88692  0.04096000000000002  0.2579  1.0000
  Co  Co11      1.0  0.76684  0.13134  0.5015399999999999  1.0000
  Co  Co12      1.0  0.8724800000000003  0.04434  0.7417999999999998  1.0000
  Co  Co13      1.0  0.21713  0.34593  0.5067199999999998  1.0000
  Co  Co14      1.0  0.11334  0.45975  0.7568299999999999  1.0000
  Co  Co15      1.0  0.2332  0.3691200000000001  0.0003599999999999999  1.0000
  Co  Co16      1.0  0.12479  0.45353  0.24328  1.0000
  H   H1        1.0  0.04977  0.03073  0.54111  1.0000
  H   H2        1.0  0.1564  0.9057  0.21685999999999997  1.0000
  H   H3        1.0  0.20845000000000002  0.1954  0.28455  1.0000
  H   H4        1.0  0.35636  0.10129  0.9611299999999999  1.0000
  H   H5        1.0  0.20866  0.19845  0.7971299999999999  1.0000
  H   H6        1.0  0.3305  0.07014000000000001  0.47517  1.0000
  H   H7        1.0  0.63752  0.10949000000000003  0.7875199999999999  1.0000
  H   H8        1.0  0.53855  0.9419100000000001  0.47368  1.0000
  H   H9        1.0  0.17271  0.95674  0.58495  1.0000
  H   H10       1.0  0.02784  0.9752899999999999  0.16623  1.0000
  H   H11       1.0  0.26385  0.06553  0.32598  1.0000
  H   H12       1.0  0.31138  0.23691  0.91709  1.0000
  H   H13       1.0  0.26285  0.07077  0.8445499999999998  1.0000
  H   H14       1.0  0.27667  0.20042  0.4223  1.0000
  H   H15       1.0  0.50578  0.0534  0.84059  1.0000
  H   H16       1.0  0.66269  0.0038600000000000006  0.42682999999999993  1.0000
  H   H17       1.0  0.22027  0.88217  0.34442  1.0000
  H   H18       1.0  0.9789000000000001  0.05495  0.40645  1.0000
  H   H19       1.0  0.36036  0.02568  0.08983999999999998  1.0000
  H   H20       1.0  0.20504  0.27607  0.15203  1.0000
  H   H21       1.0  0.33742  0.00571  0.60631  1.0000
  H   H22       1.0  0.19821  0.26697  0.6600799999999998  1.0000
  H   H23       1.0  0.70586  0.11369  0.6582099999999999  1.0000
  H   H24       1.0  0.46506  0.93336  0.6115699999999997  1.0000
  H   H25       1.0  0.9513400000000002  0.46755  0.03967  1.0000
  H   H26       1.0  0.84239  0.59265  0.7156199999999999  1.0000
  H   H27       1.0  0.79485  0.30507  0.7846999999999998  1.0000
  H   H28       1.0  0.64522  0.39929  0.4613999999999999  1.0000
  H   H29       1.0  0.7911600000000002  0.30163  0.29567  1.0000
  H   H30       1.0  0.67001  0.43003  0.97334  1.0000
  H   H31       1.0  0.36171  0.39196  0.28651  1.0000
  H   H32       1.0  0.46087  0.55892  0.97192  1.0000
  H   H33       1.0  0.82872  0.54102  0.08375  1.0000
  H   H34       1.0  0.97215  0.52553  0.6648499999999999  1.0000
  H   H35       1.0  0.73756  0.4341  0.8264999999999999  1.0000
  H   H36       1.0  0.69113  0.26424000000000003  0.41753999999999997  1.0000
  H   H37       1.0  0.73648  0.42911000000000005  0.3429499999999999  1.0000
  H   H38       1.0  0.72555  0.30055  0.92073  1.0000
  H   H39       1.0  0.4938  0.44701  0.33915  1.0000
  H   H40       1.0  0.3365600000000001  0.49767000000000006  0.9253499999999999  1.0000
  H   H41       1.0  0.77897  0.61574  0.84317  1.0000
  H   H42       1.0  0.02243  0.44541  0.90487  1.0000
  H   H43       1.0  0.64014  0.4741699999999999  0.5906099999999999  1.0000
  H   H44       1.0  0.79827  0.225  0.6522599999999997  1.0000
  H   H45       1.0  0.66273  0.49455  0.10438  1.0000
  H   H46       1.0  0.80385  0.23424000000000003  0.15874  1.0000
  H   H47       1.0  0.29273  0.38847  0.15703999999999999  1.0000
  H   H48       1.0  0.53492  0.56683  0.1099  1.0000
  H   H49       1.0  0.54937  0.9687400000000002  0.9603499999999999  1.0000
  H   H50       1.0  0.6565  0.09435000000000002  0.28405  1.0000
  H   H51       1.0  0.70854  0.80518  0.21599  1.0000
  H   H52       1.0  0.85457  0.89872  0.54021  1.0000
  H   H53       1.0  0.70586  0.80005  0.70393  1.0000
  H   H54       1.0  0.82889  0.9294900000000003  0.02524  1.0000
  H   H55       1.0  0.13516  0.8904400000000001  0.71209  1.0000
  H   H56       1.0  0.03787  0.05691  0.026589999999999996  1.0000
  H   H57       1.0  0.67241  0.04246000000000001  0.9163599999999998  1.0000
  H   H58       1.0  0.52679  0.02657  0.3347  1.0000
  H   H59       1.0  0.76502  0.93504  0.17477  1.0000
  H   H60       1.0  0.80849  0.76307  0.58372  1.0000
  H   H61       1.0  0.75855  0.92832  0.6562499999999999  1.0000
  H   H62       1.0  0.77644  0.7987000000000002  0.07835  1.0000
  H   H63       1.0  0.0019700000000000004  0.9437500000000001  0.6605499999999999  1.0000
  H   H64       1.0  0.16332  0.99707  0.07292999999999998  1.0000
  H   H65       1.0  0.71993  0.11845  0.15666999999999998  1.0000
  H   H66       1.0  0.47834  0.94526  0.09478  1.0000
  H   H67       1.0  0.86029  0.9744499999999999  0.41141999999999995  1.0000
  H   H68       1.0  0.70416  0.72448  0.34817  1.0000
  H   H69       1.0  0.8347800000000002  0.99393  0.8940399999999998  1.0000
  H   H70       1.0  0.6960500000000001  0.7318000000000002  0.8410799999999999  1.0000
  H   H71       1.0  0.20571  0.88746  0.8411999999999998  1.0000
  H   H72       1.0  0.96338  0.06448  0.8894299999999999  1.0000
  H   H73       1.0  0.45182  0.53166  0.46087  1.0000
  H   H74       1.0  0.3429  0.40355  0.78408  1.0000
  H   H75       1.0  0.29273  0.69512  0.7157  1.0000
  H   H76       1.0  0.14282  0.60089  0.03883  1.0000
  H   H77       1.0  0.29172  0.69739  0.20403  1.0000
  H   H78       1.0  0.17053  0.56936  0.52659  1.0000
  H   H79       1.0  0.86269  0.60795  0.21343  1.0000
  H   H80       1.0  0.96082  0.4414  0.52818  1.0000
  H   H81       1.0  0.32888  0.45887  0.41647999999999996  1.0000
  H   H82       1.0  0.47262  0.47022  0.8354199999999998  1.0000
  H   H83       1.0  0.237  0.5653300000000002  0.67436  1.0000
  H   H84       1.0  0.18835  0.7363  0.08283999999999998  1.0000
  H   H85       1.0  0.23671  0.56988  0.15713999999999997  1.0000
  H   H86       1.0  0.22509  0.6997100000000003  0.5790899999999999  1.0000
  H   H87       1.0  0.99468  0.55215  0.16098  1.0000
  H   H88       1.0  0.83608  0.50265  0.57442  1.0000
  H   H89       1.0  0.27931  0.3819300000000001  0.6563  1.0000
  H   H90       1.0  0.52233  0.55411  0.59624  1.0000
  H   H91       1.0  0.1389  0.5256  0.91009  1.0000
  H   H92       1.0  0.29609  0.7754700000000001  0.84827  1.0000
  H   H93       1.0  0.16311  0.50494  0.39577  1.0000
  H   H94       1.0  0.30339  0.76585  0.34109  1.0000
  H   H95       1.0  0.7936300000000002  0.61199  0.3426199999999999  1.0000
  H   H96       1.0  0.03486  0.43306  0.39058  1.0000
  C   C1        1.0  0.15428  0.9586  0.5327499999999998  1.0000
  C   C2        1.0  0.04405  0.97166  0.2189  1.0000
  C   C3        1.0  0.26883  0.08638000000000003  0.27465  1.0000
  C   C4        1.0  0.30566  0.21722  0.96858  1.0000
  C   C5        1.0  0.26402  0.08638000000000003  0.7917499999999997  1.0000
  C   C6        1.0  0.27674  0.18588  0.47535999999999995  1.0000
  C   C7        1.0  0.52469  0.04591  0.7889499999999999  1.0000
  C   C8        1.0  0.64403  0.00898  0.47879999999999995  1.0000
  C   C9        1.0  0.0844  0.98872  0.44096  1.0000
  C   C10       1.0  0.15114  0.9392300000000002  0.42424  1.0000
  C   C11       1.0  0.1681  0.91696  0.35839  1.0000
  C   C12       1.0  0.11283  0.9448200000000001  0.31157  1.0000
  C   C13       1.0  0.04376  0.9911099999999999  0.32796999999999993  1.0000
  C   C14       1.0  0.02868  0.01609  0.39384  1.0000
  C   C15       1.0  0.25578  0.16316000000000005  0.18486  1.0000
  C   C16       1.0  0.30063  0.09373  0.16837  1.0000
  C   C17       1.0  0.32909  0.07951  0.10356999999999997  1.0000
  C   C18       1.0  0.31322  0.14006  0.0582  1.0000
  C   C19       1.0  0.2716  0.21122  0.07496  1.0000
  C   C20       1.0  0.23992  0.22388000000000002  0.13917  1.0000
  C   C21       1.0  0.24762000000000003  0.15594  0.6978999999999997  1.0000
  C   C22       1.0  0.28772  0.08324  0.68364  1.0000
  C   C23       1.0  0.31004  0.06199  0.6185599999999999  1.0000
  C   C24       1.0  0.29165  0.11824  0.5699  1.0000
  C   C25       1.0  0.25421  0.19228  0.5839199999999998  1.0000
  C   C26       1.0  0.22984  0.21249  0.64905  1.0000
  C   C27       1.0  0.52879  0.007570000000000001  0.68375  1.0000
  C   C28       1.0  0.59717  0.05682  0.69592  1.0000
  C   C29       1.0  0.65409  0.07663  0.64748  1.0000
  C   C30       1.0  0.63921  0.04389  0.58445  1.0000
  C   C31       1.0  0.57214  0.99285  0.57202  1.0000
  C   C32       1.0  0.51525  0.97302  0.6208199999999998  1.0000
  C   C33       1.0  0.84681  0.5395  0.03149  1.0000
  C   C34       1.0  0.95606  0.52879  0.71752  1.0000
  C   C35       1.0  0.7327  0.41343  0.7751799999999999  1.0000
  C   C36       1.0  0.69663  0.2838  0.46904  1.0000
  C   C37       1.0  0.73595  0.4138  0.2901099999999999  1.0000
  C   C38       1.0  0.72553  0.31505  0.97377  1.0000
  C   C39       1.0  0.47494000000000003  0.4546  0.28747999999999996  1.0000
  C   C40       1.0  0.3552  0.49239  0.97733  1.0000
  C   C41       1.0  0.91646  0.5105600000000001  0.93955  1.0000
  C   C42       1.0  0.84903  0.55934  0.92299  1.0000
  C   C43       1.0  0.83165  0.58166  0.85714  1.0000
  C   C44       1.0  0.88718  0.55465  0.81024  1.0000
  C   C45       1.0  0.95678  0.50907  0.82657  1.0000
  C   C46       1.0  0.9723  0.48394  0.8923699999999998  1.0000
  C   C47       1.0  0.74668  0.33737  0.68527  1.0000
  C   C48       1.0  0.70083  0.40626  0.66892  1.0000
  C   C49       1.0  0.67212  0.42063  0.60415  1.0000
  C   C50       1.0  0.68871  0.3605999999999999  0.55867  1.0000
  C   C51       1.0  0.73087  0.28967  0.57541  1.0000
  C   C52       1.0  0.76297  0.277  0.63954  1.0000
  C   C53       1.0  0.75349  0.3449  0.19629  1.0000
  C   C54       1.0  0.71291  0.41735  0.18187  1.0000
  C   C55       1.0  0.69073  0.43853  0.11665999999999997  1.0000
  C   C56       1.0  0.70988  0.38254  0.06810999999999998  1.0000
  C   C57       1.0  0.74771  0.3087  0.08237999999999997  1.0000
  C   C58       1.0  0.7719  0.28856  0.14760999999999996  1.0000
  C   C59       1.0  0.47092  0.49291000000000007  0.18218999999999996  1.0000
  C   C60       1.0  0.40216  0.44419  0.19455  1.0000
  C   C61       1.0  0.34497  0.42488  0.14619  1.0000
  C   C62       1.0  0.36006  0.45739  0.08304  1.0000
  C   C63       1.0  0.42739  0.50804  0.07046  1.0000
  C   C64       1.0  0.48453  0.52741  0.11918  1.0000
  C   C65       1.0  0.65398  0.04089  0.9685399999999997  1.0000
  C   C66       1.0  0.54306  0.02988  0.28206999999999993  1.0000
  C   C67       1.0  0.7696  0.9140900000000002  0.22608  1.0000
  C   C68       1.0  0.80337  0.7829800000000002  0.53225  1.0000
  C   C69       1.0  0.76013  0.91279  0.7090599999999999  1.0000
  C   C70       1.0  0.77593  0.81323  0.025289999999999997  1.0000
  C   C71       1.0  0.02164  0.95201  0.71192  1.0000
  C   C72       1.0  0.14437  0.9915800000000001  0.02104  1.0000
  C   C73       1.0  0.58403  0.01136  0.06032  1.0000
  C   C74       1.0  0.65087  0.061  0.07688999999999999  1.0000
  C   C75       1.0  0.66767  0.0837  0.14268  1.0000
  C   C76       1.0  0.6121  0.05623  0.18944999999999995  1.0000
  C   C77       1.0  0.54302  0.0098  0.1731  1.0000
  C   C78       1.0  0.5281  0.98428  0.10737  1.0000
  C   C79       1.0  0.75561  0.83734  0.31574  1.0000
  C   C80       1.0  0.80084  0.90657  0.33248999999999995  1.0000
  C   C81       1.0  0.82879  0.92075  0.39749  1.0000
  C   C82       1.0  0.81204  0.86032  0.44275  1.0000
  C   C83       1.0  0.77038  0.78923  0.42560999999999993  1.0000
  C   C84       1.0  0.73912  0.77663  0.36124  1.0000
  C   C85       1.0  0.74454  0.84326  0.8030099999999998  1.0000
  C   C86       1.0  0.7845  0.91617  0.8170899999999999  1.0000
  C   C87       1.0  0.80735  0.93752  0.88205  1.0000
  C   C88       1.0  0.78966  0.8811  0.93075  1.0000
  C   C89       1.0  0.75243  0.80684  0.91686  1.0000
  C   C90       1.0  0.72749  0.78652  0.8518999999999998  1.0000
  C   C91       1.0  0.026880000000000008  0.99093  0.81689  1.0000
  C   C92       1.0  0.09578  0.94266  0.80426  1.0000
  C   C93       1.0  0.15357  0.92374  0.8523  1.0000
  C   C94       1.0  0.13906  0.95624  0.9154799999999998  1.0000
  C   C95       1.0  0.07162  0.006530000000000004  0.9282  1.0000
  C   C96       1.0  0.01387  0.02544  0.87985  1.0000
  C   C97       1.0  0.34693  0.46015000000000006  0.46876  1.0000
  C   C98       1.0  0.45643  0.46791  0.7827399999999999  1.0000
  C   C99       1.0  0.23184  0.5861600000000001  0.72561  1.0000
  C   C100      1.0  0.19423  0.7166300000000002  0.03141  1.0000
  C   C101      1.0  0.23607  0.58543  0.20992  1.0000
  C   C102      1.0  0.22488  0.68504  0.52608  1.0000
  C   C103      1.0  0.9755299999999999  0.5446900000000002  0.21259  1.0000
  C   C104      1.0  0.85506  0.50791  0.5225299999999999  1.0000
  C   C105      1.0  0.41649  0.4889200000000001  0.5609199999999999  1.0000
  C   C106      1.0  0.34923  0.43968  0.5771299999999999  1.0000
  C   C107      1.0  0.33184  0.41652  0.6427299999999998  1.0000
  C   C108      1.0  0.38731  0.44318  0.68986  1.0000
  C   C109      1.0  0.45671  0.48934000000000005  0.67391  1.0000
  C   C110      1.0  0.47221  0.51532  0.6083399999999999  1.0000
  C   C111      1.0  0.24490000000000003  0.66278  0.81532  1.0000
  C   C112      1.0  0.19941  0.5935700000000002  0.8317199999999999  1.0000
  C   C113      1.0  0.17061  0.57932  0.8964499999999999  1.0000
  C   C114      1.0  0.18671  0.63963  0.9418499999999997  1.0000
  C   C115      1.0  0.22865  0.71075  0.9251  1.0000
  C   C116      1.0  0.2608  0.72338  0.8609899999999999  1.0000
  C   C117      1.0  0.25348  0.65485  0.30358  1.0000
  C   C118      1.0  0.21309  0.5822500000000003  0.31816999999999995  1.0000
  C   C119      1.0  0.19087  0.56108  0.38336  1.0000
  C   C120      1.0  0.20966  0.61728  0.43182999999999994  1.0000
  C   C121      1.0  0.24725  0.69128  0.41746  1.0000
  C   C122      1.0  0.27159  0.7114  0.35224  1.0000
  C   C123      1.0  0.9711900000000001  0.50683  0.318  1.0000
  C   C124      1.0  0.90277  0.55577  0.30540999999999996  1.0000
  C   C125      1.0  0.8456  0.57538  0.35361999999999993  1.0000
  C   C126      1.0  0.86038  0.54284  0.41680999999999996  1.0000
  C   C127      1.0  0.92747  0.49212000000000006  0.42963  1.0000
  C   C128      1.0  0.98462  0.47249  0.3811  1.0000
  S   S1        1.0  0.40208  0.92963  0.40546  1.0000
  S   S2        1.0  0.29874  0.84443  0.15601  1.0000
  S   S3        1.0  0.30369  0.8349300000000002  0.6573799999999999  1.0000
  S   S4        1.0  0.40069  0.94282  0.9082799999999998  1.0000
  S   S5        1.0  0.59655  0.5684000000000001  0.90487  1.0000
  S   S6        1.0  0.69989  0.6523  0.6558  1.0000
  S   S7        1.0  0.69766  0.66534  0.1588  1.0000
  S   S8        1.0  0.59926  0.55702  0.4066499999999999  1.0000
  S   S9        1.0  0.90064  0.06931  0.09460999999999999  1.0000
  S   S10       1.0  0.79913  0.15342  0.34431  1.0000
  S   S11       1.0  0.8034900000000001  0.16534  0.84139  1.0000
  S   S12       1.0  0.90075  0.05711  0.59324  1.0000
  S   S13       1.0  0.09819  0.4298  0.59464  1.0000
  S   S14       1.0  0.19994  0.34544000000000014  0.84393  1.0000
  S   S15       1.0  0.19730000000000003  0.3346  0.3426199999999999  1.0000
  S   S16       1.0  0.09756  0.44161  0.09307  1.0000
  N   N1        1.0  0.19281  0.92102  0.48313999999999996  1.0000
  N   N2        1.0  0.08994  0.99988  0.5100999999999999  1.0000
  N   N3        1.0  0.0013  0.005400000000000001  0.26816  1.0000
  N   N4        1.0  0.11078  0.93516  0.24237999999999996  1.0000
  N   N5        1.0  0.30846  0.04773  0.22630999999999996  1.0000
  N   N6        1.0  0.23595  0.1545  0.25234  1.0000
  N   N7        1.0  0.26899  0.25863  0.01702  1.0000
  N   N8        1.0  0.333  0.14677  0.99068  1.0000
  N   N9        1.0  0.29766  0.04174  0.7439799999999998  1.0000
  N   N10       1.0  0.23325  0.1543  0.7668699999999999  1.0000
  N   N11       1.0  0.24712000000000003  0.23349  0.52287  1.0000
  N   N12       1.0  0.30368  0.11681  0.50086  1.0000
  N   N13       1.0  0.48446999999999996  0.00275  0.74378  1.0000
  N   N14       1.0  0.59207  0.07900000000000001  0.7628699999999999  1.0000
  N   N15       1.0  0.6823  0.05304  0.52461  1.0000
  N   N16       1.0  0.5789800000000002  0.9718000000000001  0.50459  1.0000
  N   N17       1.0  0.8074300000000001  0.5768  0.9820599999999999  1.0000
  N   N18       1.0  0.91149  0.49914  0.00869  1.0000
  N   N19       1.0  0.99927  0.49542  0.76678  1.0000
  N   N20       1.0  0.88902  0.5645200000000002  0.74104  1.0000
  N   N21       1.0  0.69236  0.45171  0.7269299999999999  1.0000
  N   N22       1.0  0.76661  0.34595  0.7527099999999999  1.0000
  N   N23       1.0  0.73351  0.24238999999999997  0.5175299999999999  1.0000
  N   N24       1.0  0.66905  0.35409  0.4910999999999999  1.0000
  N   N25       1.0  0.70233  0.4584700000000001  0.24221999999999994  1.0000
  N   N26       1.0  0.76745  0.3462800000000001  0.26529  1.0000
  N   N27       1.0  0.7552  0.26752  0.02145  1.0000
  N   N28       1.0  0.6982700000000001  0.38398  0.99903  1.0000
  N   N29       1.0  0.51539  0.49745  0.24217999999999998  1.0000
  N   N30       1.0  0.40728  0.42199  0.26154999999999995  1.0000
  N   N31       1.0  0.31685  0.44841  0.023229999999999997  1.0000
  N   N32       1.0  0.42044  0.52926  0.00303  1.0000
  N   N33       1.0  0.69261  0.07883000000000001  0.01795  1.0000
  N   N34       1.0  0.58964  0.9997099999999999  0.9912999999999998  1.0000
  N   N35       1.0  0.50041  0.99586  0.23281999999999994  1.0000
  N   N36       1.0  0.60977  0.06646  0.25858  1.0000
  N   N37       1.0  0.80931  0.9524799999999999  0.27458999999999995  1.0000
  N   N38       1.0  0.73616  0.84611  0.24821999999999994  1.0000
  N   N39       1.0  0.76719  0.7417000000000002  0.48339  1.0000
  N   N40       1.0  0.83097  0.85351  0.51047  1.0000
  N   N41       1.0  0.79392  0.9576400000000002  0.75668  1.0000
  N   N42       1.0  0.72963  0.8448000000000002  0.7341399999999999  1.0000
  N   N43       1.0  0.74611  0.7655100000000002  0.9778799999999997  1.0000
  N   N44       1.0  0.80232  0.88247  0.99971  1.0000
  N   N45       1.0  0.9815600000000001  0.99485  0.7572799999999997  1.0000
  N   N46       1.0  0.0899  0.92013  0.73742  1.0000
  N   N47       1.0  0.18269  0.94768  0.97522  1.0000
  N   N48       1.0  0.07885  0.02803  0.99547  1.0000
  N   N49       1.0  0.30773000000000006  0.42237  0.51802  1.0000
  N   N50       1.0  0.41148000000000007  0.50077  0.4918299999999999  1.0000
  N   N51       1.0  0.4993000000000001  0.50235  0.73378  1.0000
  N   N52       1.0  0.38943  0.4321700000000001  0.75891  1.0000
  N   N53       1.0  0.19154  0.54771  0.77382  1.0000
  N   N54       1.0  0.26519  0.65407  0.74795  1.0000
  N   N55       1.0  0.23109  0.75812  0.9829599999999998  1.0000
  N   N56       1.0  0.16685  0.64618  0.009359999999999999  1.0000
  N   N57       1.0  0.2026  0.54083  0.25795  1.0000
  N   N58       1.0  0.26743  0.65323  0.23453  1.0000
  N   N59       1.0  0.25441  0.73259  0.47834999999999994  1.0000
  N   N60       1.0  0.19787  0.61592  0.5009  1.0000
  N   N61       1.0  0.015639999999999998  0.50186  0.25809  1.0000
  N   N62       1.0  0.90808  0.5777200000000002  0.23836999999999997  1.0000
  N   N63       1.0  0.81702  0.55188  0.47645999999999994  1.0000
  N   N64       1.0  0.9202900000000003  0.47096  0.49706  1.0000
  O   O1        1.0  0.36508  0.84963  0.42408999999999997  1.0000
  O   O2        1.0  0.36243  0.9558700000000001  0.33987  1.0000
  O   O3        1.0  0.38133  0.9876600000000001  0.45866  1.0000
  O   O4        1.0  0.49012  0.92018  0.39716999999999997  1.0000
  O   O5        1.0  0.37989  0.88482  0.16949  1.0000
  O   O6        1.0  0.25825  0.88812  0.09756999999999999  1.0000
  O   O7        1.0  0.24628  0.85322  0.21613  1.0000
  O   O8        1.0  0.31357  0.76103  0.13814  1.0000
  O   O9        1.0  0.37307  0.90108  0.97222  1.0000
  O   O10       1.0  0.35751000000000005  0.9044  0.8485399999999998  1.0000
  O   O11       1.0  0.48873  0.9320100000000001  0.90229  1.0000
  O   O12       1.0  0.37771  0.028  0.9091499999999998  1.0000
  O   O13       1.0  0.37727  0.87258  0.6906699999999999  1.0000
  O   O14       1.0  0.29778  0.87358  0.58849  1.0000
  O   O15       1.0  0.3178300000000001  0.74908  0.6498  1.0000
  O   O16       1.0  0.23042  0.85306  0.69713  1.0000
  O   O17       1.0  0.63448  0.64708  0.9258199999999999  1.0000
  O   O18       1.0  0.63734  0.54405  0.83937  1.0000
  O   O19       1.0  0.61466  0.50813  0.9570299999999999  1.0000
  O   O20       1.0  0.50886  0.5796600000000002  0.8954699999999999  1.0000
  O   O21       1.0  0.6186  0.61144  0.66689  1.0000
  O   O22       1.0  0.74182  0.61151  0.5968299999999999  1.0000
  O   O23       1.0  0.7500100000000002  0.63982  0.71699  1.0000
  O   O24       1.0  0.68615  0.7366  0.63996  1.0000
  O   O25       1.0  0.62681  0.59879  0.47056  1.0000
  O   O26       1.0  0.64239  0.5956  0.34689  1.0000
  O   O27       1.0  0.5112  0.5678  0.40073999999999993  1.0000
  O   O28       1.0  0.62235  0.47184999999999994  0.40768999999999994  1.0000
  O   O29       1.0  0.62235  0.62694  0.18856  1.0000
  O   O30       1.0  0.71007  0.6270500000000001  0.09034999999999999  1.0000
  O   O31       1.0  0.68267  0.75102  0.15084  1.0000
  O   O32       1.0  0.7680100000000001  0.6475600000000001  0.20228  1.0000
  O   O33       1.0  0.86501  0.15017  0.07699  1.0000
  O   O34       1.0  0.86202  0.04378  0.16077999999999998  1.0000
  O   O35       1.0  0.87746  0.01282  0.04068999999999998  1.0000
  O   O36       1.0  0.9890999999999999  0.07627  0.1016  1.0000
  O   O37       1.0  0.88155  0.11507000000000003  0.33313  1.0000
  O   O38       1.0  0.75822  0.11152000000000002  0.40338  1.0000
  O   O39       1.0  0.74968  0.13952  0.28297999999999995  1.0000
  O   O40       1.0  0.81016  0.23806  0.36002999999999996  1.0000
  O   O41       1.0  0.8732  0.09879000000000003  0.5292299999999999  1.0000
  O   O42       1.0  0.8575  0.0957  0.65283  1.0000
  O   O43       1.0  0.98878  0.06790000000000002  0.59929  1.0000
  O   O44       1.0  0.87752  0.97193  0.5924799999999999  1.0000
  O   O45       1.0  0.87707  0.12386  0.8115899999999999  1.0000
  O   O46       1.0  0.78995  0.12732  0.9099399999999997  1.0000
  O   O47       1.0  0.82179  0.25045  0.8491999999999998  1.0000
  O   O48       1.0  0.7322700000000001  0.15087  0.7979699999999997  1.0000
  O   O49       1.0  0.13489000000000004  0.34985  0.57585  1.0000
  O   O50       1.0  0.13806  0.4558500000000001  0.6601  1.0000
  O   O51       1.0  0.11879  0.4877500000000001  0.54117  1.0000
  O   O52       1.0  0.01014  0.4204100000000001  0.60309  1.0000
  O   O53       1.0  0.11842  0.38511  0.8315299999999999  1.0000
  O   O54       1.0  0.24154  0.38842  0.9021299999999999  1.0000
  O   O55       1.0  0.25026  0.35635  0.78265  1.0000
  O   O56       1.0  0.18647  0.26168  0.8616799999999998  1.0000
  O   O57       1.0  0.12707  0.40012  0.029869999999999994  1.0000
  O   O58       1.0  0.14081  0.40462  0.15352999999999997  1.0000
  O   O59       1.0  0.0097  0.42836  0.09805999999999998  1.0000
  O   O60       1.0  0.11821000000000002  0.52741  0.09104999999999999  1.0000
  O   O61       1.0  0.122  0.37303  0.3129099999999999  1.0000
  O   O62       1.0  0.20986  0.3729  0.41102999999999995  1.0000
  O   O63       1.0  0.18251000000000006  0.24886  0.35054  1.0000
  O   O64       1.0  0.26748  0.35259  0.29905  1.0000
