data_image0
_chemical_formula_structural       Cu12Si6H72C108O48
_chemical_formula_sum              "Cu12 Si6 H72 C108 O48"
_cell_length_a       18.62893
_cell_length_b       18.62898
_cell_length_c       19.54653
_cell_angle_alpha    90.0
_cell_angle_beta     90.0
_cell_angle_gamma    120.01774

_space_group_name_H-M_alt    "P 1"
_space_group_IT_number       1

loop_
  _space_group_symop_operation_xyz
  'x, y, z'

loop_
  _atom_site_type_symbol
  _atom_site_label
  _atom_site_symmetry_multiplicity
  _atom_site_fract_x
  _atom_site_fract_y
  _atom_site_fract_z
  _atom_site_occupancy
  Cu  Cu1       1.0  0.52177  0.47823  0.9488999999999999  1.0000
  Cu  Cu2       1.0  0.95646  0.47823  0.9488999999999999  1.0000
  Cu  Cu3       1.0  0.52177  0.04355  0.9488999999999999  1.0000
  Cu  Cu4       1.0  0.47809  0.52191  0.44910999999999995  1.0000
  Cu  Cu5       1.0  0.04382999999999998  0.52191  0.44910999999999995  1.0000
  Cu  Cu6       1.0  0.47809  0.95617  0.44910999999999995  1.0000
  Cu  Cu7       1.0  0.04354999999999997  0.52177  0.0511  1.0000
  Cu  Cu8       1.0  0.47823  0.52177  0.0511  1.0000
  Cu  Cu9       1.0  0.47823  0.95645  0.0511  1.0000
  Cu  Cu10      1.0  0.9561699999999999  0.47808  0.55089  1.0000
  Cu  Cu11      1.0  0.52191  0.4780900000000001  0.55089  1.0000
  Cu  Cu12      1.0  0.52191  0.04383  0.55089  1.0000
  Si  Si1       1.0  0.7302700000000001  0.86513  0.7499699999999998  1.0000
  Si  Si2       1.0  0.13487  0.26973  0.7499699999999998  1.0000
  Si  Si3       1.0  0.1348700000000001  0.86513  0.7499699999999998  1.0000
  Si  Si4       1.0  0.26973  0.13487  0.2500299999999999  1.0000
  Si  Si5       1.0  0.8651300000000001  0.73027  0.2500299999999999  1.0000
  Si  Si6       1.0  0.8651300000000001  0.13487  0.2500299999999999  1.0000
  H   H1        1.0  0.65331  0.71041  0.8367399999999999  1.0000
  H   H2        1.0  0.83735  0.0012  0.79544  1.0000
  H   H3        1.0  0.057090000000000043  0.3466800000000001  0.83673  1.0000
  H   H4        1.0  0.16384  0.16265  0.79544  1.0000
  H   H5        1.0  0.2896200000000001  0.9429200000000002  0.8367399999999999  1.0000
  H   H6        1.0  0.99882  0.83615  0.79544  1.0000
  H   H7        1.0  0.3467  0.2896  0.33678  1.0000
  H   H8        1.0  0.16264000000000006  0.9987900000000001  0.29544  1.0000
  H   H9        1.0  0.9429199999999999  0.6533100000000002  0.3367699999999999  1.0000
  H   H10       1.0  0.83616  0.8373600000000002  0.29544  1.0000
  H   H11       1.0  0.71037  0.05707  0.3367699999999999  1.0000
  H   H12       1.0  0.0011999999999999969  0.16385  0.29544  1.0000
  H   H13       1.0  0.9429199999999999  0.28961  0.16326  1.0000
  H   H14       1.0  0.83616  0.99881  0.20456  1.0000
  H   H15       1.0  0.71041  0.6533000000000002  0.16325  1.0000
  H   H16       1.0  0.0012000000000001278  0.8373500000000003  0.20456  1.0000
  H   H17       1.0  0.34669  0.057090000000000016  0.16326  1.0000
  H   H18       1.0  0.16265  0.16384000000000007  0.20456  1.0000
  H   H19       1.0  0.05707000000000009  0.7103700000000002  0.6632199999999999  1.0000
  H   H20       1.0  0.16385  0.0012  0.7045499999999998  1.0000
  H   H21       1.0  0.28961  0.3467  0.6632199999999999  1.0000
  H   H22       1.0  0.9987899999999998  0.16264  0.7045499999999998  1.0000
  H   H23       1.0  0.6533100000000001  0.9429100000000002  0.6632299999999999  1.0000
  H   H24       1.0  0.83736  0.83616  0.7045499999999998  1.0000
  H   H25       1.0  0.3467  0.28959  0.16325  1.0000
  H   H26       1.0  0.16265000000000007  0.9988000000000001  0.20456  1.0000
  H   H27       1.0  0.9429099999999999  0.6533100000000002  0.16326  1.0000
  H   H28       1.0  0.83617  0.8373500000000003  0.20456  1.0000
  H   H29       1.0  0.71039  0.05708  0.16326  1.0000
  H   H30       1.0  0.001190000000000022  0.16384000000000007  0.20456  1.0000
  H   H31       1.0  0.6533  0.71039  0.6632199999999999  1.0000
  H   H32       1.0  0.83736  0.0012100000000000004  0.7045499999999998  1.0000
  H   H33       1.0  0.057080000000000054  0.3466900000000001  0.6632299999999999  1.0000
  H   H34       1.0  0.16384  0.16264  0.7045499999999998  1.0000
  H   H35       1.0  0.28963  0.94293  0.6632199999999999  1.0000
  H   H36       1.0  0.9988  0.83615  0.7045499999999998  1.0000
  H   H37       1.0  0.057080000000000006  0.71038  0.8367399999999999  1.0000
  H   H38       1.0  0.16384  0.00119  0.79544  1.0000
  H   H39       1.0  0.28959000000000007  0.3466900000000001  0.8367399999999999  1.0000
  H   H40       1.0  0.9988  0.16265  0.79544  1.0000
  H   H41       1.0  0.6533200000000001  0.9429100000000002  0.83673  1.0000
  H   H42       1.0  0.83735  0.83616  0.79544  1.0000
  H   H43       1.0  0.9429299999999999  0.2896300000000001  0.3367699999999999  1.0000
  H   H44       1.0  0.83615  0.9988000000000001  0.29544  1.0000
  H   H45       1.0  0.7104  0.6533000000000002  0.33678  1.0000
  H   H46       1.0  0.0012100000000001385  0.8373600000000002  0.29544  1.0000
  H   H47       1.0  0.34669  0.05708  0.3367699999999999  1.0000
  H   H48       1.0  0.16264  0.16384000000000007  0.29544  1.0000
  H   H49       1.0  0.5169400000000001  0.7584600000000002  0.9891  1.0000
  H   H50       1.0  0.24153999999999998  0.48306  0.9891  1.0000
  H   H51       1.0  0.24153000000000008  0.7584700000000002  0.9891  1.0000
  H   H52       1.0  0.48305999999999993  0.24153  0.48912999999999995  1.0000
  H   H53       1.0  0.7584699999999999  0.51694  0.48912999999999995  1.0000
  H   H54       1.0  0.75847  0.24153  0.48912999999999995  1.0000
  H   H55       1.0  0.75847  0.24153  0.0109  1.0000
  H   H56       1.0  0.7584699999999999  0.51694  0.0109  1.0000
  H   H57       1.0  0.48305999999999993  0.24153  0.0109  1.0000
  H   H58       1.0  0.24153000000000008  0.7584700000000002  0.5108699999999999  1.0000
  H   H59       1.0  0.24152999999999997  0.48306  0.51086  1.0000
  H   H60       1.0  0.5169500000000001  0.7584700000000002  0.51086  1.0000
  H   H61       1.0  0.76185  0.01344  0.7499999999999998  1.0000
  H   H62       1.0  0.25161  0.23816  0.7499999999999998  1.0000
  H   H63       1.0  0.98654  0.74839  0.7499999999999998  1.0000
  H   H64       1.0  0.23815  0.98656  0.24999999999999994  1.0000
  H   H65       1.0  0.7483899999999999  0.76184  0.24999999999999994  1.0000
  H   H66       1.0  0.01345999999999999  0.25161  0.24999999999999994  1.0000
  H   H67       1.0  0.7483899999999999  0.98654  0.24999999999999994  1.0000
  H   H68       1.0  0.013450000000000099  0.7618500000000002  0.24999999999999994  1.0000
  H   H69       1.0  0.23815999999999998  0.25161  0.24999999999999994  1.0000
  H   H70       1.0  0.25161  0.013460000000000003  0.7499999999999998  1.0000
  H   H71       1.0  0.98656  0.23815000000000006  0.7499999999999998  1.0000
  H   H72       1.0  0.7618399999999997  0.74839  0.7499999999999998  1.0000
  C   C1        1.0  0.63438  0.75252  0.8577099999999998  1.0000
  C   C2        1.0  0.58229  0.72619  0.9152399999999999  1.0000
  C   C3        1.0  0.5523999999999999  0.64222  0.9453199999999999  1.0000
  C   C4        1.0  0.11812999999999999  0.36562  0.8577099999999998  1.0000
  C   C5        1.0  0.1439  0.4177000000000001  0.9152399999999999  1.0000
  C   C6        1.0  0.08981999999999998  0.4476  0.9453199999999999  1.0000
  C   C7        1.0  0.24749999999999997  0.88188  0.8577099999999998  1.0000
  C   C8        1.0  0.27381  0.85611  0.9152399999999999  1.0000
  C   C9        1.0  0.35779  0.91018  0.9453199999999999  1.0000
  C   C10       1.0  0.36567999999999995  0.24754  0.3577699999999999  1.0000
  C   C11       1.0  0.41770999999999997  0.27381  0.41534  1.0000
  C   C12       1.0  0.44755999999999996  0.35759  0.44577999999999995  1.0000
  C   C13       1.0  0.88187  0.63433  0.3577699999999999  1.0000
  C   C14       1.0  0.85611  0.5823  0.41534  1.0000
  C   C15       1.0  0.9100299999999999  0.55244  0.44577999999999995  1.0000
  C   C16       1.0  0.75245  0.11812000000000003  0.3577699999999999  1.0000
  C   C17       1.0  0.72619  0.14389000000000002  0.41534  1.0000
  C   C18       1.0  0.64241  0.08997  0.44577999999999995  1.0000
  C   C19       1.0  0.88188  0.2475  0.14228  1.0000
  C   C20       1.0  0.85611  0.27381  0.08476  1.0000
  C   C21       1.0  0.91019  0.35779  0.05468  1.0000
  C   C22       1.0  0.75252  0.63438  0.14228  1.0000
  C   C23       1.0  0.72619  0.58229  0.08475  1.0000
  C   C24       1.0  0.64222  0.55239  0.054669999999999996  1.0000
  C   C25       1.0  0.36562  0.11813  0.14229  1.0000
  C   C26       1.0  0.41769999999999996  0.1439  0.08476  1.0000
  C   C27       1.0  0.4476  0.08982  0.05468  1.0000
  C   C28       1.0  0.11812999999999999  0.75245  0.6422199999999999  1.0000
  C   C29       1.0  0.14388999999999993  0.72619  0.58466  1.0000
  C   C30       1.0  0.08996999999999998  0.64241  0.55422  1.0000
  C   C31       1.0  0.24754  0.3656800000000001  0.6422199999999999  1.0000
  C   C32       1.0  0.27381  0.41771  0.58465  1.0000
  C   C33       1.0  0.3575900000000001  0.4475600000000001  0.55421  1.0000
  C   C34       1.0  0.6343300000000001  0.88187  0.6422299999999999  1.0000
  C   C35       1.0  0.5822999999999999  0.85611  0.58466  1.0000
  C   C36       1.0  0.5524399999999999  0.91002  0.55422  1.0000
  C   C37       1.0  0.36562  0.24748  0.14228  1.0000
  C   C38       1.0  0.41770999999999997  0.27381  0.08475  1.0000
  C   C39       1.0  0.44761  0.35778  0.054669999999999996  1.0000
  C   C40       1.0  0.88187  0.63438  0.14229  1.0000
  C   C41       1.0  0.85611  0.5823  0.08476  1.0000
  C   C42       1.0  0.9101799999999999  0.5524  0.05468  1.0000
  C   C43       1.0  0.7525  0.11812000000000003  0.14228  1.0000
  C   C44       1.0  0.72619  0.14389000000000002  0.08476  1.0000
  C   C45       1.0  0.6422099999999998  0.08982  0.05468  1.0000
  C   C46       1.0  0.63432  0.75246  0.6422199999999999  1.0000
  C   C47       1.0  0.58229  0.72619  0.58465  1.0000
  C   C48       1.0  0.5524399999999999  0.64241  0.55421  1.0000
  C   C49       1.0  0.11812999999999999  0.36567  0.6422299999999999  1.0000
  C   C50       1.0  0.14389000000000005  0.4177000000000001  0.58466  1.0000
  C   C51       1.0  0.08998000000000009  0.4475600000000001  0.55422  1.0000
  C   C52       1.0  0.24755000000000008  0.88187  0.6422199999999999  1.0000
  C   C53       1.0  0.27381  0.85611  0.58466  1.0000
  C   C54       1.0  0.3576  0.91003  0.55422  1.0000
  C   C55       1.0  0.11812999999999999  0.7525  0.8577099999999998  1.0000
  C   C56       1.0  0.14388999999999993  0.72619  0.9152399999999999  1.0000
  C   C57       1.0  0.08982000000000001  0.64221  0.9453199999999999  1.0000
  C   C58       1.0  0.24747999999999998  0.36562  0.8577099999999998  1.0000
  C   C59       1.0  0.27381  0.41771  0.9152399999999999  1.0000
  C   C60       1.0  0.35778  0.4476100000000001  0.9453199999999999  1.0000
  C   C61       1.0  0.6343900000000001  0.88187  0.8577099999999998  1.0000
  C   C62       1.0  0.5822999999999999  0.8561000000000002  0.9152399999999999  1.0000
  C   C63       1.0  0.5523999999999999  0.91018  0.9453199999999999  1.0000
  C   C64       1.0  0.88188  0.24755  0.3577699999999999  1.0000
  C   C65       1.0  0.85611  0.27381  0.41534  1.0000
  C   C66       1.0  0.9100299999999999  0.35759  0.44577999999999995  1.0000
  C   C67       1.0  0.7524599999999999  0.63432  0.3577699999999999  1.0000
  C   C68       1.0  0.72619  0.58229  0.41534  1.0000
  C   C69       1.0  0.64241  0.55244  0.44577999999999995  1.0000
  C   C70       1.0  0.36567  0.11813  0.3577699999999999  1.0000
  C   C71       1.0  0.41769999999999996  0.14389000000000002  0.41534  1.0000
  C   C72       1.0  0.44755999999999996  0.08997  0.44577999999999995  1.0000
  C   C73       1.0  0.6619100000000001  0.8309600000000003  0.8283799999999999  1.0000
  C   C74       1.0  0.557  0.77849  0.94443  1.0000
  C   C75       1.0  0.16904000000000002  0.3380900000000001  0.8283799999999999  1.0000
  C   C76       1.0  0.22151  0.443  0.94443  1.0000
  C   C77       1.0  0.16905000000000003  0.8309500000000002  0.8283799999999999  1.0000
  C   C78       1.0  0.22150000000000006  0.7785  0.94443  1.0000
  C   C79       1.0  0.33819  0.16909  0.32842  1.0000
  C   C80       1.0  0.4430299999999999  0.22152  0.44446  1.0000
  C   C81       1.0  0.8309099999999998  0.66181  0.32842  1.0000
  C   C82       1.0  0.7784799999999998  0.55697  0.44446  1.0000
  C   C83       1.0  0.8309099999999999  0.16909  0.32842  1.0000
  C   C84       1.0  0.77849  0.22151  0.44446  1.0000
  C   C85       1.0  0.8309600000000001  0.16904000000000005  0.17162  1.0000
  C   C86       1.0  0.7784999999999999  0.2215  0.05555999999999999  1.0000
  C   C87       1.0  0.83096  0.66191  0.17162  1.0000
  C   C88       1.0  0.7784999999999999  0.557  0.05555999999999999  1.0000
  C   C89       1.0  0.33809  0.16904000000000005  0.17162  1.0000
  C   C90       1.0  0.443  0.2215  0.05555999999999999  1.0000
  C   C91       1.0  0.1691  0.8309  0.67158  1.0000
  C   C92       1.0  0.22151999999999997  0.77849  0.55554  1.0000
  C   C93       1.0  0.16909000000000005  0.3381900000000001  0.67158  1.0000
  C   C94       1.0  0.22152000000000002  0.4430300000000001  0.55554  1.0000
  C   C95       1.0  0.66181  0.83091  0.67158  1.0000
  C   C96       1.0  0.55697  0.77848  0.55554  1.0000
  C   C97       1.0  0.7972699999999999  0.98084  0.74999  1.0000
  C   C98       1.0  0.18356  0.20274  0.74999  1.0000
  C   C99       1.0  0.019170000000000107  0.8164300000000002  0.74999  1.0000
  C   C100      1.0  0.20273  0.01916  0.25001  1.0000
  C   C101      1.0  0.8164399999999998  0.79726  0.25001  1.0000
  C   C102      1.0  0.9808299999999999  0.18357  0.25001  1.0000
  C   C103      1.0  0.81643  0.019170000000000006  0.25001  1.0000
  C   C104      1.0  0.98084  0.79727  0.25001  1.0000
  C   C105      1.0  0.20274  0.18356  0.25001  1.0000
  C   C106      1.0  0.18357000000000004  0.98083  0.74999  1.0000
  C   C107      1.0  0.01916  0.20273  0.74999  1.0000
  C   C108      1.0  0.79726  0.8164400000000003  0.74999  1.0000
  O   O1        1.0  0.56103  0.58959  0.9093199999999999  1.0000
  O   O2        1.0  0.51996  0.62949  0.005099999999999999  1.0000
  O   O3        1.0  0.028560000000000026  0.43897  0.90931  1.0000
  O   O4        1.0  0.10953999999999998  0.48004  0.005099999999999999  1.0000
  O   O5        1.0  0.41043  0.97146  0.90931  1.0000
  O   O6        1.0  0.37049999999999983  0.89046  0.00509  1.0000
  O   O7        1.0  0.4385299999999999  0.41029  0.4103099999999999  1.0000
  O   O8        1.0  0.48034999999999994  0.37015  0.50537  1.0000
  O   O9        1.0  0.97176  0.56146  0.41029999999999994  1.0000
  O   O10       1.0  0.8898099999999999  0.51966  0.50537  1.0000
  O   O11       1.0  0.58969  0.028220000000000005  0.4103099999999999  1.0000
  O   O12       1.0  0.62985  0.1102  0.50537  1.0000
  O   O13       1.0  0.97146  0.41043000000000013  0.09068999999999999  1.0000
  O   O14       1.0  0.89046  0.3705  0.9949  1.0000
  O   O15       1.0  0.5895899999999998  0.5610300000000003  0.09068  1.0000
  O   O16       1.0  0.6295  0.51996  0.9949  1.0000
  O   O17       1.0  0.43897  0.02856  0.09068999999999999  1.0000
  O   O18       1.0  0.48003999999999997  0.10954  0.9949  1.0000
  O   O19       1.0  0.028219999999999974  0.58968  0.58969  1.0000
  O   O20       1.0  0.11019999999999999  0.62985  0.49463  1.0000
  O   O21       1.0  0.4102899999999999  0.43853  0.5896799999999999  1.0000
  O   O22       1.0  0.37015000000000003  0.48035  0.49461999999999995  1.0000
  O   O23       1.0  0.5614700000000001  0.9717600000000002  0.58969  1.0000
  O   O24       1.0  0.51966  0.8898  0.49461999999999995  1.0000
  O   O25       1.0  0.43897  0.41041  0.09068  1.0000
  O   O26       1.0  0.48003999999999997  0.37051  0.9949  1.0000
  O   O27       1.0  0.97144  0.5610300000000003  0.09068999999999999  1.0000
  O   O28       1.0  0.89046  0.51996  0.9949  1.0000
  O   O29       1.0  0.58957  0.02854  0.09068999999999999  1.0000
  O   O30       1.0  0.6295  0.10954  0.9949  1.0000
  O   O31       1.0  0.56147  0.58971  0.5896799999999999  1.0000
  O   O32       1.0  0.51965  0.62985  0.49461999999999995  1.0000
  O   O33       1.0  0.02823999999999995  0.43853  0.58969  1.0000
  O   O34       1.0  0.11019999999999999  0.48034  0.49461999999999995  1.0000
  O   O35       1.0  0.41032  0.97178  0.58969  1.0000
  O   O36       1.0  0.37014999999999987  0.8898  0.49463  1.0000
  O   O37       1.0  0.028539999999999982  0.58957  0.90931  1.0000
  O   O38       1.0  0.10953999999999998  0.6295  0.00509  1.0000
  O   O39       1.0  0.41041  0.43897  0.9093199999999999  1.0000
  O   O40       1.0  0.3705099999999999  0.48004  0.005099999999999999  1.0000
  O   O41       1.0  0.5610300000000001  0.9714400000000002  0.90931  1.0000
  O   O42       1.0  0.51996  0.89046  0.005099999999999999  1.0000
  O   O43       1.0  0.97178  0.41031  0.4103099999999999  1.0000
  O   O44       1.0  0.8898  0.37014  0.50537  1.0000
  O   O45       1.0  0.58971  0.56147  0.4103099999999999  1.0000
  O   O46       1.0  0.62985  0.51965  0.50537  1.0000
  O   O47       1.0  0.4385299999999999  0.028240000000000008  0.41029999999999994  1.0000
  O   O48       1.0  0.48033999999999993  0.1102  0.50537  1.0000
