data_image0
_chemical_formula_structural       Mg18H72C144O72
_chemical_formula_sum              "Mg18 H72 C144 O72"
_cell_length_a       16.44879
_cell_length_b       23.46562
_cell_length_c       23.46556
_cell_angle_alpha    120.00060999999998
_cell_angle_beta     89.99592999999999
_cell_angle_gamma    90.00406999999998

_symmetry_space_group_name_H-M    'P 1'
_symmetry_Int_Tables_number       1

loop_
  _symmetry_equiv_pos_as_xyz
  'x,y,z'

loop_
  _atom_site_type_symbol
  _atom_site_label
  _atom_site_symmetry_multiplicity
  _atom_site_fract_x
  _atom_site_fract_y
  _atom_site_fract_z
  _atom_site_occupancy
  Mg  Mg1       1.0  0.28912  0.26991  0.23645  1.0000
  Mg  Mg2       1.0  0.26964  0.4311  0.36627  1.0000
  Mg  Mg3       1.0  0.2881  0.30329  0.39327  1.0000
  Mg  Mg4       1.0  0.28917  0.96653  0.73003  1.0000
  Mg  Mg5       1.0  0.26974  0.93516  0.5689  1.0000
  Mg  Mg6       1.0  0.28812  0.0899799999999999  0.6967799999999998  1.0000
  Mg  Mg7       1.0  0.28916  0.76346  0.033429999999999994  1.0000
  Mg  Mg8       1.0  0.26967  0.63362  0.06471999999999999  1.0000
  Mg  Mg9       1.0  0.28811  0.6067099999999999  0.9099299999999999  1.0000
  Mg  Mg10      1.0  0.78916  0.9665700000000002  0.23653999999999997  1.0000
  Mg  Mg11      1.0  0.76967  0.93528  0.36638  1.0000
  Mg  Mg12      1.0  0.78811  0.09007  0.39329  1.0000
  Mg  Mg13      1.0  0.78912  0.76355  0.7300899999999999  1.0000
  Mg  Mg14      1.0  0.76964  0.63374  0.56891  1.0000
  Mg  Mg15      1.0  0.7881  0.60674  0.69671  1.0000
  Mg  Mg16      1.0  0.78917  0.26997  0.03347  1.0000
  Mg  Mg17      1.0  0.76974  0.4311  0.06484  1.0000
  Mg  Mg18      1.0  0.78812  0.3032199999999999  0.91002  1.0000
  H   H1        1.0  0.935  0.48862999999999995  0.24043  1.0000
  H   H2        1.0  0.05712  0.47376  0.29637  1.0000
  H   H3        1.0  0.0924  0.27967  0.13192  1.0000
  H   H4        1.0  0.97153  0.29402  0.07523999999999999  1.0000
  H   H5        1.0  0.49312  0.20642999999999997  0.38364999999999994  1.0000
  H   H6        1.0  0.61413  0.13635  0.37088  1.0000
  H   H7        1.0  0.62821  0.07856  0.16587  1.0000
  H   H8        1.0  0.5067  0.14978  0.17956  1.0000
  H   H9        1.0  0.46032  0.39801  0.54863  1.0000
  H   H10       1.0  0.58165  0.45447000000000004  0.62103  1.0000
  H   H11       1.0  0.59139  0.58756  0.54518  1.0000
  H   H12       1.0  0.46912  0.5321999999999999  0.47492999999999996  1.0000
  H   H13       1.0  0.93486  0.75181  0.51149  1.0000
  H   H14       1.0  0.05715  0.82244  0.52618  1.0000
  H   H15       1.0  0.09246  0.8521300000000002  0.72031  1.0000
  H   H16       1.0  0.9714  0.78128  0.70602  1.0000
  H   H17       1.0  0.49325  0.17726000000000003  0.79356  1.0000
  H   H18       1.0  0.6141999999999999  0.23454000000000008  0.86369  1.0000
  H   H19       1.0  0.6282  0.08728000000000001  0.92139  1.0000
  H   H20       1.0  0.50669  0.029729999999999906  0.8500999999999999  1.0000
  H   H21       1.0  0.46028  0.15061000000000005  0.60204  1.0000
  H   H22       1.0  0.58158  0.1666  0.5456  1.0000
  H   H23       1.0  0.59137  0.9576700000000001  0.41246  1.0000
  H   H24       1.0  0.46916  0.94271  0.46781  1.0000
  H   H25       1.0  0.93491  0.7597000000000002  0.24816999999999995  1.0000
  H   H26       1.0  0.05714  0.70377  0.17747  1.0000
  H   H27       1.0  0.09241  0.8682400000000001  0.14784  1.0000
  H   H28       1.0  0.97142  0.9248  0.21875  1.0000
  H   H29       1.0  0.4932  0.61635  0.8227299999999999  1.0000
  H   H30       1.0  0.61419  0.6292199999999999  0.76549  1.0000
  H   H31       1.0  0.62812  0.83423  0.9128099999999999  1.0000
  H   H32       1.0  0.5066  0.82042  0.9703  1.0000
  H   H33       1.0  0.46049  0.45122  0.84921  1.0000
  H   H34       1.0  0.58189  0.37898  0.83348  1.0000
  H   H35       1.0  0.59136  0.45498999999999995  0.042429999999999995  1.0000
  H   H36       1.0  0.46902  0.52509  0.05716  1.0000
  H   H37       1.0  0.43491  0.75183  0.2403  1.0000
  H   H38       1.0  0.55714  0.82253  0.29623  1.0000
  H   H39       1.0  0.59241  0.85216  0.13176  1.0000
  H   H40       1.0  0.47143  0.78125  0.0752  1.0000
  H   H41       1.0  0.9931999999999999  0.17726999999999996  0.38364999999999994  1.0000
  H   H42       1.0  0.11419  0.23450999999999997  0.37078  1.0000
  H   H43       1.0  0.12812  0.08719  0.16578  1.0000
  H   H44       1.0  0.0066  0.02970999999999999  0.17957999999999996  1.0000
  H   H45       1.0  0.96049  0.15079000000000006  0.54879  1.0000
  H   H46       1.0  0.08189  0.16653000000000007  0.62103  1.0000
  H   H47       1.0  0.09136  0.9575799999999999  0.54501  1.0000
  H   H48       1.0  0.96901  0.9428400000000001  0.47490999999999994  1.0000
  H   H49       1.0  0.4349999999999999  0.75958  0.51138  1.0000
  H   H50       1.0  0.55712  0.70364  0.52625  1.0000
  H   H51       1.0  0.5924  0.86809  0.7203299999999999  1.0000
  H   H52       1.0  0.47153  0.92476  0.70598  1.0000
  H   H53       1.0  0.99312  0.61635  0.7935800000000001  1.0000
  H   H54       1.0  0.11413  0.62913  0.8636599999999999  1.0000
  H   H55       1.0  0.12821  0.83414  0.92144  1.0000
  H   H56       1.0  0.0067  0.82044  0.8502199999999999  1.0000
  H   H57       1.0  0.96032  0.45137  0.602  1.0000
  H   H58       1.0  0.08165  0.37898  0.54554  1.0000
  H   H59       1.0  0.09139  0.45482000000000006  0.41245  1.0000
  H   H60       1.0  0.96912  0.52507  0.46779999999999994  1.0000
  H   H61       1.0  0.43486  0.4885200000000001  0.2482  1.0000
  H   H62       1.0  0.55715  0.47382  0.17756  1.0000
  H   H63       1.0  0.59246  0.27969  0.14787  1.0000
  H   H64       1.0  0.4714  0.29397999999999996  0.21872  1.0000
  H   H65       1.0  0.99324  0.20644  0.82275  1.0000
  H   H66       1.0  0.1142  0.13631999999999997  0.7654699999999999  1.0000
  H   H67       1.0  0.1282  0.07860999999999996  0.91273  1.0000
  H   H68       1.0  0.0067  0.14991  0.9702799999999999  1.0000
  H   H69       1.0  0.96028  0.39796000000000004  0.8494  1.0000
  H   H70       1.0  0.08158  0.45439999999999997  0.8334099999999999  1.0000
  H   H71       1.0  0.09138  0.58754  0.04233  1.0000
  H   H72       1.0  0.96916  0.53219  0.057289999999999994  1.0000
  C   C1        1.0  0.9462  0.39257  0.1548  1.0000
  C   C2        1.0  0.96987  0.44317000000000006  0.21748  1.0000
  C   C3        1.0  0.03734  0.43492  0.24827999999999997  1.0000
  C   C4        1.0  0.08242  0.37627  0.21682999999999997  1.0000
  C   C5        1.0  0.05738  0.32506  0.1551  1.0000
  C   C6        1.0  0.9896  0.33301  0.12398  1.0000
  C   C7        1.0  0.87772  0.40557000000000004  0.12179  1.0000
  C   C8        1.0  0.15797  0.36947  0.24882999999999997  1.0000
  C   C9        1.0  0.49243  0.18129  0.28218  1.0000
  C   C10       1.0  0.52358  0.17853999999999998  0.33645  1.0000
  C   C11       1.0  0.59105  0.13964  0.32917  1.0000
  C   C12       1.0  0.62775  0.10283  0.26713  1.0000
  C   C13       1.0  0.59842  0.10732  0.21326  1.0000
  C   C14       1.0  0.53128  0.14654999999999999  0.22084999999999996  1.0000
  C   C15       1.0  0.41639  0.21939  0.28957  1.0000
  C   C16       1.0  0.69333  0.05502999999999999  0.25605  1.0000
  C   C17       1.0  0.45811  0.46241  0.50815  1.0000
  C   C18       1.0  0.48950999999999995  0.43968  0.54881  1.0000
  C   C19       1.0  0.5567  0.47058000000000005  0.5885  1.0000
  C   C20       1.0  0.5941999999999998  0.52327  0.58635  1.0000
  C   C21       1.0  0.56311  0.54571  0.54532  1.0000
  C   C22       1.0  0.49493000000000004  0.51567  0.50684  1.0000
  C   C23       1.0  0.38605  0.42968  0.46485  1.0000
  C   C24       1.0  0.66644  0.5553  0.62761  1.0000
  C   C25       1.0  0.94614  0.76225  0.6075  1.0000
  C   C26       1.0  0.96982  0.77432  0.55689  1.0000
  C   C27       1.0  0.03736  0.8133000000000001  0.56509  1.0000
  C   C28       1.0  0.08249  0.8405000000000001  0.62373  1.0000
  C   C29       1.0  0.057399999999999986  0.83001  0.67495  1.0000
  C   C30       1.0  0.9895500000000002  0.7910000000000001  0.66704  1.0000
  C   C31       1.0  0.87764  0.71624  0.59449  1.0000
  C   C32       1.0  0.15807  0.8793100000000001  0.63052  1.0000
  C   C33       1.0  0.49247  0.1009099999999999  0.8186799999999999  1.0000
  C   C34       1.0  0.52364  0.15792999999999993  0.82145  1.0000
  C   C35       1.0  0.59109  0.18955  0.8603899999999999  1.0000
  C   C36       1.0  0.62775  0.16430000000000006  0.89719  1.0000
  C   C37       1.0  0.59841  0.10593  0.89266  1.0000
  C   C38       1.0  0.53128  0.07427999999999998  0.85339  1.0000
  C   C39       1.0  0.41638  0.07030000000000002  0.78062  1.0000
  C   C40       1.0  0.69334  0.20100999999999997  0.9449899999999999  1.0000
  C   C41       1.0  0.45808999999999994  0.04573  0.53762  1.0000
  C   C42       1.0  0.48947  0.10913  0.56036  1.0000
  C   C43       1.0  0.55664  0.11794999999999997  0.52946  1.0000
  C   C44       1.0  0.59418  0.06313999999999997  0.47675999999999996  1.0000
  C   C45       1.0  0.5630899999999999  0.9996500000000001  0.45431  1.0000
  C   C46       1.0  0.49493000000000004  0.99117  0.48435  1.0000
  C   C47       1.0  0.38604  0.035170000000000014  0.57036  1.0000
  C   C48       1.0  0.66644  0.07243  0.44478  1.0000
  C   C49       1.0  0.94615  0.84529  0.23777  1.0000
  C   C50       1.0  0.96984  0.78262  0.22566999999999998  1.0000
  C   C51       1.0  0.03736  0.75183  0.18666  1.0000
  C   C52       1.0  0.08249  0.7832600000000001  0.15945  1.0000
  C   C53       1.0  0.057399999999999986  0.84499  0.16998  1.0000
  C   C54       1.0  0.9895700000000001  0.87609  0.20902000000000004  1.0000
  C   C55       1.0  0.87763  0.87828  0.28379  1.0000
  C   C56       1.0  0.15805  0.7512  0.12061  1.0000
  C   C57       1.0  0.49243  0.7178100000000001  0.8991  1.0000
  C   C58       1.0  0.52361  0.66358  0.84208  1.0000
  C   C59       1.0  0.59107  0.67091  0.81048  1.0000
  C   C60       1.0  0.62773  0.73298  0.83576  1.0000
  C   C61       1.0  0.59836  0.78681  0.89412  1.0000
  C   C62       1.0  0.53121  0.7791799999999999  0.9257499999999999  1.0000
  C   C63       1.0  0.41637  0.71033  0.92972  1.0000
  C   C64       1.0  0.69333  0.74406  0.79906  1.0000
  C   C65       1.0  0.45808  0.49178  0.95413  1.0000
  C   C66       1.0  0.48960000000000004  0.45110999999999996  0.8907699999999998  1.0000
  C   C67       1.0  0.55683  0.4115  0.88208  1.0000
  C   C68       1.0  0.59428  0.41368999999999995  0.9369499999999998  1.0000
  C   C69       1.0  0.56311  0.45476  0.00039  1.0000
  C   C70       1.0  0.49488  0.49316  0.00875  1.0000
  C   C71       1.0  0.38601  0.53506  0.96468  1.0000
  C   C72       1.0  0.6665  0.37242000000000003  0.92774  1.0000
  C   C73       1.0  0.44615  0.76223  0.15471  1.0000
  C   C74       1.0  0.46985  0.7743300000000001  0.21737999999999996  1.0000
  C   C75       1.0  0.53736  0.8133500000000001  0.24816999999999995  1.0000
  C   C76       1.0  0.58249  0.84056  0.21674  1.0000
  C   C77       1.0  0.5574  0.83002  0.15501  1.0000
  C   C78       1.0  0.48957  0.79098  0.12391  1.0000
  C   C79       1.0  0.37764  0.71621  0.12172  1.0000
  C   C80       1.0  0.65805  0.87939  0.24879999999999997  1.0000
  C   C81       1.0  0.99243  0.10091000000000001  0.28219  1.0000
  C   C82       1.0  0.02361  0.15793  0.33643  1.0000
  C   C83       1.0  0.09108  0.18951999999999997  0.32909  1.0000
  C   C84       1.0  0.12773  0.16424  0.26703  1.0000
  C   C85       1.0  0.09836  0.10587999999999999  0.21318999999999996  1.0000
  C   C86       1.0  0.031210000000000005  0.07425  0.22083  1.0000
  C   C87       1.0  0.91637  0.07029000000000003  0.28967  1.0000
  C   C88       1.0  0.19334  0.20094  0.25594  1.0000
  C   C89       1.0  0.95808  0.04587999999999999  0.50823  1.0000
  C   C90       1.0  0.98959  0.10922999999999997  0.5488899999999999  1.0000
  C   C91       1.0  0.05683  0.11792999999999997  0.5885  1.0000
  C   C92       1.0  0.09428  0.06304999999999998  0.58631  1.0000
  C   C93       1.0  0.06311  0.9996100000000001  0.54525  1.0000
  C   C94       1.0  0.9948799999999999  0.9912599999999999  0.50684  1.0000
  C   C95       1.0  0.88601  0.035320000000000004  0.46495  1.0000
  C   C96       1.0  0.1665  0.07227  0.62759  1.0000
  C   C97       1.0  0.44621  0.8452  0.6074299999999999  1.0000
  C   C98       1.0  0.46987  0.7825200000000001  0.55683  1.0000
  C   C99       1.0  0.53734  0.7517200000000002  0.5650799999999999  1.0000
  C   C100      1.0  0.58242  0.78317  0.62373  1.0000
  C   C101      1.0  0.55738  0.8449000000000001  0.67495  1.0000
  C   C102      1.0  0.48960000000000004  0.87603  0.667  1.0000
  C   C103      1.0  0.37771999999999994  0.87821  0.59444  1.0000
  C   C104      1.0  0.65796  0.75117  0.63054  1.0000
  C   C105      1.0  0.99243  0.71782  0.8187199999999999  1.0000
  C   C106      1.0  0.02358  0.66355  0.82146  1.0000
  C   C107      1.0  0.09105  0.67083  0.86037  1.0000
  C   C108      1.0  0.12775  0.73288  0.8971799999999999  1.0000
  C   C109      1.0  0.09843  0.78674  0.89269  1.0000
  C   C110      1.0  0.03128  0.7791600000000001  0.85346  1.0000
  C   C111      1.0  0.91639  0.71044  0.78062  1.0000
  C   C112      1.0  0.19333  0.7439500000000001  0.94497  1.0000
  C   C113      1.0  0.95811  0.49185  0.53759  1.0000
  C   C114      1.0  0.98951  0.45119000000000004  0.56032  1.0000
  C   C115      1.0  0.0567  0.41151  0.52943  1.0000
  C   C116      1.0  0.0942  0.41365  0.47673  1.0000
  C   C117      1.0  0.06311  0.4546799999999999  0.45428999999999997  1.0000
  C   C118      1.0  0.99493  0.49316  0.4843299999999999  1.0000
  C   C119      1.0  0.8860499999999998  0.53515  0.57032  1.0000
  C   C120      1.0  0.16644  0.37239  0.4447  1.0000
  C   C121      1.0  0.44614  0.39251  0.23774999999999996  1.0000
  C   C122      1.0  0.46981999999999996  0.44311  0.22568  1.0000
  C   C123      1.0  0.53736  0.4349100000000001  0.1867  1.0000
  C   C124      1.0  0.58249  0.37628  0.1595  1.0000
  C   C125      1.0  0.5574  0.32505  0.17  1.0000
  C   C126      1.0  0.48955  0.33297  0.20899999999999996  1.0000
  C   C127      1.0  0.37764  0.40551  0.28376  1.0000
  C   C128      1.0  0.65806  0.36949  0.12069  1.0000
  C   C129      1.0  0.99246  0.1813299999999999  0.8990899999999998  1.0000
  C   C130      1.0  0.02364  0.17854999999999996  0.84208  1.0000
  C   C131      1.0  0.09109  0.13961999999999997  0.8104599999999998  1.0000
  C   C132      1.0  0.12775  0.10280999999999996  0.8357099999999998  1.0000
  C   C133      1.0  0.09841  0.10734999999999995  0.8940799999999999  1.0000
  C   C134      1.0  0.03128  0.14661999999999997  0.9257299999999999  1.0000
  C   C135      1.0  0.91638  0.21939  0.92971  1.0000
  C   C136      1.0  0.19334  0.05502  0.799  1.0000
  C   C137      1.0  0.95809  0.46238  0.95428  1.0000
  C   C138      1.0  0.98947  0.43964999999999993  0.8908699999999999  1.0000
  C   C139      1.0  0.05664  0.47053999999999996  0.8820599999999998  1.0000
  C   C140      1.0  0.09418  0.52324  0.93686  1.0000
  C   C141      1.0  0.0631  0.54569  0.00035  1.0000
  C   C142      1.0  0.99493  0.51565  0.008829999999999998  1.0000
  C   C143      1.0  0.88604  0.42965  0.96484  1.0000
  C   C144      1.0  0.16644  0.55523  0.92758  1.0000
  O   O1        1.0  0.84783  0.35809  0.06623  1.0000
  O   O2        1.0  0.84884  0.46292  0.14562  1.0000
  O   O3        1.0  0.19952  0.31686000000000003  0.21655999999999997  1.0000
  O   O4        1.0  0.17521  0.41734000000000004  0.30608  1.0000
  O   O5        1.0  0.38086  0.24493999999999996  0.34544  1.0000
  O   O6        1.0  0.39205  0.2234  0.23996  1.0000
  O   O7        1.0  0.71817  0.014870000000000001  0.19854  1.0000
  O   O8        1.0  0.72273  0.05125  0.30586  1.0000
  O   O9        1.0  0.36527  0.3735  0.45605  1.0000
  O   O10       1.0  0.35198  0.46052999999999994  0.43925  1.0000
  O   O11       1.0  0.68688  0.54537  0.67434  1.0000
  O   O12       1.0  0.70993  0.59483  0.61655  1.0000
  O   O13       1.0  0.84768  0.70813  0.64195  1.0000
  O   O14       1.0  0.84879  0.68272  0.53712  1.0000
  O   O15       1.0  0.19966  0.8996600000000001  0.68311  1.0000
  O   O16       1.0  0.17529  0.88869  0.58264  1.0000
  O   O17       1.0  0.38083  0.10077  0.75524  1.0000
  O   O18       1.0  0.39201  0.016629999999999905  0.7764899999999999  1.0000
  O   O19       1.0  0.7181499999999998  0.1837  0.9851899999999999  1.0000
  O   O20       1.0  0.72276  0.25457  0.94872  1.0000
  O   O21       1.0  0.36527  0.08253000000000003  0.62655  1.0000
  O   O22       1.0  0.35198  0.9787199999999999  0.53947  1.0000
  O   O23       1.0  0.68687  0.12907999999999994  0.45468  1.0000
  O   O24       1.0  0.70999  0.021860000000000008  0.4053  1.0000
  O   O25       1.0  0.84769  0.9338499999999998  0.29192  1.0000
  O   O26       1.0  0.84879  0.85442  0.3173  1.0000
  O   O27       1.0  0.19971  0.78347  0.10032999999999999  1.0000
  O   O28       1.0  0.17522  0.69391  0.11116999999999999  1.0000
  O   O29       1.0  0.38086  0.65446  0.89928  1.0000
  O   O30       1.0  0.39199  0.75987  0.98337  1.0000
  O   O31       1.0  0.7181499999999998  0.80158  0.81638  1.0000
  O   O32       1.0  0.72276  0.6942300000000001  0.7455  1.0000
  O   O33       1.0  0.36526  0.54391  0.91732  1.0000
  O   O34       1.0  0.35192  0.56062  0.02111  1.0000
  O   O35       1.0  0.68695  0.3256899999999998  0.8710699999999999  1.0000
  O   O36       1.0  0.70993  0.38346  0.9783399999999999  1.0000
  O   O37       1.0  0.34769  0.7080799999999999  0.06615  1.0000
  O   O38       1.0  0.34879  0.6827  0.14558  1.0000
  O   O39       1.0  0.69971  0.8996700000000001  0.21653  1.0000
  O   O40       1.0  0.67522  0.88883  0.30609  1.0000
  O   O41       1.0  0.88085  0.10072  0.34555  1.0000
  O   O42       1.0  0.89199  0.01662999999999998  0.24013999999999996  1.0000
  O   O43       1.0  0.21815  0.18363000000000002  0.19843  1.0000
  O   O44       1.0  0.22276  0.2545  0.30578  1.0000
  O   O45       1.0  0.86526  0.08268999999999997  0.45609999999999995  1.0000
  O   O46       1.0  0.85192  0.97889  0.43938  1.0000
  O   O47       1.0  0.18695  0.12892999999999996  0.6743099999999999  1.0000
  O   O48       1.0  0.20993  0.02165999999999999  0.61655  1.0000
  O   O49       1.0  0.34783  0.93378  0.64191  1.0000
  O   O50       1.0  0.34884  0.85438  0.53708  1.0000
  O   O51       1.0  0.69952  0.78344  0.6831399999999999  1.0000
  O   O52       1.0  0.67521  0.69392  0.58266  1.0000
  O   O53       1.0  0.88085  0.65456  0.75507  1.0000
  O   O54       1.0  0.89205  0.76004  0.7766  1.0000
  O   O55       1.0  0.21817  0.8014600000000001  0.9851399999999999  1.0000
  O   O56       1.0  0.22273  0.69414  0.94876  1.0000
  O   O57       1.0  0.86527  0.54395  0.6265  1.0000
  O   O58       1.0  0.8519799999999998  0.56076  0.53948  1.0000
  O   O59       1.0  0.18688  0.32567  0.45463  1.0000
  O   O60       1.0  0.20993  0.38345000000000007  0.40517000000000003  1.0000
  O   O61       1.0  0.34768  0.35805999999999993  0.29187  1.0000
  O   O62       1.0  0.34879  0.46288  0.31728  1.0000
  O   O63       1.0  0.69966  0.3169  0.10035  1.0000
  O   O64       1.0  0.67529  0.41736  0.11130999999999999  1.0000
  O   O65       1.0  0.88083  0.24477  0.89923  1.0000
  O   O66       1.0  0.89201  0.22352000000000008  0.98337  1.0000
  O   O67       1.0  0.21815  0.014819999999999939  0.8163099999999999  1.0000
  O   O68       1.0  0.22276  0.051280000000000055  0.74544  1.0000
  O   O69       1.0  0.86527  0.37344999999999995  0.9174799999999999  1.0000
  O   O70       1.0  0.8519799999999998  0.46052999999999994  0.02128  1.0000
  O   O71       1.0  0.18687  0.54532  0.87092  1.0000
  O   O72       1.0  0.20999  0.59471  0.97814  1.0000
