data_image0
_chemical_formula_structural       Cd8H72C124N24O32
_chemical_formula_sum              "Cd8 H72 C124 N24 O32"
_cell_length_a       13.54651
_cell_length_b       15.20281
_cell_length_c       20.59264
_cell_angle_alpha    90.14363
_cell_angle_beta     101.15994
_cell_angle_gamma    90.05922999999999

_symmetry_space_group_name_H-M    'P 1'
_symmetry_Int_Tables_number       1

loop_
  _symmetry_equiv_pos_as_xyz
  'x,y,z'

loop_
  _atom_site_type_symbol
  _atom_site_label
  _atom_site_symmetry_multiplicity
  _atom_site_fract_x
  _atom_site_fract_y
  _atom_site_fract_z
  _atom_site_occupancy
  Cd  Cd1       1.0  0.31846  0.4820899999999999  0.35909  1.0000
  Cd  Cd2       1.0  0.6815200000000002  0.9830399999999998  0.14079  1.0000
  Cd  Cd3       1.0  0.31847  0.01696  0.8592  1.0000
  Cd  Cd4       1.0  0.016360000000000013  0.19716999999999996  0.23574000000000003  1.0000
  Cd  Cd5       1.0  0.6815300000000002  0.5179  0.6409100000000001  1.0000
  Cd  Cd6       1.0  0.01635000000000001  0.30251  0.7348300000000001  1.0000
  Cd  Cd7       1.0  0.9836300000000002  0.8028199999999998  0.76426  1.0000
  Cd  Cd8       1.0  0.9836400000000002  0.69749  0.26516  1.0000
  H   H1        1.0  0.03646  0.9130999999999998  0.15296  1.0000
  H   H2        1.0  0.8430500000000003  0.33974  0.5186800000000001  1.0000
  H   H3        1.0  0.5650800000000001  0.8973199999999998  0.68764  1.0000
  H   H4        1.0  0.45495  0.59781  0.4854  1.0000
  H   H5        1.0  0.8449000000000001  0.59129  0.46205000000000007  1.0000
  H   H6        1.0  0.77745  0.3041  0.66417  1.0000
  H   H7        1.0  0.29511000000000004  0.5653399999999997  0.5596  1.0000
  H   H8        1.0  0.54504  0.4021899999999999  0.5146  1.0000
  H   H9        1.0  0.29217000000000015  0.81686  0.5549900000000001  1.0000
  H   H10       1.0  0.6904300000000002  0.24571  0.7381700000000001  1.0000
  H   H11       1.0  0.5313300000000002  0.31626  0.26561000000000007  1.0000
  H   H12       1.0  0.2764200000000001  0.82579  0.42988000000000004  1.0000
  H   H13       1.0  0.68867  0.2543  0.23719  1.0000
  H   H14       1.0  0.42242000000000013  0.21807  0.9733200000000001  1.0000
  H   H15       1.0  0.54576  0.09727  0.012990000000000002  1.0000
  H   H16       1.0  0.28124  0.32198  0.76535  1.0000
  H   H17       1.0  0.43456  0.39715  0.8124000000000001  1.0000
  H   H18       1.0  0.46866000000000013  0.68374  0.73439  1.0000
  H   H19       1.0  0.96248  0.4127299999999999  0.34623  1.0000
  H   H20       1.0  0.27387  0.27142  0.96754  1.0000
  H   H21       1.0  0.22526000000000004  0.9308799999999998  0.59036  1.0000
  H   H22       1.0  0.56542  0.6028499999999998  0.1876  1.0000
  H   H23       1.0  0.45423  0.9027199999999997  0.9870000000000001  1.0000
  H   H24       1.0  0.7078200000000002  0.18313999999999994  0.44501  1.0000
  H   H25       1.0  0.72357  0.17419999999999994  0.57012  1.0000
  H   H26       1.0  0.7255  0.7719  0.5316  1.0000
  H   H27       1.0  0.07944000000000002  0.27393  0.8940100000000001  1.0000
  H   H28       1.0  0.15694000000000005  0.6602599999999997  0.4813100000000001  1.0000
  H   H29       1.0  0.15652  0.8393699999999998  0.98079  1.0000
  H   H30       1.0  0.22231000000000004  0.8031699999999998  0.83706  1.0000
  H   H31       1.0  0.8404  0.49866  0.80072  1.0000
  H   H32       1.0  0.42296  0.2812199999999999  0.47426000000000007  1.0000
  H   H33       1.0  0.03751000000000005  0.5872699999999997  0.6537700000000001  1.0000
  H   H34       1.0  0.9205500000000001  0.7260599999999998  0.10598  1.0000
  H   H35       1.0  0.29254  0.6832499999999998  0.05563  1.0000
  H   H36       1.0  0.31132  0.7456899999999999  0.76281  1.0000
  H   H37       1.0  0.5324200000000001  0.18342  0.7657400000000001  1.0000
  H   H38       1.0  0.22254000000000004  0.6958999999999997  0.33583  1.0000
  H   H39       1.0  0.7187500000000002  0.67802  0.23465  1.0000
  H   H40       1.0  0.5420500000000001  0.41088  0.7389200000000001  1.0000
  H   H41       1.0  0.5775700000000001  0.78193  0.02667  1.0000
  H   H42       1.0  0.2955800000000001  0.9360999999999998  0.06035  1.0000
  H   H43       1.0  0.8441100000000002  0.90678  0.96108  1.0000
  H   H44       1.0  0.72612  0.72858  0.03246  1.0000
  H   H45       1.0  0.8412300000000001  0.0025199999999999997  0.30060000000000003  1.0000
  H   H46       1.0  0.4349100000000001  0.10267  0.31235  1.0000
  H   H47       1.0  0.4568400000000001  0.9101999999999998  0.7612600000000003  1.0000
  H   H48       1.0  0.9635300000000002  0.08689999999999998  0.8470400000000002  1.0000
  H   H49       1.0  0.7224700000000002  0.3265899999999999  0.06947  1.0000
  H   H50       1.0  0.7044100000000002  0.0639  0.9396500000000001  1.0000
  H   H51       1.0  0.7776800000000001  0.19682999999999995  0.16294  1.0000
  H   H52       1.0  0.28108  0.17734  0.26586  1.0000
  H   H53       1.0  0.5770300000000003  0.7187799999999998  0.52573  1.0000
  H   H54       1.0  0.22547000000000003  0.56912  0.09059000000000002  1.0000
  H   H55       1.0  0.5431500000000001  0.08979  0.23874  1.0000
  H   H56       1.0  0.15588000000000005  0.09320999999999997  0.03892  1.0000
  H   H57       1.0  0.15509000000000006  0.4087099999999999  0.53794  1.0000
  H   H58       1.0  0.7048800000000001  0.43465  0.44039000000000006  1.0000
  H   H59       1.0  0.15876  0.99748  0.6994000000000001  1.0000
  H   H60       1.0  0.27449000000000007  0.22808999999999993  0.4684  1.0000
  H   H61       1.0  0.7189100000000003  0.82266  0.7341400000000002  1.0000
  H   H62       1.0  0.08001000000000001  0.22676999999999994  0.39476000000000006  1.0000
  H   H63       1.0  0.70744  0.31675  0.9443700000000002  1.0000
  H   H64       1.0  0.7747300000000001  0.06911999999999997  0.4096400000000001  1.0000
  H   H65       1.0  0.45794  0.58912  0.26107  1.0000
  H   H66       1.0  0.27752  0.6734  0.93053  1.0000
  H   H67       1.0  0.30956  0.7542899999999998  0.26182  1.0000
  H   H68       1.0  0.7745200000000002  0.4308799999999999  0.9094100000000002  1.0000
  H   H69       1.0  0.9199700000000001  0.77323  0.60523  1.0000
  H   H70       1.0  0.4675700000000001  0.8165699999999998  0.23426000000000002  1.0000
  H   H71       1.0  0.8434700000000002  0.16062999999999994  0.0192  1.0000
  H   H72       1.0  0.15959  0.50133  0.19928  1.0000
  C   C1        1.0  0.3051000000000001  0.7396499999999998  0.9275200000000001  1.0000
  C   C2        1.0  0.8484700000000001  0.7833199999999998  0.62026  1.0000
  C   C3        1.0  0.60838  0.37681  0.3554  1.0000
  C   C4        1.0  0.39098000000000005  0.8780899999999998  0.14515  1.0000
  C   C5        1.0  0.00045000000000000427  0.12711  0.03630000000000001  1.0000
  C   C6        1.0  0.2631000000000001  0.9374  0.6412900000000001  1.0000
  C   C7        1.0  0.02853000000000001  0.5992199999999999  0.60087  1.0000
  C   C8        1.0  0.8742400000000002  0.26273  0.30395  1.0000
  C   C9        1.0  0.5130000000000002  0.08353  0.8681000000000001  1.0000
  C   C10       1.0  0.2522900000000001  0.3098499999999999  0.8099300000000001  1.0000
  C   C11       1.0  0.21438000000000001  0.8052399999999997  0.17426000000000003  1.0000
  C   C12       1.0  0.99988  0.62684  0.46429  1.0000
  C   C13       1.0  0.59847  0.14179  0.04316  1.0000
  C   C14       1.0  0.60502  0.17306  0.7978900000000001  1.0000
  C   C15       1.0  0.41792000000000007  0.19363  0.39041000000000003  1.0000
  C   C16       1.0  0.5777000000000001  0.36265999999999987  0.87417  1.0000
  C   C17       1.0  0.37401000000000006  0.6815299999999997  0.0693  1.0000
  C   C18       1.0  0.06802000000000004  0.08824  0.9395  1.0000
  C   C19       1.0  0.01601000000000004  0.3540599999999999  0.6082900000000001  1.0000
  C   C20       1.0  0.47271000000000013  0.35856999999999994  0.85409  1.0000
  C   C21       1.0  0.30727  0.7921999999999998  0.21688  1.0000
  C   C22       1.0  0.47305  0.14105999999999994  0.35437  1.0000
  C   C23       1.0  0.4222900000000001  0.63734  0.12583  1.0000
  C   C24       1.0  0.9714600000000003  0.40077  0.3991300000000001  1.0000
  C   C25       1.0  0.5780500000000001  0.13709  0.37454000000000004  1.0000
  C   C26       1.0  0.78472  0.30463  0.32518000000000014  1.0000
  C   C27       1.0  0.4315700000000002  0.7305599999999998  0.03315  1.0000
  C   C28       1.0  0.6040800000000002  0.32633  0.29783  1.0000
  C   C29       1.0  0.8459200000000001  0.5626399999999998  0.5922500000000003  1.0000
  C   C30       1.0  0.38628  0.57272  0.23012000000000002  1.0000
  C   C31       1.0  0.6090100000000003  0.12191  0.85485  1.0000
  C   C32       1.0  0.4872300000000001  0.58538  0.6301400000000001  1.0000
  C   C33       1.0  0.8896799999999999  0.3733899999999999  0.42687  1.0000
  C   C34       1.0  0.6927200000000001  0.20779  0.78312  1.0000
  C   C35       1.0  0.15572  0.06498  0.90848  1.0000
  C   C36       1.0  0.9725700000000003  0.09942  0.89989  1.0000
  C   C37       1.0  0.01603  0.14566999999999994  0.10895  1.0000
  C   C38       1.0  0.56842  0.2694299999999999  0.9668400000000001  1.0000
  C   C39       1.0  0.70193  0.10659999999999997  0.8969000000000001  1.0000
  C   C40       1.0  0.20863  0.85653  0.11636000000000003  1.0000
  C   C41       1.0  0.9051  0.13918999999999995  0.9960600000000001  1.0000
  C   C42       1.0  0.91807  0.8981799999999998  0.99205  1.0000
  C   C43       1.0  0.4020900000000001  0.6421299999999998  0.45544000000000007  1.0000
  C   C44       1.0  0.89034  0.12632  0.9274  1.0000
  C   C45       1.0  0.71965  0.19567999999999994  0.11882000000000001  1.0000
  C   C46       1.0  0.6146200000000002  0.07346  0.26983  1.0000
  C   C47       1.0  0.6263600000000002  0.18126999999999993  0.43132000000000004  1.0000
  C   C48       1.0  0.29806  0.8933999999999997  0.10310000000000001  1.0000
  C   C49       1.0  0.7856  0.19475999999999993  0.8257400000000001  1.0000
  C   C50       1.0  0.9995399999999999  0.8728899999999998  0.9637000000000001  1.0000
  C   C51       1.0  0.53523  0.7394099999999998  0.05368000000000001  1.0000
  C   C52       1.0  0.7474900000000003  0.8102999999999998  0.6894000000000002  1.0000
  C   C53       1.0  0.7534700000000001  0.71731  0.08454000000000002  1.0000
  C   C54       1.0  0.7194300000000001  0.3048899999999999  0.62004  1.0000
  C   C55       1.0  0.3916100000000001  0.62319  0.64459  1.0000
  C   C56       1.0  0.09489  0.8608  0.00393  1.0000
  C   C57       1.0  0.69488  0.26035  0.07248000000000003  1.0000
  C   C58       1.0  0.12575000000000006  0.7372599999999998  0.6960500000000001  1.0000
  C   C59       1.0  0.20936000000000007  0.64431  0.6166300000000001  1.0000
  C   C60       1.0  0.2525000000000001  0.18969999999999995  0.31059  1.0000
  C   C61       1.0  0.69162  0.29166  0.28262  1.0000
  C   C62       1.0  0.7913600000000002  0.14345999999999995  0.8836400000000001  1.0000
  C   C63       1.0  0.48699  0.9164699999999998  0.13189  1.0000
  C   C64       1.0  0.8490000000000002  0.71637  0.12103000000000001  1.0000
  C   C65       1.0  0.9839800000000002  0.6459299999999998  0.39171000000000006  1.0000
  C   C66       1.0  0.9333100000000002  0.5868299999999997  0.56124  1.0000
  C   C67       1.0  0.02742  0.9005699999999998  0.10011  1.0000
  C   C68       1.0  0.7906300000000005  0.35568  0.38337  1.0000
  C   C69       1.0  0.98396  0.8543199999999997  0.8910500000000001  1.0000
  C   C70       1.0  0.7688200000000002  0.02988  0.3043  1.0000
  C   C71       1.0  0.23198000000000005  0.5289099999999998  0.19565  1.0000
  C   C72       1.0  0.15152000000000002  0.21667  0.37974  1.0000
  C   C73       1.0  0.4311100000000001  0.7698099999999998  0.53232  1.0000
  C   C74       1.0  0.58207  0.80637  0.60958  1.0000
  C   C75       1.0  0.46524  0.23873999999999995  0.44713  1.0000
  C   C76       1.0  0.00011000000000004568  0.37316  0.5357100000000001  1.0000
  C   C77       1.0  0.62598  0.31847  0.9307  1.0000
  C   C78       1.0  0.3736300000000001  0.8187299999999998  0.5686800000000001  1.0000
  C   C79       1.0  0.7365100000000002  0.43757  0.85856  1.0000
  C   C80       1.0  0.7529100000000001  0.7827699999999997  0.58378  1.0000
  C   C81       1.0  0.08106  0.39936  0.50718  1.0000
  C   C82       1.0  0.58247  0.69424  0.11017000000000002  1.0000
  C   C83       1.0  0.7477000000000003  0.6901499999999998  0.19006000000000006  1.0000
  C   C84       1.0  0.3949700000000001  0.8269399999999998  0.20211000000000004  1.0000
  C   C85       1.0  0.7680100000000002  0.4710799999999999  0.80434  1.0000
  C   C86       1.0  0.5272800000000001  0.6414299999999997  0.1459  1.0000
  C   C87       1.0  0.06668  0.4131599999999999  0.43876  1.0000
  C   C88       1.0  0.56888  0.23019  0.46768000000000004  1.0000
  C   C89       1.0  0.70153  0.39218  0.39725  1.0000
  C   C90       1.0  0.24652000000000004  0.2826899999999999  0.91545  1.0000
  C   C91       1.0  0.23117  0.9701199999999998  0.6957  1.0000
  C   C92       1.0  0.10965000000000003  0.8736699999999997  0.07259000000000002  1.0000
  C   C93       1.0  0.12555000000000002  0.7624099999999998  0.19565  1.0000
  C   C94       1.0  0.91893  0.60064  0.4928200000000001  1.0000
  C   C95       1.0  0.8442700000000002  0.93502  0.09152000000000002  1.0000
  C   C96       1.0  0.5269400000000002  0.8589399999999998  0.6456200000000001  1.0000
  C   C97       1.0  0.8744400000000002  0.23759  0.80434  1.0000
  C   C98       1.0  0.15099000000000012  0.2836299999999999  0.8789700000000003  1.0000
  C   C99       1.0  0.73689  0.0626  0.3587000000000001  1.0000
  C   C100      1.0  0.3959100000000001  0.6736699999999999  0.70217  1.0000
  C   C101      1.0  0.26348  0.56243  0.14144  1.0000
  C   C102      1.0  0.6953500000000002  0.24015999999999996  0.57338  1.0000
  C   C103      1.0  0.24708000000000002  0.21722999999999995  0.4162100000000001  1.0000
  C   C104      1.0  0.51276  0.41462  0.36985000000000007  1.0000
  C   C105      1.0  0.5979  0.35787  0.54456  1.0000
  C   C106      1.0  0.40152  0.8581999999999997  0.95684  1.0000
  C   C107      1.0  0.2984500000000001  0.60782  0.60274  1.0000
  C   C108      1.0  0.53475  0.7612599999999998  0.55286  1.0000
  C   C109      1.0  0.15407000000000007  0.43735  0.40775  1.0000
  C   C110      1.0  0.09527000000000005  0.6391599999999997  0.5044800000000002  1.0000
  C   C111      1.0  0.28034000000000003  0.8043199999999999  0.8811700000000001  1.0000
  C   C112      1.0  0.41752  0.30576  0.88982  1.0000
  C   C113      1.0  0.6137100000000001  0.4272799999999999  0.7698700000000003  1.0000
  C   C114      1.0  0.08192000000000003  0.10181  0.00795  1.0000
  C   C115      1.0  0.9047200000000002  0.36083  0.4955100000000001  1.0000
  C   C116      1.0  0.4647500000000001  0.26059  0.9463100000000001  1.0000
  C   C117      1.0  0.2805600000000001  0.69511  0.37996000000000013  1.0000
  C   C118      1.0  0.93197  0.91176  0.06049  1.0000
  C   C119      1.0  0.42194000000000004  0.86291  0.6254600000000001  1.0000
  C   C120      1.0  0.3046400000000001  0.75984  0.4266200000000001  1.0000
  C   C121      1.0  0.11030000000000002  0.62661  0.5731200000000001  1.0000
  C   C122      1.0  0.3083700000000002  0.70834  0.7173700000000002  1.0000
  C   C123      1.0  0.38537  0.9265399999999998  0.73017  1.0000
  C   C124      1.0  0.21527000000000004  0.69537  0.6748200000000001  1.0000
  N   N1        1.0  0.30889000000000005  0.5359199999999997  0.2504  1.0000
  N   N2        1.0  0.6891400000000002  0.70012  0.12839  1.0000
  N   N3        1.0  0.844  0.8004699999999998  0.68583  1.0000
  N   N4        1.0  0.8443300000000002  0.6994699999999998  0.18657000000000004  1.0000
  N   N5        1.0  0.6374300000000002  0.40998  0.8365600000000001  1.0000
  N   N6        1.0  0.34128  0.62278  0.39855  1.0000
  N   N7        1.0  0.30773  0.9626899999999998  0.75055  1.0000
  N   N8        1.0  0.36215000000000014  0.91003  0.66328  1.0000
  N   N9        1.0  0.6587  0.3772099999999999  0.60145  1.0000
  N   N10       1.0  0.63784  0.08996999999999997  0.33672  1.0000
  N   N11       1.0  0.3625600000000001  0.59002  0.16344  1.0000
  N   N12       1.0  0.6911000000000002  0.46406999999999987  0.7496000000000003  1.0000
  N   N13       1.0  0.31125000000000014  0.19959999999999994  0.3722700000000001  1.0000
  N   N14       1.0  0.3822500000000001  0.7257399999999998  0.47438  1.0000
  N   N15       1.0  0.34039  0.8771899999999998  0.90008  1.0000
  N   N16       1.0  0.15599  0.19951999999999995  0.31417  1.0000
  N   N17       1.0  0.6887400000000002  0.8003899999999998  0.62772  1.0000
  N   N18       1.0  0.6596000000000001  0.12281  0.09991000000000001  1.0000
  N   N19       1.0  0.6922600000000001  0.03729999999999999  0.24945  1.0000
  N   N20       1.0  0.38251  0.7743199999999999  0.9753600000000001  1.0000
  N   N21       1.0  0.31085  0.29987999999999987  0.8716100000000001  1.0000
  N   N22       1.0  0.61748  0.22566999999999995  0.02463  1.0000
  N   N23       1.0  0.15566  0.3005299999999999  0.8134300000000001  1.0000
  N   N24       1.0  0.61774  0.27426  0.52562  1.0000
  O   O1        1.0  0.8906200000000002  0.28938  0.24754000000000004  1.0000
  O   O2        1.0  0.10937000000000008  0.71062  0.7524600000000002  1.0000
  O   O3        1.0  0.8992200000000004  0.8663899999999998  0.85346  1.0000
  O   O4        1.0  0.06016000000000002  0.82313  0.86925  1.0000
  O   O5        1.0  0.75607  0.93318  0.05494000000000001  1.0000
  O   O6        1.0  0.9405700000000002  0.32051  0.6297900000000002  1.0000
  O   O7        1.0  0.4853300000000001  0.9734499999999998  0.08715  1.0000
  O   O8        1.0  0.8997900000000002  0.6318699999999998  0.3538700000000001  1.0000
  O   O9        1.0  0.7585300000000003  0.5603999999999998  0.55477  1.0000
  O   O10       1.0  0.8900700000000001  0.21121999999999994  0.74753  1.0000
  O   O11       1.0  0.10019000000000006  0.36813  0.6461300000000002  1.0000
  O   O12       1.0  0.51494  0.4710999999999999  0.41521  1.0000
  O   O13       1.0  0.48505  0.5289  0.58479  1.0000
  O   O14       1.0  0.9243100000000002  0.20272999999999994  0.33768  1.0000
  O   O15       1.0  0.56906  0.8884999999999997  0.16906000000000004  1.0000
  O   O16       1.0  0.5146600000000002  0.026550000000000004  0.9128500000000003  1.0000
  O   O17       1.0  0.8597500000000001  0.5471  0.65432  1.0000
  O   O18       1.0  0.24392000000000005  0.06681999999999998  0.94506  1.0000
  O   O19       1.0  0.10077000000000003  0.13360999999999995  0.14654  1.0000
  O   O20       1.0  0.4303800000000001  0.3863499999999999  0.33286  1.0000
  O   O21       1.0  0.1407700000000001  0.04559  0.8469400000000001  1.0000
  O   O22       1.0  0.9398300000000002  0.17687  0.13075  1.0000
  O   O23       1.0  0.9243400000000002  0.2980399999999999  0.8378500000000001  1.0000
  O   O24       1.0  0.56961  0.61364  0.66714  1.0000
  O   O25       1.0  0.07568  0.7972599999999997  0.66231  1.0000
  O   O26       1.0  0.43093  0.11149999999999997  0.83093  1.0000
  O   O27       1.0  0.24146000000000004  0.43958999999999987  0.4452200000000001  1.0000
  O   O28       1.0  0.07565000000000002  0.70196  0.16215  1.0000
  O   O29       1.0  0.8592200000000002  0.9544099999999998  0.15306  1.0000
  O   O30       1.0  0.14024000000000003  0.4529  0.34567  1.0000
  O   O31       1.0  0.05942000000000001  0.6794899999999998  0.37021000000000004  1.0000
  O   O32       1.0  0.10992  0.78878  0.25247  1.0000
