data_image0
_chemical_formula_structural       Zn16H64C136O60
_chemical_formula_sum              "Zn16 H64 C136 O60"
_cell_length_a       10.42943
_cell_length_b       26.30765
_cell_length_c       27.9236
_cell_angle_alpha    90.0
_cell_angle_beta     90.0
_cell_angle_gamma    91.71172

_space_group_name_H-M_alt    "P 1"
_space_group_IT_number       1

loop_
  _space_group_symop_operation_xyz
  'x, y, z'

loop_
  _atom_site_type_symbol
  _atom_site_label
  _atom_site_symmetry_multiplicity
  _atom_site_fract_x
  _atom_site_fract_y
  _atom_site_fract_z
  _atom_site_occupancy
  Zn  Zn1       1.0  0.31493  0.22649  0.16827  1.0000
  Zn  Zn2       1.0  0.04807  0.37484  0.66259  1.0000
  Zn  Zn3       1.0  0.88995  0.26625000000000004  0.66302  1.0000
  Zn  Zn4       1.0  0.040880000000000014  0.2997200000000001  0.56714  1.0000
  Zn  Zn5       1.0  0.68508  0.77351  0.83173  1.0000
  Zn  Zn6       1.0  0.8149299999999999  0.72649  0.33173  1.0000
  Zn  Zn7       1.0  0.9519399999999999  0.6251600000000003  0.33741  1.0000
  Zn  Zn8       1.0  0.45192999999999994  0.12516  0.16258999999999998  1.0000
  Zn  Zn9       1.0  0.95912  0.7002800000000001  0.43286  1.0000
  Zn  Zn10      1.0  0.18508  0.27351  0.6682699999999999  1.0000
  Zn  Zn11      1.0  0.54088  0.7997100000000003  0.93286  1.0000
  Zn  Zn12      1.0  0.61006  0.23375  0.16302  1.0000
  Zn  Zn13      1.0  0.5480700000000001  0.8748300000000001  0.83741  1.0000
  Zn  Zn14      1.0  0.38995  0.76625  0.83698  1.0000
  Zn  Zn15      1.0  0.11005999999999999  0.73375  0.33698  1.0000
  Zn  Zn16      1.0  0.45912  0.20028  0.06714  1.0000
  H   H1        1.0  0.21878  0.77621  0.10001  1.0000
  H   H2        1.0  0.54812  0.33652000000000004  0.68196  1.0000
  H   H3        1.0  0.84794  0.9654000000000003  0.7661099999999998  1.0000
  H   H4        1.0  0.32906  0.24729  0.46997  1.0000
  H   H5        1.0  0.28122  0.72379  0.6000100000000002  1.0000
  H   H6        1.0  0.35055  0.18662000000000006  0.32026  1.0000
  H   H7        1.0  0.6466  0.8048  0.59083  1.0000
  H   H8        1.0  0.25968  0.4528900000000001  0.27673  1.0000
  H   H9        1.0  0.26453  0.9671200000000001  0.76869  1.0000
  H   H10       1.0  0.02065000000000001  0.4145600000000001  0.4632  1.0000
  H   H11       1.0  0.3534  0.19520000000000007  0.4091699999999999  1.0000
  H   H12       1.0  0.78576  0.23353  0.81135  1.0000
  H   H13       1.0  0.8885399999999999  0.10368  0.67101  1.0000
  H   H14       1.0  0.74456  0.24356000000000005  0.47152  1.0000
  H   H15       1.0  0.74032  0.54711  0.72328  1.0000
  H   H16       1.0  0.11822999999999999  0.98452  0.2964200000000001  1.0000
  H   H17       1.0  0.51102  0.008310000000000001  0.91141  1.0000
  H   H18       1.0  0.8534  0.6952  0.09083  1.0000
  H   H19       1.0  0.47936  0.08544  0.9632  1.0000
  H   H20       1.0  0.17094  0.25271000000000005  0.9699699999999999  1.0000
  H   H21       1.0  0.7464499999999998  0.63434  0.7574399999999999  1.0000
  H   H22       1.0  0.75544  0.25644  0.97152  1.0000
  H   H23       1.0  0.14659999999999998  0.3048  0.90917  1.0000
  H   H24       1.0  0.24457  0.74356  0.02849  1.0000
  H   H25       1.0  0.52065  0.91456  0.0368  1.0000
  H   H26       1.0  0.95189  0.16348  0.18196  1.0000
  H   H27       1.0  0.04812  0.83652  0.81804  1.0000
  H   H28       1.0  0.53489  0.25644  0.60283  1.0000
  H   H29       1.0  0.11146999999999999  0.89631  0.32899  1.0000
  H   H30       1.0  0.67095  0.7527100000000001  0.53003  1.0000
  H   H31       1.0  0.28576  0.7335300000000002  0.68865  1.0000
  H   H32       1.0  0.75968  0.9528900000000002  0.22327999999999998  1.0000
  H   H33       1.0  0.9889799999999999  0.4916900000000001  0.41141  1.0000
  H   H34       1.0  0.38854  0.60368  0.82899  1.0000
  H   H35       1.0  0.9793599999999999  0.58544  0.5368  1.0000
  H   H36       1.0  0.85055  0.68661  0.17974  1.0000
  H   H37       1.0  0.65207  0.5346  0.26611  1.0000
  H   H38       1.0  0.75356  0.86565  0.25744  1.0000
  H   H39       1.0  0.76453  0.4671200000000001  0.73131  1.0000
  H   H40       1.0  0.14945  0.31338000000000005  0.82026  1.0000
  H   H41       1.0  0.82906  0.7472900000000002  0.03003  1.0000
  H   H42       1.0  0.38177  0.51547  0.79642  1.0000
  H   H43       1.0  0.61146  0.3963200000000001  0.17101  1.0000
  H   H44       1.0  0.15206  0.0346  0.23389  1.0000
  H   H45       1.0  0.64945  0.81338  0.67974  1.0000
  H   H46       1.0  0.61823  0.4845300000000001  0.20358  1.0000
  H   H47       1.0  0.21425  0.7664700000000002  0.18865  1.0000
  H   H48       1.0  0.45189  0.66348  0.31804  1.0000
  H   H49       1.0  0.9651100000000001  0.24356000000000005  0.10283  1.0000
  H   H50       1.0  0.23547  0.53288  0.26869  1.0000
  H   H51       1.0  0.24032  0.04711  0.77673  1.0000
  H   H52       1.0  0.25355  0.36566000000000004  0.24256  1.0000
  H   H53       1.0  0.48898  0.9916900000000002  0.08859  1.0000
  H   H54       1.0  0.78122  0.22379000000000004  0.8999899999999998  1.0000
  H   H55       1.0  0.8817699999999999  0.01547  0.70358  1.0000
  H   H56       1.0  0.25544  0.75644  0.52849  1.0000
  H   H57       1.0  0.71424  0.26647  0.31135  1.0000
  H   H58       1.0  0.01103  0.50831  0.58859  1.0000
  H   H59       1.0  0.46510999999999997  0.74356  0.39717  1.0000
  H   H60       1.0  0.73547  0.03288  0.23131  1.0000
  H   H61       1.0  0.71878  0.27621  0.39999  1.0000
  H   H62       1.0  0.03489  0.7564300000000003  0.8971799999999999  1.0000
  H   H63       1.0  0.24644999999999997  0.13434  0.74256  1.0000
  H   H64       1.0  0.3479400000000001  0.4654000000000001  0.7338900000000002  1.0000
  C   C1        1.0  0.29469  0.25928000000000007  0.56521  1.0000
  C   C2        1.0  0.86121  0.24410000000000004  0.88286  1.0000
  C   C3        1.0  0.98844  0.54786  0.52123  1.0000
  C   C4        1.0  0.15214  0.75024  0.96055  1.0000
  C   C5        1.0  0.16766  0.10778  0.73434  1.0000
  C   C6        1.0  0.41873999999999995  0.25209000000000004  0.53868  1.0000
  C   C7        1.0  0.53655  0.24256  0.46363999999999994  1.0000
  C   C8        1.0  0.99384  0.49469000000000013  0.45018  1.0000
  C   C9        1.0  0.7755  0.2543500000000001  0.5673  1.0000
  C   C10       1.0  0.08126  0.24791000000000002  0.03868  1.0000
  C   C11       1.0  0.8478599999999998  0.24975000000000003  0.03946000000000001  1.0000
  C   C12       1.0  0.66766  0.60778  0.76566  1.0000
  C   C13       1.0  0.33162  0.59981  0.29529  1.0000
  C   C14       1.0  0.56142  0.55283  0.27255  1.0000
  C   C15       1.0  0.56813  0.78859  0.61209  1.0000
  C   C16       1.0  0.58007  0.7534300000000003  0.51101  1.0000
  C   C17       1.0  0.43004999999999993  0.3225800000000001  0.18567999999999998  1.0000
  C   C18       1.0  0.4638399999999999  0.7634800000000003  0.58871  1.0000
  C   C19       1.0  0.5812599999999998  0.74791  0.46132  1.0000
  C   C20       1.0  0.78881  0.37517  0.68889  1.0000
  C   C21       1.0  0.03199  0.72599  0.18944  1.0000
  C   C22       1.0  0.46802  0.77401  0.68944  1.0000
  C   C23       1.0  0.33591  0.44114  0.25297  1.0000
  C   C24       1.0  0.20531  0.24072  0.06521  1.0000
  C   C25       1.0  0.55053  0.37449  0.69727  1.0000
  C   C26       1.0  0.83235  0.89222  0.26566  1.0000
  C   C27       1.0  0.91874  0.75209  0.9613299999999999  1.0000
  C   C28       1.0  0.9649799999999998  0.24720000000000006  0.06406  1.0000
  C   C29       1.0  0.06769  0.12416000000000002  0.70483  1.0000
  C   C30       1.0  0.28881  0.87517  0.81111  1.0000
  C   C31       1.0  0.97349  0.27886  0.75699  1.0000
  C   C32       1.0  0.66839  0.4001900000000001  0.70471  1.0000
  C   C33       1.0  0.53545  0.40956000000000004  0.19414  1.0000
  C   C34       1.0  0.91993  0.74656  0.01101  1.0000
  C   C35       1.0  0.96449  0.5885  0.44034  1.0000
  C   C36       1.0  0.96102  0.04146  0.71278  1.0000
  C   C37       1.0  0.9680199999999999  0.27401000000000003  0.81056  1.0000
  C   C38       1.0  0.03501999999999999  0.7528  0.93594  1.0000
  C   C39       1.0  0.50616  0.00531  0.95019  1.0000
  C   C40       1.0  0.03898000000000001  0.9585400000000001  0.28722  1.0000
  C   C41       1.0  0.13649  0.75089  0.16668  1.0000
  C   C42       1.0  0.06052  0.024560000000000002  0.74279  1.0000
  C   C43       1.0  0.84737  0.2543500000000001  0.9896799999999999  1.0000
  C   C44       1.0  0.51779  0.9572200000000002  0.9712499999999998  1.0000
  C   C45       1.0  0.9357899999999999  0.8982  0.79177  1.0000
  C   C46       1.0  0.65214  0.25024  0.53946  1.0000
  C   C47       1.0  0.41992999999999997  0.24657000000000007  0.48899  1.0000
  C   C48       1.0  0.68805  0.6291000000000002  0.30396  1.0000
  C   C49       1.0  0.36352  0.7491  0.66668  1.0000
  C   C50       1.0  0.43579  0.39820000000000005  0.70823  1.0000
  C   C51       1.0  0.8359099999999999  0.9411400000000002  0.24703  1.0000
  C   C52       1.0  0.9634499999999999  0.25744000000000006  0.96364  1.0000
  C   C53       1.0  0.05668000000000001  0.9731200000000001  0.76338  1.0000
  C   C54       1.0  0.47349  0.7788600000000002  0.7430199999999999  1.0000
  C   C55       1.0  0.56996  0.6774200000000001  0.81432  1.0000
  C   C56       1.0  0.08007  0.25343  0.989  1.0000
  C   C57       1.0  0.93187  0.7114  0.11209  1.0000
  C   C58       1.0  0.01156000000000001  0.4521400000000001  0.47877  1.0000
  C   C59       1.0  0.06993  0.29392  0.8384599999999999  1.0000
  C   C60       1.0  0.16839  0.9001800000000002  0.79529  1.0000
  C   C61       1.0  0.6387899999999999  0.2559  0.38286  1.0000
  C   C62       1.0  0.46455  0.5904400000000001  0.80587  1.0000
  C   C63       1.0  0.33235  0.39222000000000007  0.23434  1.0000
  C   C64       1.0  0.65263  0.24565000000000006  0.48968  1.0000
  C   C65       1.0  0.22451000000000002  0.7456500000000003  0.43271  1.0000
  C   C66       1.0  0.4394799999999999  0.47544  0.24279  1.0000
  C   C67       1.0  0.56052  0.5245600000000001  0.75722  1.0000
  C   C68       1.0  0.4323199999999999  0.37584  0.20483  1.0000
  C   C69       1.0  0.1388  0.7559  0.11713999999999998  1.0000
  C   C70       1.0  0.06421  0.10180000000000003  0.20823  1.0000
  C   C71       1.0  0.43007  0.20608000000000004  0.33845  1.0000
  C   C72       1.0  0.8635099999999999  0.24910000000000002  0.83333  1.0000
  C   C73       1.0  0.53552  0.9114900000000002  0.94034  1.0000
  C   C74       1.0  0.21119  0.62483  0.31111  1.0000
  C   C75       1.0  0.17143999999999998  0.9488100000000003  0.77542  1.0000
  C   C76       1.0  0.46345  0.75743  0.53636  1.0000
  C   C77       1.0  0.9323199999999998  0.87584  0.29517  1.0000
  C   C78       1.0  0.67144  0.4488100000000001  0.72458  1.0000
  C   C79       1.0  0.56993  0.79392  0.66155  1.0000
  C   C80       1.0  0.83162  0.09981000000000002  0.20471  1.0000
  C   C81       1.0  0.93859  0.9471600000000002  0.77255  1.0000
  C   C82       1.0  0.06142  0.05284000000000001  0.22745  1.0000
  C   C83       1.0  0.15263  0.7456500000000003  0.01032  1.0000
  C   C84       1.0  0.56769  0.62416  0.79517  1.0000
  C   C85       1.0  0.48843999999999993  0.04786000000000001  0.97877  1.0000
  C   C86       1.0  0.49384  0.9946900000000002  0.04982  1.0000
  C   C87       1.0  0.05053  0.87449  0.80273  1.0000
  C   C88       1.0  0.71119  0.12483000000000002  0.18888999999999997  1.0000
  C   C89       1.0  0.70531  0.7407200000000002  0.43479  1.0000
  C   C90       1.0  0.006159999999999996  0.50531  0.54982  1.0000
  C   C91       1.0  0.9300499999999999  0.8225800000000002  0.31432  1.0000
  C   C92       1.0  0.31195  0.37089  0.69604  1.0000
  C   C93       1.0  0.46101999999999993  0.54146  0.78722  1.0000
  C   C94       1.0  0.56421  0.6018  0.2917699999999999  1.0000
  C   C95       1.0  0.53199  0.22599000000000002  0.31056  1.0000
  C   C96       1.0  0.34737  0.7543400000000001  0.51032  1.0000
  C   C97       1.0  0.94333  0.026880000000000008  0.23662  1.0000
  C   C98       1.0  0.55668  0.47312  0.73662  1.0000
  C   C99       1.0  0.52651  0.22114000000000006  0.25699  1.0000
  C   C100      1.0  0.48221  0.04277  0.028749999999999998  1.0000
  C   C101      1.0  0.026510000000000016  0.7211400000000002  0.24301  1.0000
  C   C102      1.0  0.8285599999999999  0.05119000000000001  0.22458  1.0000
  C   C103      1.0  0.9394799999999999  0.9754400000000001  0.25722  1.0000
  C   C104      1.0  0.017790000000000004  0.45722000000000007  0.52875  1.0000
  C   C105      1.0  0.6364899999999999  0.25089  0.33332  1.0000
  C   C106      1.0  0.43857999999999997  0.4471600000000001  0.72745  1.0000
  C   C107      1.0  0.53898  0.4585400000000001  0.21278  1.0000
  C   C108      1.0  0.36121  0.7441  0.61714  1.0000
  C   C109      1.0  0.46449  0.08851000000000003  0.05966  1.0000
  C   C110      1.0  0.03552000000000001  0.41149000000000013  0.55966  1.0000
  C   C111      1.0  0.03654999999999999  0.74256  0.03636  1.0000
  C   C112      1.0  0.53616  0.23652000000000006  0.41129  1.0000
  C   C113      1.0  0.9638399999999999  0.26348  0.91129  1.0000
  C   C114      1.0  0.7245  0.24565000000000006  0.0673  1.0000
  C   C115      1.0  0.06813  0.28859000000000007  0.88791  1.0000
  C   C116      1.0  0.51156  0.95214  0.02123  1.0000
  C   C117      1.0  0.44947  0.62551  0.30272999999999994  1.0000
  C   C118      1.0  0.4318699999999999  0.21140000000000006  0.38791  1.0000
  C   C119      1.0  0.2755  0.7543500000000002  0.93271  1.0000
  C   C120      1.0  0.44333  0.52688  0.26338  1.0000
  C   C121      1.0  0.34786  0.7497500000000002  0.46055  1.0000
  C   C122      1.0  0.18804999999999997  0.12911  0.19604  1.0000
  C   C123      1.0  0.94947  0.12551  0.19727  1.0000
  C   C124      1.0  0.79469  0.7592700000000002  0.93479  1.0000
  C   C125      1.0  0.9822099999999999  0.54277  0.47125  1.0000
  C   C126      1.0  0.46497999999999995  0.7472  0.43594  1.0000
  C   C127      1.0  0.93007  0.70607  0.16155  1.0000
  C   C128      1.0  0.6641  0.5588500000000001  0.74704  1.0000
  C   C129      1.0  0.32857  0.55119  0.27542  1.0000
  C   C130      1.0  0.036170000000000015  0.7365200000000002  0.08871000000000001  1.0000
  C   C131      1.0  0.53502  0.2528  0.56406  1.0000
  C   C132      1.0  0.16409  0.05885000000000001  0.7529699999999999  1.0000
  C   C133      1.0  0.035450000000000016  0.9095600000000001  0.30587  1.0000
  C   C134      1.0  0.96455  0.09044  0.6941399999999999  1.0000
  C   C135      1.0  0.8119499999999998  0.8708900000000002  0.80396  1.0000
  C   C136      1.0  0.06995  0.17742000000000002  0.68568  1.0000
  O   O1        1.0  0.62341  0.23255  0.0438  1.0000
  O   O2        1.0  0.0389  0.3685300000000001  0.5382  1.0000
  O   O3        1.0  0.32901  0.2954000000000001  0.19544000000000003  1.0000
  O   O4        1.0  0.82901  0.7954  0.30456  1.0000
  O   O5        1.0  0.62364  0.23996000000000006  0.23378  1.0000
  O   O6        1.0  0.39603999999999995  0.8985500000000002  0.80221  1.0000
  O   O7        1.0  0.19619  0.26982  0.53992  1.0000
  O   O8        1.0  0.2665699999999999  0.74492  0.88816  1.0000
  O   O9        1.0  0.22634  0.6665200000000001  0.33338  1.0000
  O   O10       1.0  0.60396  0.10145  0.19779  1.0000
  O   O11       1.0  0.73343  0.25508  0.11184  1.0000
  O   O12       1.0  0.72634  0.16652  0.16662  1.0000
  O   O13       1.0  0.12340999999999999  0.7325500000000001  0.4562  1.0000
  O   O14       1.0  0.76657  0.24492000000000005  0.6118399999999999  1.0000
  O   O15       1.0  0.46016999999999997  0.19466  0.13639  1.0000
  O   O16       1.0  0.45453  0.08067  0.10457  1.0000
  O   O17       1.0  0.92851  0.69954  0.26153  1.0000
  O   O18       1.0  0.31846999999999986  0.32304  0.6905699999999999  1.0000
  O   O19       1.0  0.87659  0.2674500000000001  0.5438  1.0000
  O   O20       1.0  0.68153  0.67696  0.30944  1.0000
  O   O21       1.0  0.78649  0.60192  0.30895  1.0000
  O   O22       1.0  0.28649  0.10192000000000002  0.19104999999999997  1.0000
  O   O23       1.0  0.3765899999999999  0.7674400000000002  0.9562  1.0000
  O   O24       1.0  0.8184799999999999  0.82304  0.80944  1.0000
  O   O25       1.0  0.025970000000000017  0.8081700000000003  0.33811  1.0000
  O   O26       1.0  0.46109999999999995  0.13146000000000002  0.0382  1.0000
  O   O27       1.0  0.20096999999999998  0.24523000000000006  0.11029  1.0000
  O   O28       1.0  0.07149  0.30045  0.73847  1.0000
  O   O29       1.0  0.5389  0.86853  0.96181  1.0000
  O   O30       1.0  0.10395999999999998  0.60145  0.30221  1.0000
  O   O31       1.0  0.71352  0.89808  0.80895  1.0000
  O   O32       1.0  0.03983  0.30534  0.63639  1.0000
  O   O33       1.0  0.5398299999999999  0.80534  0.86362  1.0000
  O   O34       1.0  0.21352  0.3980800000000001  0.69105  1.0000
  O   O35       1.0  0.18152999999999997  0.17696  0.19055999999999998  1.0000
  O   O36       1.0  0.87636  0.26004  0.73378  1.0000
  O   O37       1.0  0.9601699999999999  0.69465  0.36362  1.0000
  O   O38       1.0  0.67099  0.7046  0.80456  1.0000
  O   O39       1.0  0.80381  0.73018  0.46008  1.0000
  O   O40       1.0  0.29903  0.25476  0.61029  1.0000
  O   O41       1.0  0.69619  0.76982  0.96008  1.0000
  O   O42       1.0  0.54548  0.9193300000000001  0.89543  1.0000
  O   O43       1.0  0.47404  0.6918300000000001  0.83811  1.0000
  O   O44       1.0  0.30380999999999997  0.23018000000000005  0.03992  1.0000
  O   O45       1.0  0.5259699999999999  0.30817  0.16189  1.0000
  O   O46       1.0  0.9545299999999999  0.58067  0.39543  1.0000
  O   O47       1.0  0.42851  0.19955000000000006  0.23847  1.0000
  O   O48       1.0  0.5715  0.80045  0.76154  1.0000
  O   O49       1.0  0.77366  0.3334800000000001  0.66662  1.0000
  O   O50       1.0  0.79904  0.7547600000000002  0.88971  1.0000
  O   O51       1.0  0.23343  0.75508  0.38816  1.0000
  O   O52       1.0  0.12364  0.73996  0.26622  1.0000
  O   O53       1.0  0.3763599999999999  0.76004  0.7662199999999999  1.0000
  O   O54       1.0  0.70097  0.7452300000000002  0.38971  1.0000
  O   O55       1.0  0.9740299999999998  0.19183000000000006  0.6618899999999999  1.0000
  O   O56       1.0  0.17099  0.2046  0.6954499999999999  1.0000
  O   O57       1.0  0.9610999999999998  0.63146  0.46181  1.0000
  O   O58       1.0  0.27366  0.8334800000000002  0.83338  1.0000
  O   O59       1.0  0.04548  0.4193300000000001  0.60457  1.0000
  O   O60       1.0  0.8960399999999998  0.39855000000000007  0.69779  1.0000
