data_image0
_chemical_formula_structural       Cd6H72C108S6N18O24
_chemical_formula_sum              "Cd6 H72 C108 S6 N18 O24"
_cell_length_a       10.074
_cell_length_b       13.06962
_cell_length_c       24.39417
_cell_angle_alpha    85.36512
_cell_angle_beta     84.88336999999999
_cell_angle_gamma    80.97453

_symmetry_space_group_name_H-M    'P 1'
_symmetry_Int_Tables_number       1

loop_
  _symmetry_equiv_pos_as_xyz
  'x,y,z'

loop_
  _atom_site_type_symbol
  _atom_site_label
  _atom_site_symmetry_multiplicity
  _atom_site_fract_x
  _atom_site_fract_y
  _atom_site_fract_z
  _atom_site_occupancy
  Cd  Cd1       1.0  0.3580300000000001  0.54376  0.5839  1.0000
  Cd  Cd2       1.0  0.06514000000000006  0.41106  0.57714  1.0000
  Cd  Cd3       1.0  0.8497500000000002  0.6779700000000001  0.60507  1.0000
  Cd  Cd4       1.0  0.64199  0.45624  0.4161000000000001  1.0000
  Cd  Cd5       1.0  0.9348699999999999  0.58894  0.42286000000000007  1.0000
  Cd  Cd6       1.0  0.15027  0.32203  0.39493  1.0000
  H   H1        1.0  0.12740000000000004  0.04536000000000002  0.79963  1.0000
  H   H2        1.0  0.19762000000000005  0.05675000000000001  0.89346  1.0000
  H   H3        1.0  0.59905  0.9098299999999999  0.8427000000000002  1.0000
  H   H4        1.0  0.52895  0.90344  0.74765  1.0000
  H   H5        1.0  0.43379  0.76618  0.56683  1.0000
  H   H6        1.0  0.39153000000000004  0.9381699999999998  0.60772  1.0000
  H   H7        1.0  0.25544000000000006  0.78201  0.76056  1.0000
  H   H8        1.0  0.29623  0.61787  0.71234  1.0000
  H   H9        1.0  0.20471000000000003  0.32584  0.6869  1.0000
  H   H10       1.0  0.29621000000000003  0.16514  0.74028  1.0000
  H   H11       1.0  0.15186000000000002  0.99347  0.61865  1.0000
  H   H12       1.0  0.07448999999999999  0.16241000000000003  0.56916  1.0000
  H   H13       1.0  0.8640599999999999  0.09780000000000001  0.87241  1.0000
  H   H14       1.0  0.75507  0.042269999999999995  0.79437  1.0000
  H   H15       1.0  0.8630099999999998  0.30758  0.6929100000000002  1.0000
  H   H16       1.0  0.96866  0.36407000000000006  0.7695800000000002  1.0000
  H   H17       1.0  0.4263899999999999  0.37787000000000004  0.9824400000000002  1.0000
  H   H18       1.0  0.54027  0.4282500000000001  0.06061000000000001  1.0000
  H   H19       1.0  0.15654999999999997  0.4854100000000001  0.15505  1.0000
  H   H20       1.0  0.042379999999999994  0.43761000000000005  0.07685  1.0000
  H   H21       1.0  0.38125999999999993  0.41012  0.69676  1.0000
  H   H22       1.0  0.5212500000000001  0.25638  0.7427  1.0000
  H   H23       1.0  0.7589599999999999  0.2199200000000001  0.58696  1.0000
  H   H24       1.0  0.61253  0.37341  0.54818  1.0000
  H   H25       1.0  0.64683  0.8909100000000002  0.58766  1.0000
  H   H26       1.0  0.59063  0.06726999999999998  0.62352  1.0000
  H   H27       1.0  0.9495700000000001  0.99353  0.71325  1.0000
  H   H28       1.0  0.9869600000000002  0.81942  0.67452  1.0000
  H   H29       1.0  0.27749  0.22244  0.27719  1.0000
  H   H30       1.0  0.35824  0.28795000000000004  0.18348000000000006  1.0000
  H   H31       1.0  0.39441  0.57339  0.25429  1.0000
  H   H32       1.0  0.3187499999999999  0.49357  0.34552  1.0000
  H   H33       1.0  0.4872099999999999  0.81788  0.10647000000000001  1.0000
  H   H34       1.0  0.35821  0.66989  0.10458  1.0000
  H   H35       1.0  0.6576900000000001  0.4857  0.20264000000000004  1.0000
  H   H36       1.0  0.7733000000000001  0.63928  0.20027  1.0000
  H   H37       1.0  0.87261  0.9546400000000003  0.20037  1.0000
  H   H38       1.0  0.80239  0.94325  0.10654000000000001  1.0000
  H   H39       1.0  0.40096000000000004  0.09017  0.1573  1.0000
  H   H40       1.0  0.47106  0.09656  0.25235  1.0000
  H   H41       1.0  0.56622  0.23382  0.43317  1.0000
  H   H42       1.0  0.60848  0.061829999999999996  0.39228000000000013  1.0000
  H   H43       1.0  0.74457  0.21799  0.23944  1.0000
  H   H44       1.0  0.7037900000000001  0.3821400000000001  0.28766  1.0000
  H   H45       1.0  0.79531  0.67416  0.31310000000000004  1.0000
  H   H46       1.0  0.7037999999999999  0.83486  0.25972  1.0000
  H   H47       1.0  0.8481500000000001  0.0065299999999999855  0.38135000000000013  1.0000
  H   H48       1.0  0.92552  0.8375900000000001  0.4308400000000001  1.0000
  H   H49       1.0  0.13595  0.9022  0.12759  1.0000
  H   H50       1.0  0.24493999999999996  0.95773  0.20564  1.0000
  H   H51       1.0  0.13701  0.69242  0.30709  1.0000
  H   H52       1.0  0.03135000000000002  0.63593  0.23042  1.0000
  H   H53       1.0  0.57362  0.62213  0.01756  1.0000
  H   H54       1.0  0.45974000000000004  0.57175  0.93939  1.0000
  H   H55       1.0  0.8434700000000002  0.5145900000000002  0.84495  1.0000
  H   H56       1.0  0.9576399999999999  0.56239  0.9231500000000001  1.0000
  H   H57       1.0  0.6187500000000001  0.5898800000000001  0.30324  1.0000
  H   H58       1.0  0.47877000000000003  0.74362  0.2573  1.0000
  H   H59       1.0  0.24104999999999996  0.7800800000000001  0.41304  1.0000
  H   H60       1.0  0.3874900000000001  0.62659  0.45182000000000005  1.0000
  H   H61       1.0  0.35319  0.10909000000000002  0.41234  1.0000
  H   H62       1.0  0.4093800000000001  0.9327300000000002  0.37648  1.0000
  H   H63       1.0  0.05044000000000001  0.0064699999999999975  0.28675  1.0000
  H   H64       1.0  0.013059999999999985  0.18058  0.32548000000000005  1.0000
  H   H65       1.0  0.7225199999999999  0.77756  0.72281  1.0000
  H   H66       1.0  0.64178  0.71205  0.81653  1.0000
  H   H67       1.0  0.60561  0.4266200000000002  0.74571  1.0000
  H   H68       1.0  0.68127  0.50643  0.65448  1.0000
  H   H69       1.0  0.5128000000000001  0.18212  0.89353  1.0000
  H   H70       1.0  0.6418  0.33011  0.89542  1.0000
  H   H71       1.0  0.34232  0.5143  0.79736  1.0000
  H   H72       1.0  0.22672000000000003  0.36071999999999993  0.7997300000000002  1.0000
  C   C1        1.0  0.44373  0.9894299999999999  0.9283900000000003  1.0000
  C   C2        1.0  0.4801699999999999  0.9962100000000002  0.97465  1.0000
  C   C3        1.0  0.3237900000000001  0.9727400000000003  0.76799  1.0000
  C   C4        1.0  0.23020000000000002  0.015049999999999989  0.80928  1.0000
  C   C5        1.0  0.26941  0.02119999999999997  0.8619900000000003  1.0000
  C   C6        1.0  0.4029600000000001  0.98266  0.87507  1.0000
  C   C7        1.0  0.49584999999999996  0.93888  0.8331500000000001  1.0000
  C   C8        1.0  0.45682999999999996  0.9348400000000002  0.7802100000000001  1.0000
  C   C9        1.0  0.3927599999999999  0.77358  0.60937  1.0000
  C   C10       1.0  0.3697599999999999  0.86905  0.63249  1.0000
  C   C11       1.0  0.31694000000000006  0.87478  0.6875300000000001  1.0000
  C   C12       1.0  0.2948099999999999  0.78201  0.7176000000000002  1.0000
  C   C13       1.0  0.31934999999999997  0.6900500000000002  0.69096  1.0000
  C   C14       1.0  0.19708000000000003  0.2502299999999999  0.67301  1.0000
  C   C15       1.0  0.24797000000000008  0.15988  0.7027300000000001  1.0000
  C   C16       1.0  0.23566  0.06344000000000001  0.68362  1.0000
  C   C17       1.0  0.16897000000000004  0.06471000000000003  0.63506  1.0000
  C   C18       1.0  0.12413000000000009  0.15918999999999997  0.6073  1.0000
  C   C19       1.0  0.9853800000000003  0.26772  0.8706  1.0000
  C   C20       1.0  0.04119  0.30023999999999995  0.90699  1.0000
  C   C21       1.0  0.10390000000000005  0.3358900000000001  0.94637  1.0000
  C   C22       1.0  0.16211  0.36852  0.9820200000000001  1.0000
  C   C23       1.0  0.92422  0.23445999999999997  0.82675  1.0000
  C   C24       1.0  0.8643200000000001  0.14274  0.83289  1.0000
  C   C25       1.0  0.8039800000000001  0.11130999999999998  0.78928  1.0000
  C   C26       1.0  0.8031900000000001  0.17044000000000006  0.73863  1.0000
  C   C27       1.0  0.86253  0.2612900000000001  0.7320700000000001  1.0000
  C   C28       1.0  0.92229  0.29348  0.77552  1.0000
  C   C29       1.0  0.22684000000000004  0.40237  0.02467  1.0000
  C   C30       1.0  0.36785  0.40241  0.02006  1.0000
  C   C31       1.0  0.43145000000000006  0.43039  0.06371000000000002  1.0000
  C   C32       1.0  0.3557600000000001  0.45862  0.11272000000000001  1.0000
  C   C33       1.0  0.21514  0.46196000000000004  0.11722000000000002  1.0000
  C   C34       1.0  0.15129  0.43432  0.07370000000000002  1.0000
  C   C35       1.0  0.4661  0.36538  0.67434  1.0000
  C   C36       1.0  0.54282  0.27976999999999996  0.6994000000000001  1.0000
  C   C37       1.0  0.6498400000000003  0.22552000000000003  0.66786  1.0000
  C   C38       1.0  0.67431  0.2575700000000001  0.61246  1.0000
  C   C39       1.0  0.59348  0.345  0.59075  1.0000
  C   C40       1.0  0.7099800000000003  0.9171  0.61605  1.0000
  C   C41       1.0  0.67944  0.015119999999999977  0.6360000000000001  1.0000
  C   C42       1.0  0.7647999999999999  0.045569999999999965  0.6725600000000003  1.0000
  C   C43       1.0  0.8785500000000002  0.97366  0.6863800000000001  1.0000
  C   C44       1.0  0.90058  0.8771900000000001  0.6645500000000002  1.0000
  C   C45       1.0  0.30718  0.29928  0.27061  1.0000
  C   C46       1.0  0.35151  0.3359500000000001  0.21827  1.0000
  C   C47       1.0  0.3845200000000001  0.43709  0.21109  1.0000
  C   C48       1.0  0.37409  0.49411  0.25785  1.0000
  C   C49       1.0  0.33055000000000007  0.45065  0.30864  1.0000
  C   C50       1.0  0.52259  0.74281  0.12733  1.0000
  C   C51       1.0  0.45060000000000006  0.6600900000000001  0.12568000000000001  1.0000
  C   C52       1.0  0.4963000000000001  0.56565  0.15439  1.0000
  C   C53       1.0  0.6158799999999999  0.5579  0.18091000000000002  1.0000
  C   C54       1.0  0.68029  0.64506  0.17971  1.0000
  C   C55       1.0  0.55628  0.01057  0.0716  1.0000
  C   C56       1.0  0.51985  0.0037900000000000004  0.02535  1.0000
  C   C57       1.0  0.67622  0.027259999999999996  0.23201  1.0000
  C   C58       1.0  0.76981  0.98495  0.19072  1.0000
  C   C59       1.0  0.7305999999999999  0.9788  0.13801  1.0000
  C   C60       1.0  0.59705  0.017340000000000008  0.12493  1.0000
  C   C61       1.0  0.50416  0.06112000000000001  0.16685000000000003  1.0000
  C   C62       1.0  0.54318  0.06516  0.21979  1.0000
  C   C63       1.0  0.60725  0.22642  0.39064000000000004  1.0000
  C   C64       1.0  0.63025  0.13094999999999998  0.3675200000000001  1.0000
  C   C65       1.0  0.68307  0.12522000000000005  0.31247  1.0000
  C   C66       1.0  0.7052100000000001  0.21799  0.2824  1.0000
  C   C67       1.0  0.68066  0.30995000000000006  0.30904000000000004  1.0000
  C   C68       1.0  0.80293  0.74977  0.32699  1.0000
  C   C69       1.0  0.75205  0.8401300000000002  0.29727  1.0000
  C   C70       1.0  0.7643600000000002  0.9365600000000001  0.31638  1.0000
  C   C71       1.0  0.8310500000000001  0.9352900000000001  0.36494000000000004  1.0000
  C   C72       1.0  0.8758900000000001  0.84082  0.3927000000000001  1.0000
  C   C73       1.0  0.014629999999999992  0.73228  0.1294  1.0000
  C   C74       1.0  0.9588200000000002  0.69976  0.09302000000000002  1.0000
  C   C75       1.0  0.89611  0.66411  0.05363  1.0000
  C   C76       1.0  0.8379  0.63148  0.01798  1.0000
  C   C77       1.0  0.07579  0.7655400000000001  0.17325  1.0000
  C   C78       1.0  0.13569  0.8572600000000002  0.16711000000000004  1.0000
  C   C79       1.0  0.19602999999999998  0.88869  0.21072  1.0000
  C   C80       1.0  0.19682999999999998  0.82956  0.26137  1.0000
  C   C81       1.0  0.13748  0.73871  0.26793  1.0000
  C   C82       1.0  0.07771999999999998  0.70652  0.22448  1.0000
  C   C83       1.0  0.77318  0.59763  0.97534  1.0000
  C   C84       1.0  0.63217  0.59759  0.97994  1.0000
  C   C85       1.0  0.5685700000000004  0.5696099999999997  0.93629  1.0000
  C   C86       1.0  0.6442600000000002  0.54138  0.88728  1.0000
  C   C87       1.0  0.7848800000000001  0.53804  0.8827800000000001  1.0000
  C   C88       1.0  0.8487199999999999  0.5656800000000002  0.9263  1.0000
  C   C89       1.0  0.53392  0.6346200000000002  0.32566  1.0000
  C   C90       1.0  0.4572000000000002  0.72024  0.30060000000000003  1.0000
  C   C91       1.0  0.3501699999999999  0.77448  0.33214  1.0000
  C   C92       1.0  0.32569999999999993  0.74244  0.38754  1.0000
  C   C93       1.0  0.40653  0.655  0.40925  1.0000
  C   C94       1.0  0.29003000000000007  0.08290000000000002  0.38395000000000007  1.0000
  C   C95       1.0  0.32057  0.98488  0.364  1.0000
  C   C96       1.0  0.23522000000000007  0.95443  0.32744  1.0000
  C   C97       1.0  0.12147000000000001  0.02634  0.31362  1.0000
  C   C98       1.0  0.09943999999999999  0.12281000000000002  0.33545  1.0000
  C   C99       1.0  0.6928299999999998  0.7007200000000001  0.72939  1.0000
  C   C100      1.0  0.6485100000000001  0.66405  0.7817300000000001  1.0000
  C   C101      1.0  0.6155  0.56291  0.78891  1.0000
  C   C102      1.0  0.6259200000000001  0.50589  0.74215  1.0000
  C   C103      1.0  0.6694600000000002  0.54935  0.6913700000000002  1.0000
  C   C104      1.0  0.47742  0.25719  0.8726700000000001  1.0000
  C   C105      1.0  0.54941  0.33991  0.87432  1.0000
  C   C106      1.0  0.5037200000000002  0.43434999999999985  0.8456100000000002  1.0000
  C   C107      1.0  0.38413  0.4421  0.81909  1.0000
  C   C108      1.0  0.31973  0.35494  0.82029  1.0000
  S   S1        1.0  0.06304000000000005  0.52878  0.6825  1.0000
  S   S2        1.0  0.08693000000000002  0.67743  0.51709  1.0000
  S   S3        1.0  0.33298999999999995  0.38332999999999995  0.47656  1.0000
  S   S4        1.0  0.9369799999999999  0.47122  0.3175  1.0000
  S   S5        1.0  0.91308  0.32257  0.48291  1.0000
  S   S6        1.0  0.6670200000000001  0.61667  0.52344  1.0000
  N   N1        1.0  0.28654999999999997  0.9703600000000002  0.7128400000000001  1.0000
  N   N2        1.0  0.36676000000000003  0.68505  0.63771  1.0000
  N   N3        1.0  0.13780000000000003  0.25152  0.62555  1.0000
  N   N4        1.0  0.73678  0.14265  0.69393  1.0000
  N   N5        1.0  0.49128000000000005  0.39836000000000005  0.62117  1.0000
  N   N6        1.0  0.8172799999999998  0.84795  0.63035  1.0000
  N   N7        1.0  0.42208  0.48109  0.15865  1.0000
  N   N8        1.0  0.29625999999999997  0.35453000000000007  0.3156  1.0000
  N   N9        1.0  0.6344600000000001  0.7378600000000001  0.15439  1.0000
  N   N10       1.0  0.71346  0.029640000000000007  0.28716  1.0000
  N   N11       1.0  0.63325  0.31495  0.36229  1.0000
  N   N12       1.0  0.86221  0.7484800000000001  0.37445  1.0000
  N   N13       1.0  0.2632399999999999  0.85735  0.30607  1.0000
  N   N14       1.0  0.5087300000000001  0.60164  0.37883  1.0000
  N   N15       1.0  0.18274000000000004  0.15204999999999996  0.36965  1.0000
  N   N16       1.0  0.5779300000000002  0.51892  0.84135  1.0000
  N   N17       1.0  0.70376  0.64547  0.6844000000000002  1.0000
  N   N18       1.0  0.3655599999999999  0.26214999999999994  0.8456100000000002  1.0000
  O   O1        1.0  0.1965  0.49035  0.64975  1.0000
  O   O2        1.0  0.96018  0.4703500000000001  0.66127  1.0000
  O   O3        1.0  0.02226  0.64328  0.66944  1.0000
  O   O4        1.0  0.07917000000000007  0.50406  0.74196  1.0000
  O   O5        1.0  0.23215  0.6661  0.52816  1.0000
  O   O6        1.0  0.019199999999999953  0.58623  0.5446700000000001  1.0000
  O   O7        1.0  0.008250000000000009  0.77353  0.53849  1.0000
  O   O8        1.0  0.08004000000000001  0.67672  0.45542  1.0000
  O   O9        1.0  0.27304000000000006  0.4189  0.53337  1.0000
  O   O10       1.0  0.2656299999999999  0.45149  0.43146  1.0000
  O   O11       1.0  0.31246  0.27348  0.4718100000000001  1.0000
  O   O12       1.0  0.47946  0.39318  0.4752  1.0000
  O   O13       1.0  0.8035099999999998  0.50965  0.35025  1.0000
  O   O14       1.0  0.039830000000000004  0.52965  0.33873  1.0000
  O   O15       1.0  0.97776  0.35672000000000004  0.33056  1.0000
  O   O16       1.0  0.9208400000000002  0.49594  0.25804  1.0000
  O   O17       1.0  0.7678599999999998  0.3339  0.47184  1.0000
  O   O18       1.0  0.9808100000000001  0.41377  0.45533  1.0000
  O   O19       1.0  0.9917700000000002  0.22647000000000003  0.4615200000000001  1.0000
  O   O20       1.0  0.9199700000000002  0.32328000000000007  0.54458  1.0000
  O   O21       1.0  0.72697  0.5811  0.4666300000000001  1.0000
  O   O22       1.0  0.73438  0.5485099999999999  0.56854  1.0000
  O   O23       1.0  0.68755  0.7265200000000002  0.52819  1.0000
  O   O24       1.0  0.52055  0.60682  0.5248  1.0000
