data_image0
_chemical_formula_structural       Co12H96C168S12O72
_chemical_formula_sum              "Co12 H96 C168 S12 O72"
_cell_length_a       16.3025
_cell_length_b       17.0108
_cell_length_c       20.706
_cell_angle_alpha    90.07627000000001
_cell_angle_beta     89.99504
_cell_angle_gamma    100.62363000000002

_symmetry_space_group_name_H-M    'P 1'
_symmetry_Int_Tables_number       1

loop_
  _symmetry_equiv_pos_as_xyz
  'x,y,z'

loop_
  _atom_site_type_symbol
  _atom_site_label
  _atom_site_symmetry_multiplicity
  _atom_site_fract_x
  _atom_site_fract_y
  _atom_site_fract_z
  _atom_site_occupancy
  Co  Co1       1.0  0.02726000000000001  0.25370000000000004  0.67252  1.0000
  Co  Co2       1.0  0.10443  0.41678  0.63673  1.0000
  Co  Co3       1.0  0.9102299999999998  0.06583  0.65381  1.0000
  Co  Co4       1.0  0.47185  0.24545  0.17212  1.0000
  Co  Co5       1.0  0.39489999999999986  0.08337  0.13663  1.0000
  Co  Co6       1.0  0.5896099999999999  0.43373  0.15403999999999998  1.0000
  Co  Co7       1.0  0.97306  0.74557  0.32632999999999995  1.0000
  Co  Co8       1.0  0.89641  0.5836  0.36289999999999994  1.0000
  Co  Co9       1.0  0.08969000000000002  0.9341800000000002  0.34657  1.0000
  Co  Co10      1.0  0.5274899999999998  0.7555800000000003  0.8277099999999998  1.0000
  Co  Co11      1.0  0.60486  0.91674  0.86318  1.0000
  Co  Co12      1.0  0.4102399999999999  0.5675700000000002  0.8465  1.0000
  H   H1        1.0  0.015530000000000013  0.20682000000000006  0.50034  1.0000
  H   H2        1.0  0.9745899999999997  0.15213  0.3897799999999999  1.0000
  H   H3        1.0  0.95856  0.39019  0.32513  1.0000
  H   H4        1.0  0.0002500000000000017  0.44399  0.43536  1.0000
  H   H5        1.0  0.008789999999999996  0.08581  0.24727999999999994  1.0000
  H   H6        1.0  0.15078  0.06316  0.21620999999999996  1.0000
  H   H7        1.0  0.24225999999999998  0.31709  0.21616  1.0000
  H   H8        1.0  0.10028  0.34045  0.24663  1.0000
  H   H9        1.0  0.028309999999999984  0.24579999999999996  0.8489299999999999  1.0000
  H   H10       1.0  0.02995  0.25839  0.96895  1.0000
  H   H11       1.0  0.89812  0.01488  0.98443  1.0000
  H   H12       1.0  0.8960799999999998  0.00294  0.8642  1.0000
  H   H13       1.0  0.93272  0.31111000000000005  0.05368  1.0000
  H   H14       1.0  0.80928  0.37171  0.07918999999999998  1.0000
  H   H15       1.0  0.6729799999999998  0.14202  0.13848  1.0000
  H   H16       1.0  0.80001  0.0812  0.11692999999999998  1.0000
  H   H17       1.0  0.08712  0.95192  0.53235  1.0000
  H   H18       1.0  0.22986999999999994  0.94087  0.49291  1.0000
  H   H19       1.0  0.32617  0.17832000000000003  0.5652699999999999  1.0000
  H   H20       1.0  0.18195000000000003  0.18932  0.60276  1.0000
  H   H21       1.0  0.3745  0.88366  0.5564699999999999  1.0000
  H   H22       1.0  0.42092999999999986  0.83025  0.66039  1.0000
  H   H23       1.0  0.52308  0.07074  0.72142  1.0000
  H   H24       1.0  0.4713699999999999  0.12428000000000002  0.62147  1.0000
  H   H25       1.0  0.4834199999999999  0.2937900000000001  0.00032  1.0000
  H   H26       1.0  0.5248  0.34808  0.88979  1.0000
  H   H27       1.0  0.54129  0.10998  0.8252699999999998  1.0000
  H   H28       1.0  0.49931  0.05641000000000001  0.9353399999999997  1.0000
  H   H29       1.0  0.49064  0.41328  0.74784  1.0000
  H   H30       1.0  0.34907  0.43713000000000013  0.7164  1.0000
  H   H31       1.0  0.2558999999999999  0.18349  0.7156899999999998  1.0000
  H   H32       1.0  0.39745  0.15886  0.74638  1.0000
  H   H33       1.0  0.4709599999999999  0.25262  0.34925  1.0000
  H   H34       1.0  0.4692399999999999  0.24099  0.46930999999999995  1.0000
  H   H35       1.0  0.6015899999999997  0.48444  0.48413  1.0000
  H   H36       1.0  0.6036999999999998  0.49535999999999997  0.36383  1.0000
  H   H37       1.0  0.56696  0.18877  0.55331  1.0000
  H   H38       1.0  0.69008  0.12785  0.5790799999999999  1.0000
  H   H39       1.0  0.82683  0.35754  0.63858  1.0000
  H   H40       1.0  0.70005  0.41865  0.6167299999999999  1.0000
  H   H41       1.0  0.41313999999999995  0.5473900000000003  0.03211  1.0000
  H   H42       1.0  0.27044  0.55835  0.99257  1.0000
  H   H43       1.0  0.17396999999999996  0.32121  0.06511  1.0000
  H   H44       1.0  0.31825  0.31026  0.10261  1.0000
  H   H45       1.0  0.12581  0.61593  0.05573  1.0000
  H   H46       1.0  0.07833999999999999  0.67015  0.15912  1.0000
  H   H47       1.0  0.97705  0.43023  0.22111  1.0000
  H   H48       1.0  0.029090000000000015  0.37575  0.12144  1.0000
  H   H49       1.0  0.98428  0.79319  0.49966  1.0000
  H   H50       1.0  0.02512000000000002  0.8477700000000002  0.61032  1.0000
  H   H51       1.0  0.04127  0.60968  0.6748  1.0000
  H   H52       1.0  0.99945  0.55595  0.5645899999999999  1.0000
  H   H53       1.0  0.9907699999999999  0.91405  0.7525699999999997  1.0000
  H   H54       1.0  0.8488199999999998  0.93676  0.7837799999999999  1.0000
  H   H55       1.0  0.7570500000000001  0.68289  0.7833299999999999  1.0000
  H   H56       1.0  0.89894  0.65941  0.75269  1.0000
  H   H57       1.0  0.9719000000000002  0.7545400000000002  0.15132  1.0000
  H   H58       1.0  0.9696599999999996  0.74159  0.03132  1.0000
  H   H59       1.0  0.10156  0.9851  0.015379999999999996  1.0000
  H   H60       1.0  0.10404999999999998  0.9973499999999998  0.13558  1.0000
  H   H61       1.0  0.06683999999999997  0.6893  0.9470999999999999  1.0000
  H   H62       1.0  0.19043999999999994  0.62859  0.92239  1.0000
  H   H63       1.0  0.3269799999999999  0.85781  0.8623399999999999  1.0000
  H   H64       1.0  0.19997  0.91894  0.8832599999999999  1.0000
  H   H65       1.0  0.91311  0.047090000000000014  0.4687199999999999  1.0000
  H   H66       1.0  0.76993  0.05879  0.50689  1.0000
  H   H67       1.0  0.67385  0.8214200000000002  0.43418999999999996  1.0000
  H   H68       1.0  0.8185399999999998  0.80986  0.39804  1.0000
  H   H69       1.0  0.62587  0.11696  0.4428  1.0000
  H   H70       1.0  0.57844  0.17051  0.33930999999999994  1.0000
  H   H71       1.0  0.47611  0.9300400000000001  0.27815  1.0000
  H   H72       1.0  0.52854  0.87638  0.3777799999999999  1.0000
  H   H73       1.0  0.5166299999999998  0.7064  0.99961  1.0000
  H   H74       1.0  0.47524  0.6520100000000001  0.11011  1.0000
  H   H75       1.0  0.45879999999999993  0.8901000000000002  0.17474  1.0000
  H   H76       1.0  0.50071  0.9437  0.06468  1.0000
  H   H77       1.0  0.50941  0.58657  0.25233  1.0000
  H   H78       1.0  0.6509499999999998  0.56288  0.2839  1.0000
  H   H79       1.0  0.7440499999999998  0.8165700000000002  0.28435999999999995  1.0000
  H   H80       1.0  0.60244  0.84093  0.2535299999999999  1.0000
  H   H81       1.0  0.52882  0.7481  0.65058  1.0000
  H   H82       1.0  0.53062  0.75917  0.53043  1.0000
  H   H83       1.0  0.39863  0.5155  0.5162999999999999  1.0000
  H   H84       1.0  0.39647  0.50516  0.6366699999999998  1.0000
  H   H85       1.0  0.43269999999999975  0.81108  0.44651999999999986  1.0000
  H   H86       1.0  0.3094899999999999  0.8717  0.42031999999999997  1.0000
  H   H87       1.0  0.17318  0.64192  0.36095  1.0000
  H   H88       1.0  0.29965  0.5807900000000001  0.38360999999999995  1.0000
  H   H89       1.0  0.58656  0.45319  0.96767  1.0000
  H   H90       1.0  0.72939  0.4416400000000001  0.00685  1.0000
  H   H91       1.0  0.8263099999999998  0.6787000000000001  0.9343499999999999  1.0000
  H   H92       1.0  0.68198  0.69016  0.8971999999999999  1.0000
  H   H93       1.0  0.8747300000000001  0.3834000000000001  0.9435899999999999  1.0000
  H   H94       1.0  0.92194  0.32933000000000007  0.8401299999999998  1.0000
  H   H95       1.0  0.023150000000000004  0.56949  0.77843  1.0000
  H   H96       1.0  0.97121  0.62375  0.8780799999999999  1.0000
  C   C1        1.0  0.043000000000000003  0.36079  0.5365799999999998  1.0000
  C   C2        1.0  0.011230000000000009  0.3284000000000001  0.4735599999999999  1.0000
  C   C3        1.0  0.00253  0.24578000000000003  0.46152999999999994  1.0000
  C   C4        1.0  0.97977  0.21562000000000006  0.40025  1.0000
  C   C5        1.0  0.96549  0.26864  0.35146  1.0000
  C   C6        1.0  0.97115  0.35043  0.36348  1.0000
  C   C7        1.0  0.9943099999999999  0.38048  0.42485  1.0000
  C   C8        1.0  0.047199999999999985  0.21417  0.24856999999999999  1.0000
  C   C9        1.0  0.06013  0.13585  0.24057999999999996  1.0000
  C   C10       1.0  0.13915  0.12356000000000002  0.22234999999999996  1.0000
  C   C11       1.0  0.20433999999999994  0.18874  0.21278  1.0000
  C   C12       1.0  0.19078  0.26715  0.22264  1.0000
  C   C13       1.0  0.11189  0.28003  0.24002999999999997  1.0000
  C   C14       1.0  0.2878199999999999  0.1753  0.19105  1.0000
  C   C15       1.0  0.96088  0.12346  0.77723  1.0000
  C   C16       1.0  0.9607999999999998  0.12451  0.84917  1.0000
  C   C17       1.0  0.99944  0.19607  0.87906  1.0000
  C   C18       1.0  0.0002699999999999996  0.20308  0.9458499999999999  1.0000
  C   C19       1.0  0.9623399999999998  0.13771  0.9829  1.0000
  C   C20       1.0  0.92498  0.06538  0.95428  1.0000
  C   C21       1.0  0.92419  0.05898000000000001  0.887  1.0000
  C   C22       1.0  0.8723  0.19246  0.08327999999999999  1.0000
  C   C23       1.0  0.8759499999999998  0.27415  0.07207999999999999  1.0000
  C   C24       1.0  0.8062699999999998  0.30792  0.08578  1.0000
  C   C25       1.0  0.73285  0.25998  0.10895  1.0000
  C   C26       1.0  0.73005  0.17798  0.11970999999999998  1.0000
  C   C27       1.0  0.8000399999999998  0.14402  0.10737  1.0000
  C   C28       1.0  0.65784  0.29557  0.12398999999999999  1.0000
  C   C29       1.0  0.04498  0.07536  0.5987  1.0000
  C   C30       1.0  0.12714  0.0708  0.5707099999999999  1.0000
  C   C31       1.0  0.13960999999999998  0.0007599999999999999  0.5392299999999999  1.0000
  C   C32       1.0  0.21895  0.9943899999999999  0.51768  1.0000
  C   C33       1.0  0.28519  0.05817  0.5286699999999999  1.0000
  C   C34       1.0  0.27347  0.12944  0.55808  1.0000
  C   C35       1.0  0.19352999999999995  0.13564  0.5786399999999999  1.0000
  C   C36       1.0  0.42002  0.00648  0.5837799999999999  1.0000
  C   C37       1.0  0.40498  0.92374  0.5937799999999999  1.0000
  C   C38       1.0  0.43167  0.89418  0.65119  1.0000
  C   C39       1.0  0.47436  0.947  0.6974299999999999  1.0000
  C   C40       1.0  0.4885599999999999  0.02976  0.68655  1.0000
  C   C41       1.0  0.4604099999999999  0.06008999999999999  0.6299699999999999  1.0000
  C   C42       1.0  0.50714  0.91384  0.7565699999999997  1.0000
  C   C43       1.0  0.45556  0.1394  0.03639  1.0000
  C   C44       1.0  0.48772  0.17200000000000001  0.9735699999999999  1.0000
  C   C45       1.0  0.49648999999999993  0.2546300000000001  0.9615699999999999  1.0000
  C   C46       1.0  0.5194499999999997  0.28462  0.9003199999999999  1.0000
  C   C47       1.0  0.53376  0.23147  0.8515199999999999  1.0000
  C   C48       1.0  0.52838  0.14979  0.8635699999999998  1.0000
  C   C49       1.0  0.50511  0.11989000000000001  0.92489  1.0000
  C   C50       1.0  0.45133  0.28509  0.7487  1.0000
  C   C51       1.0  0.43896  0.36361  0.7408399999999999  1.0000
  C   C52       1.0  0.36024999999999996  0.37656  0.72247  1.0000
  C   C53       1.0  0.2948  0.31159  0.71272  1.0000
  C   C54       1.0  0.30779  0.23301000000000005  0.7223899999999998  1.0000
  C   C55       1.0  0.38639  0.21949  0.73989  1.0000
  C   C56       1.0  0.21139000000000002  0.32495  0.6909599999999999  1.0000
  C   C57       1.0  0.53891  0.3745  0.27726  1.0000
  C   C58       1.0  0.53877  0.37383  0.3492  1.0000
  C   C59       1.0  0.49992999999999993  0.30256  0.37924  1.0000
  C   C60       1.0  0.49905999999999995  0.29605  0.44603999999999994  1.0000
  C   C61       1.0  0.53721  0.36164  0.4829099999999999  1.0000
  C   C62       1.0  0.57466  0.4337200000000001  0.4541299999999999  1.0000
  C   C63       1.0  0.57547  0.4396  0.38685  1.0000
  C   C64       1.0  0.62755  0.30734  0.58314  1.0000
  C   C65       1.0  0.62377  0.22561  0.5718399999999999  1.0000
  C   C66       1.0  0.69331  0.19171  0.58568  1.0000
  C   C67       1.0  0.76672  0.23958  0.6090399999999999  1.0000
  C   C68       1.0  0.7696999999999998  0.32166  0.6197399999999998  1.0000
  C   C69       1.0  0.69986  0.35575  0.60725  1.0000
  C   C70       1.0  0.84163  0.20396000000000003  0.62431  1.0000
  C   C71       1.0  0.45516  0.42436  0.09871  1.0000
  C   C72       1.0  0.37302999999999986  0.42873  0.07062  1.0000
  C   C73       1.0  0.3606099999999999  0.49861000000000005  0.03903  1.0000
  C   C74       1.0  0.28127  0.50494  0.017459999999999996  1.0000
  C   C75       1.0  0.21503999999999995  0.44118  0.028489999999999998  1.0000
  C   C76       1.0  0.2267299999999999  0.37003  0.05794999999999999  1.0000
  C   C77       1.0  0.3066699999999999  0.36388  0.07851999999999999  1.0000
  C   C78       1.0  0.08031999999999999  0.49328  0.08340999999999997  1.0000
  C   C79       1.0  0.09520000000000005  0.5761100000000002  0.09305  1.0000
  C   C80       1.0  0.06817000000000001  0.60615  0.15016999999999997  1.0000
  C   C81       1.0  0.025610000000000036  0.5536200000000002  0.19649  1.0000
  C   C82       1.0  0.011690000000000002  0.47077  0.1861  1.0000
  C   C83       1.0  0.039899999999999984  0.43999  0.1297  1.0000
  C   C84       1.0  0.9925099999999999  0.5871300000000002  0.25528  1.0000
  C   C85       1.0  0.9570899999999998  0.6392  0.46333  1.0000
  C   C86       1.0  0.9885899999999999  0.67157  0.5264099999999999  1.0000
  C   C87       1.0  0.9972599999999999  0.75418  0.53846  1.0000
  C   C88       1.0  0.019960000000000058  0.7843000000000002  0.59976  1.0000
  C   C89       1.0  0.03428000000000003  0.7312600000000002  0.64851  1.0000
  C   C90       1.0  0.028610000000000003  0.64947  0.63649  1.0000
  C   C91       1.0  0.005440000000000002  0.61945  0.57512  1.0000
  C   C92       1.0  0.95233  0.7857  0.7512299999999997  1.0000
  C   C93       1.0  0.9394199999999998  0.86402  0.75936  1.0000
  C   C94       1.0  0.86043  0.8763500000000001  0.77767  1.0000
  C   C95       1.0  0.7951700000000002  0.8111900000000001  0.78716  1.0000
  C   C96       1.0  0.80865  0.73279  0.7770899999999998  1.0000
  C   C97       1.0  0.8875199999999998  0.71987  0.7596  1.0000
  C   C98       1.0  0.7116799999999998  0.82474  0.8088099999999999  1.0000
  C   C99       1.0  0.0391  0.87679  0.22279999999999997  1.0000
  C   C100      1.0  0.03918  0.87583  0.15083999999999997  1.0000
  C   C101      1.0  0.00047999999999997817  0.80422  0.12103999999999998  1.0000
  C   C102      1.0  0.99936  0.79702  0.05426  1.0000
  C   C103      1.0  0.03714999999999999  0.8624  0.01713  1.0000
  C   C104      1.0  0.07468999999999998  0.93472  0.04566  1.0000
  C   C105      1.0  0.07573  0.94129  0.11292  1.0000
  C   C106      1.0  0.12741  0.80779  0.91713  1.0000
  C   C107      1.0  0.12370999999999999  0.72617  0.92875  1.0000
  C   C108      1.0  0.19349  0.69236  0.91554  1.0000
  C   C109      1.0  0.26698  0.74018  0.8923699999999998  1.0000
  C   C110      1.0  0.2698  0.82209  0.8811699999999999  1.0000
  C   C111      1.0  0.19977  0.85615  0.8931099999999998  1.0000
  C   C112      1.0  0.3419599999999999  0.70451  0.87751  1.0000
  C   C113      1.0  0.9555899999999998  0.9239500000000003  0.40264  1.0000
  C   C114      1.0  0.8731599999999998  0.92835  0.43026999999999993  1.0000
  C   C115      1.0  0.8605100000000001  0.99843  0.46158  1.0000
  C   C116      1.0  0.78092  0.00513  0.48236999999999997  1.0000
  C   C117      1.0  0.71463  0.94156  0.47096  1.0000
  C   C118      1.0  0.7265699999999998  0.87017  0.44177  1.0000
  C   C119      1.0  0.80674  0.8636400000000001  0.42191999999999996  1.0000
  C   C120      1.0  0.58013  0.9940300000000001  0.41538  1.0000
  C   C121      1.0  0.59508  0.07684000000000003  0.40560999999999997  1.0000
  C   C122      1.0  0.56783  0.10654  0.34844  1.0000
  C   C123      1.0  0.52481  0.053780000000000015  0.30231  1.0000
  C   C124      1.0  0.5107999999999998  0.97098  0.31295  1.0000
  C   C125      1.0  0.53939  0.9405500000000002  0.3692699999999999  1.0000
  C   C126      1.0  0.49138999999999994  0.08662000000000002  0.24338  1.0000
  C   C127      1.0  0.54441  0.86071  0.96355  1.0000
  C   C128      1.0  0.51232  0.82814  0.0264  1.0000
  C   C129      1.0  0.50357  0.7455200000000002  0.03838  1.0000
  C   C130      1.0  0.48064  0.71549  0.09962999999999998  1.0000
  C   C131      1.0  0.46635  0.76861  0.14844999999999997  1.0000
  C   C132      1.0  0.47171999999999986  0.85031  0.13643  1.0000
  C   C133      1.0  0.49493999999999994  0.88023  0.07509999999999999  1.0000
  C   C134      1.0  0.54864  0.71477  0.2513599999999999  1.0000
  C   C135      1.0  0.5610699999999997  0.63629  0.25931999999999994  1.0000
  C   C136      1.0  0.6397999999999998  0.62344  0.27774999999999994  1.0000
  C   C137      1.0  0.70529  0.6884  0.28745  1.0000
  C   C138      1.0  0.69224  0.76695  0.2777  1.0000
  C   C139      1.0  0.6136  0.78036  0.26014  1.0000
  C   C140      1.0  0.7887499999999998  0.67493  0.30907  1.0000
  C   C141      1.0  0.46099999999999997  0.6265300000000003  0.7229  1.0000
  C   C142      1.0  0.46114999999999995  0.6268400000000002  0.65095  1.0000
  C   C143      1.0  0.49994  0.69801  0.62071  1.0000
  C   C144      1.0  0.50082  0.7042  0.55387  1.0000
  C   C145      1.0  0.46274999999999994  0.63839  0.51718  1.0000
  C   C146      1.0  0.42541999999999985  0.5664  0.54617  1.0000
  C   C147      1.0  0.4246099999999999  0.56085  0.6134799999999999  1.0000
  C   C148      1.0  0.37229  0.6923  0.4168399999999999  1.0000
  C   C149      1.0  0.37602  0.7740700000000003  0.42792999999999987  1.0000
  C   C150      1.0  0.30651  0.80788  0.41381999999999997  1.0000
  C   C151      1.0  0.23328999999999994  0.76002  0.39020999999999995  1.0000
  C   C152      1.0  0.23024  0.67786  0.37985  1.0000
  C   C153      1.0  0.29998999999999987  0.64379  0.39276  1.0000
  C   C154      1.0  0.15881999999999993  0.7959  0.3742599999999999  1.0000
  C   C155      1.0  0.5447899999999998  0.5761100000000002  0.90115  1.0000
  C   C156      1.0  0.62699  0.57165  0.9290799999999998  1.0000
  C   C157      1.0  0.6392999999999999  0.50174  0.96067  1.0000
  C   C158      1.0  0.71865  0.49517000000000005  0.9820699999999999  1.0000
  C   C159      1.0  0.7850599999999998  0.55874  0.97091  1.0000
  C   C160      1.0  0.77344  0.62999  0.9415499999999998  1.0000
  C   C161      1.0  0.6934699999999998  0.63639  0.9211399999999998  1.0000
  C   C162      1.0  0.91993  0.50622  0.9161  1.0000
  C   C163      1.0  0.90524  0.42338  0.90633  1.0000
  C   C164      1.0  0.93222  0.39336  0.84912  1.0000
  C   C165      1.0  0.9746899999999997  0.44594  0.8027699999999999  1.0000
  C   C166      1.0  0.9886199999999999  0.5287900000000002  0.8133899999999998  1.0000
  C   C167      1.0  0.9603900000000001  0.5595100000000002  0.8698199999999999  1.0000
  C   C168      1.0  0.007790000000000007  0.41303  0.74362  1.0000
  S   S1        1.0  0.9462399999999995  0.23157  0.27055999999999997  1.0000
  S   S2        1.0  0.9627199999999998  0.14964  0.06848999999999998  1.0000
  S   S3        1.0  0.38825  0.04456  0.50992  1.0000
  S   S4        1.0  0.5524600000000001  0.2682700000000001  0.77062  1.0000
  S   S5        1.0  0.53717  0.35023  0.56847  1.0000
  S   S6        1.0  0.112  0.45464  0.00971  1.0000
  S   S7        1.0  0.05343999999999998  0.76836  0.7294  1.0000
  S   S8        1.0  0.03695000000000004  0.8505300000000002  0.93157  1.0000
  S   S9        1.0  0.61112  0.9549  0.48901  1.0000
  S   S10       1.0  0.4475299999999999  0.73173  0.22934999999999994  1.0000
  S   S11       1.0  0.46274999999999994  0.64951  0.43154999999999993  1.0000
  S   S12       1.0  0.88805  0.54499  0.9898299999999999  1.0000
  O   O1        1.0  0.004130000000000007  0.18278000000000003  0.7495399999999999  1.0000
  O   O2        1.0  0.06026000000000002  0.3131800000000001  0.58136  1.0000
  O   O3        1.0  0.49628999999999995  0.8388100000000001  0.76284  1.0000
  O   O4        1.0  0.59167  0.24869000000000002  0.13992999999999997  1.0000
  O   O5        1.0  0.34786  0.23453  0.19135  1.0000
  O   O6        1.0  0.02769  0.14101  0.61989  1.0000
  O   O7        1.0  0.54707  0.9642700000000001  0.7982099999999999  1.0000
  O   O8        1.0  0.29272  0.10346  0.17233  1.0000
  O   O9        1.0  0.059770000000000004  0.43632  0.54815  1.0000
  O   O10       1.0  0.91645  0.06341  0.74671  1.0000
  O   O11       1.0  0.66698  0.37308  0.12013999999999998  1.0000
  O   O12       1.0  0.9878699999999999  0.011710000000000002  0.6037899999999999  1.0000
  O   O13       1.0  0.88901  0.15488  0.27287  1.0000
  O   O14       1.0  0.92808  0.2974400000000001  0.23104999999999995  1.0000
  O   O15       1.0  0.03592  0.21001  0.0849  1.0000
  O   O16       1.0  0.9488499999999997  0.07014  0.09768  1.0000
  O   O17       1.0  0.38207999999999986  0.9820999999999999  0.46083999999999997  1.0000
  O   O18       1.0  0.44031  0.12313  0.49969  1.0000
  O   O19       1.0  0.49579999999999996  0.31493  0.24963  1.0000
  O   O20       1.0  0.43666  0.1867  0.08102  1.0000
  O   O21       1.0  0.9997399999999999  0.66218  0.25973  1.0000
  O   O22       1.0  0.9075499999999997  0.2508  0.6408499999999999  1.0000
  O   O23       1.0  0.15137  0.26568  0.69123  1.0000
  O   O24       1.0  0.4724  0.3588  0.12003999999999998  1.0000
  O   O25       1.0  0.95621  0.53686  0.29843  1.0000
  O   O26       1.0  0.20663  0.39675  0.67223  1.0000
  O   O27       1.0  0.44018  0.06394  0.04808  1.0000
  O   O28       1.0  0.5834  0.43446  0.24681999999999998  1.0000
  O   O29       1.0  0.8328  0.12651  0.6200799999999999  1.0000
  O   O30       1.0  0.5121999999999998  0.48807000000000006  0.10382999999999999  1.0000
  O   O31       1.0  0.6087  0.3455  0.77296  1.0000
  O   O32       1.0  0.57154  0.20271  0.7310599999999998  1.0000
  O   O33       1.0  0.4640199999999999  0.28993  0.58501  1.0000
  O   O34       1.0  0.55114  0.42981  0.5976699999999999  1.0000
  O   O35       1.0  0.11816  0.5166  0.9604099999999999  1.0000
  O   O36       1.0  0.05975  0.37612  0.99969  1.0000
  O   O37       1.0  0.9956099999999999  0.81747  0.2503099999999999  1.0000
  O   O38       1.0  0.9402899999999997  0.68689  0.41843  1.0000
  O   O39       1.0  0.5003399999999998  0.16159  0.23743  1.0000
  O   O40       1.0  0.4076599999999999  0.75111  0.8602299999999999  1.0000
  O   O41       1.0  0.6514  0.7657300000000001  0.8083299999999999  1.0000
  O   O42       1.0  0.9724099999999999  0.85877  0.3800599999999999  1.0000
  O   O43       1.0  0.4528099999999999  0.03576  0.20147999999999996  1.0000
  O   O44       1.0  0.70701  0.89658  0.8276899999999999  1.0000
  O   O45       1.0  0.94026  0.56369  0.45175999999999994  1.0000
  O   O46       1.0  0.08356000000000002  0.93663  0.2535  1.0000
  O   O47       1.0  0.33323  0.62709  0.8827599999999999  1.0000
  O   O48       1.0  0.013079999999999998  0.9875399999999999  0.39894999999999997  1.0000
  O   O49       1.0  0.11072999999999998  0.84504  0.7271  1.0000
  O   O50       1.0  0.07162999999999997  0.7026  0.7690199999999998  1.0000
  O   O51       1.0  0.96388  0.79003  0.91509  1.0000
  O   O52       1.0  0.050970000000000015  0.9299800000000003  0.9022899999999999  1.0000
  O   O53       1.0  0.6151599999999998  0.01611  0.53894  1.0000
  O   O54       1.0  0.55943  0.8758700000000001  0.49763  1.0000
  O   O55       1.0  0.50433  0.6861  0.75028  1.0000
  O   O56       1.0  0.56335  0.81338  0.91893  1.0000
  O   O57       1.0  0.99963  0.33807  0.7377599999999997  1.0000
  O   O58       1.0  0.09373  0.74931  0.35569  1.0000
  O   O59       1.0  0.8488099999999997  0.73417  0.30868  1.0000
  O   O60       1.0  0.5276  0.64178  0.88  1.0000
  O   O61       1.0  0.0453  0.46396  0.7014199999999999  1.0000
  O   O62       1.0  0.7936  0.60313  0.32777  1.0000
  O   O63       1.0  0.55969  0.93615  0.95181  1.0000
  O   O64       1.0  0.41629  0.56694  0.7535599999999998  1.0000
  O   O65       1.0  0.16713  0.87318  0.37992  1.0000
  O   O66       1.0  0.4876999999999999  0.51238  0.8961  1.0000
  O   O67       1.0  0.39116  0.65456  0.22699999999999998  1.0000
  O   O68       1.0  0.42849000000000004  0.7973  0.26892  1.0000
  O   O69       1.0  0.5358399999999998  0.70986  0.41494  1.0000
  O   O70       1.0  0.44877999999999985  0.56985  0.40244  1.0000
  O   O71       1.0  0.88154  0.48309  0.03921999999999999  1.0000
  O   O72       1.0  0.9404099999999996  0.62342  8.999999999999999e-05  1.0000
