data_image0
_chemical_formula_structural       Zn16H80C148O80
_chemical_formula_sum              "Zn16 H80 C148 O80"
_cell_length_a       12.36269
_cell_length_b       26.49331
_cell_length_c       26.60584
_cell_angle_alpha    90.0
_cell_angle_beta     90.0
_cell_angle_gamma    90.0

_symmetry_space_group_name_H-M    'P 1'
_symmetry_Int_Tables_number       1

loop_
  _symmetry_equiv_pos_as_xyz
  'x,y,z'

loop_
  _atom_site_type_symbol
  _atom_site_label
  _atom_site_symmetry_multiplicity
  _atom_site_fract_x
  _atom_site_fract_y
  _atom_site_fract_z
  _atom_site_occupancy
  Zn  Zn1       1.0  0.9278000000000001  0.46594  0.99406  1.0000
  Zn  Zn2       1.0  0.0722  0.96594  0.00594  1.0000
  Zn  Zn3       1.0  0.0722  0.03406  0.49406  1.0000
  Zn  Zn4       1.0  0.9278000000000001  0.53406  0.5059399999999998  1.0000
  Zn  Zn5       1.0  0.0722  0.53406  0.00594  1.0000
  Zn  Zn6       1.0  0.9278000000000001  0.03406  0.99406  1.0000
  Zn  Zn7       1.0  0.9278000000000001  0.96594  0.5059399999999998  1.0000
  Zn  Zn8       1.0  0.0722  0.46594  0.49406  1.0000
  Zn  Zn9       1.0  0.14936000000000002  0.7499999999999999  0.77176  1.0000
  Zn  Zn10      1.0  0.00416  0.7499999999999999  0.7027899999999999  1.0000
  Zn  Zn11      1.0  0.85065  0.25  0.22823999999999994  1.0000
  Zn  Zn12      1.0  0.99585  0.25  0.29721  1.0000
  Zn  Zn13      1.0  0.85065  0.7499999999999999  0.27176  1.0000
  Zn  Zn14      1.0  0.99585  0.7499999999999999  0.20279  1.0000
  Zn  Zn15      1.0  0.14936000000000002  0.25  0.7282399999999999  1.0000
  Zn  Zn16      1.0  0.00416  0.25  0.79721  1.0000
  H   H1        1.0  0.56986  0.53071  0.82572  1.0000
  H   H2        1.0  0.66984  0.48595  0.8063899999999998  1.0000
  H   H3        1.0  0.41523  0.44736  0.7380699999999999  1.0000
  H   H4        1.0  0.52499  0.42182  0.77396  1.0000
  H   H5        1.0  0.8009600000000001  0.63276  0.7487699999999999  1.0000
  H   H6        1.0  0.01514  0.63217  0.87655  1.0000
  H   H7        1.0  0.75814  0.52319  0.86728  1.0000
  H   H8        1.0  0.34470000000000006  0.37947000000000003  0.77827  1.0000
  H   H9        1.0  0.31468  0.49745  0.8898599999999998  1.0000
  H   H10       1.0  0.09360000000000002  0.3719799999999999  0.8896699999999997  1.0000
  H   H11       1.0  0.43014  0.0307  0.17427999999999996  1.0000
  H   H12       1.0  0.33016  0.98595  0.19360999999999998  1.0000
  H   H13       1.0  0.58478  0.9473600000000001  0.26193  1.0000
  H   H14       1.0  0.47501  0.92182  0.22603999999999994  1.0000
  H   H15       1.0  0.19904  0.13276  0.25123  1.0000
  H   H16       1.0  0.98487  0.13217  0.12344999999999998  1.0000
  H   H17       1.0  0.24186  0.02319  0.13271999999999998  1.0000
  H   H18       1.0  0.6553  0.87948  0.22172999999999995  1.0000
  H   H19       1.0  0.68532  0.99745  0.11014  1.0000
  H   H20       1.0  0.9064  0.87198  0.11032999999999997  1.0000
  H   H21       1.0  0.43014  0.9693  0.3257199999999999  1.0000
  H   H22       1.0  0.33016  0.014049999999999998  0.30639  1.0000
  H   H23       1.0  0.58478  0.05264  0.23807  1.0000
  H   H24       1.0  0.47501  0.07818000000000001  0.27396  1.0000
  H   H25       1.0  0.19904  0.86724  0.24876999999999994  1.0000
  H   H26       1.0  0.98487  0.86783  0.3765499999999999  1.0000
  H   H27       1.0  0.24186  0.97681  0.36728  1.0000
  H   H28       1.0  0.6553  0.12053  0.27827  1.0000
  H   H29       1.0  0.68532  0.00255  0.3898599999999999  1.0000
  H   H30       1.0  0.9064  0.12802  0.38967  1.0000
  H   H31       1.0  0.56986  0.4693  0.6742799999999999  1.0000
  H   H32       1.0  0.66984  0.51406  0.69361  1.0000
  H   H33       1.0  0.41523  0.55264  0.76193  1.0000
  H   H34       1.0  0.52499  0.57818  0.7260399999999998  1.0000
  H   H35       1.0  0.8009600000000001  0.36724  0.75123  1.0000
  H   H36       1.0  0.01514  0.36783  0.6234499999999997  1.0000
  H   H37       1.0  0.75814  0.47681  0.6327199999999997  1.0000
  H   H38       1.0  0.34470000000000006  0.62053  0.7217299999999999  1.0000
  H   H39       1.0  0.31468  0.50255  0.61014  1.0000
  H   H40       1.0  0.09360000000000002  0.62802  0.61033  1.0000
  H   H41       1.0  0.43014  0.4693  0.17427999999999996  1.0000
  H   H42       1.0  0.33016  0.51406  0.19360999999999998  1.0000
  H   H43       1.0  0.58478  0.55264  0.26193  1.0000
  H   H44       1.0  0.47501  0.57818  0.22603999999999994  1.0000
  H   H45       1.0  0.19904  0.36724  0.25123  1.0000
  H   H46       1.0  0.98487  0.36783  0.12344999999999998  1.0000
  H   H47       1.0  0.24186  0.47681  0.13271999999999998  1.0000
  H   H48       1.0  0.6553  0.62053  0.22172999999999995  1.0000
  H   H49       1.0  0.68532  0.50255  0.11014  1.0000
  H   H50       1.0  0.9064  0.62802  0.11032999999999997  1.0000
  H   H51       1.0  0.56986  0.9693  0.82572  1.0000
  H   H52       1.0  0.66984  0.014049999999999998  0.8063899999999998  1.0000
  H   H53       1.0  0.41523  0.05264  0.7380699999999999  1.0000
  H   H54       1.0  0.52499  0.07818000000000001  0.77396  1.0000
  H   H55       1.0  0.8009600000000001  0.86724  0.7487699999999999  1.0000
  H   H56       1.0  0.01514  0.86783  0.87655  1.0000
  H   H57       1.0  0.75814  0.97681  0.86728  1.0000
  H   H58       1.0  0.34470000000000006  0.12053  0.77827  1.0000
  H   H59       1.0  0.31468  0.00255  0.8898599999999998  1.0000
  H   H60       1.0  0.09360000000000002  0.12802  0.8896699999999997  1.0000
  H   H61       1.0  0.56986  0.0307  0.6742799999999999  1.0000
  H   H62       1.0  0.66984  0.98595  0.69361  1.0000
  H   H63       1.0  0.41523  0.9473600000000001  0.76193  1.0000
  H   H64       1.0  0.52499  0.92182  0.7260399999999998  1.0000
  H   H65       1.0  0.8009600000000001  0.13276  0.75123  1.0000
  H   H66       1.0  0.01514  0.13217  0.6234499999999997  1.0000
  H   H67       1.0  0.75814  0.02319  0.6327199999999997  1.0000
  H   H68       1.0  0.34470000000000006  0.87948  0.7217299999999999  1.0000
  H   H69       1.0  0.31468  0.99745  0.61014  1.0000
  H   H70       1.0  0.09360000000000002  0.87198  0.61033  1.0000
  H   H71       1.0  0.43014  0.53071  0.3257199999999999  1.0000
  H   H72       1.0  0.33016  0.48595  0.30639  1.0000
  H   H73       1.0  0.58478  0.44736  0.23807  1.0000
  H   H74       1.0  0.47501  0.42182  0.27396  1.0000
  H   H75       1.0  0.19904  0.63276  0.24876999999999994  1.0000
  H   H76       1.0  0.98487  0.63217  0.3765499999999999  1.0000
  H   H77       1.0  0.24186  0.52319  0.36728  1.0000
  H   H78       1.0  0.6553  0.37947000000000003  0.27827  1.0000
  H   H79       1.0  0.68532  0.49745  0.3898599999999999  1.0000
  H   H80       1.0  0.9064  0.3719799999999999  0.38967  1.0000
  C   C1        1.0  0.61909  0.5176  0.79392  1.0000
  C   C2        1.0  0.47560000000000013  0.45564  0.7673199999999998  1.0000
  C   C3        1.0  0.76832  0.57585  0.8046499999999999  1.0000
  C   C4        1.0  0.82511  0.61695  0.7847099999999998  1.0000
  C   C5        1.0  0.9135100000000002  0.63733  0.81049  1.0000
  C   C6        1.0  0.94595  0.61676  0.85665  1.0000
  C   C7        1.0  0.88906  0.57561  0.8763299999999998  1.0000
  C   C8        1.0  0.79962  0.55519  0.8506899999999997  1.0000
  C   C9        1.0  0.97435  0.67985  0.78652  1.0000
  C   C10       1.0  0.92661  0.55067  0.92365  1.0000
  C   C11       1.0  0.30571  0.39595  0.81094  1.0000
  C   C12       1.0  0.34005  0.44178  0.8316899999999999  1.0000
  C   C13       1.0  0.28768  0.46181  0.8740299999999999  1.0000
  C   C14       1.0  0.2168  0.37076  0.83245  1.0000
  C   C15       1.0  0.16347  0.39109  0.8740599999999997  1.0000
  C   C16       1.0  0.19892  0.43673000000000006  0.8948299999999999  1.0000
  C   C17       1.0  0.17268000000000003  0.3234  0.80962  1.0000
  C   C18       1.0  0.13665  0.46018  0.9370199999999999  1.0000
  C   C19       1.0  0.3809100000000001  0.0176  0.20608  1.0000
  C   C20       1.0  0.5244  0.95564  0.23268  1.0000
  C   C21       1.0  0.23169000000000003  0.07585  0.19534999999999997  1.0000
  C   C22       1.0  0.17489  0.11694999999999998  0.21529  1.0000
  C   C23       1.0  0.08650000000000001  0.13733  0.18951  1.0000
  C   C24       1.0  0.05405  0.11676  0.14335  1.0000
  C   C25       1.0  0.11094000000000001  0.07561  0.12367  1.0000
  C   C26       1.0  0.20038  0.05519  0.14931  1.0000
  C   C27       1.0  0.025660000000000002  0.17985  0.21347999999999998  1.0000
  C   C28       1.0  0.07339  0.05067  0.07634999999999999  1.0000
  C   C29       1.0  0.6943  0.8959500000000001  0.18905999999999995  1.0000
  C   C30       1.0  0.6599600000000001  0.94178  0.16831  1.0000
  C   C31       1.0  0.71232  0.96181  0.12597  1.0000
  C   C32       1.0  0.7832  0.87076  0.16754999999999998  1.0000
  C   C33       1.0  0.8365400000000001  0.89109  0.12594  1.0000
  C   C34       1.0  0.80108  0.93673  0.10516999999999997  1.0000
  C   C35       1.0  0.8273200000000002  0.8234  0.19038  1.0000
  C   C36       1.0  0.86335  0.9601800000000001  0.06298  1.0000
  C   C37       1.0  0.3809100000000001  0.9824  0.29391999999999996  1.0000
  C   C38       1.0  0.5244  0.04436  0.26731999999999995  1.0000
  C   C39       1.0  0.23169000000000003  0.9241600000000001  0.30465  1.0000
  C   C40       1.0  0.17489  0.88305  0.28471  1.0000
  C   C41       1.0  0.08650000000000001  0.86267  0.31049  1.0000
  C   C42       1.0  0.05405  0.88324  0.3566499999999999  1.0000
  C   C43       1.0  0.11094000000000001  0.92439  0.37632999999999994  1.0000
  C   C44       1.0  0.20038  0.9448100000000001  0.3506899999999999  1.0000
  C   C45       1.0  0.025660000000000002  0.82015  0.28652  1.0000
  C   C46       1.0  0.07339  0.94933  0.4236499999999999  1.0000
  C   C47       1.0  0.6943  0.10405000000000002  0.31093999999999994  1.0000
  C   C48       1.0  0.6599600000000001  0.05822  0.3316899999999999  1.0000
  C   C49       1.0  0.71232  0.03819  0.37403  1.0000
  C   C50       1.0  0.7832  0.12924  0.3324499999999999  1.0000
  C   C51       1.0  0.8365400000000001  0.10891000000000002  0.3740599999999999  1.0000
  C   C52       1.0  0.80108  0.06327  0.39483  1.0000
  C   C53       1.0  0.8273200000000002  0.1766  0.30962  1.0000
  C   C54       1.0  0.86335  0.03982  0.43702  1.0000
  C   C55       1.0  0.61909  0.4824  0.7060799999999999  1.0000
  C   C56       1.0  0.47560000000000013  0.54436  0.73268  1.0000
  C   C57       1.0  0.76832  0.42416  0.69535  1.0000
  C   C58       1.0  0.82511  0.38305  0.7152899999999998  1.0000
  C   C59       1.0  0.9135100000000002  0.36267  0.6895099999999997  1.0000
  C   C60       1.0  0.94595  0.38324  0.6433499999999999  1.0000
  C   C61       1.0  0.88906  0.42439  0.62367  1.0000
  C   C62       1.0  0.79962  0.44481  0.64931  1.0000
  C   C63       1.0  0.97435  0.32016  0.7134799999999998  1.0000
  C   C64       1.0  0.92661  0.44933  0.57635  1.0000
  C   C65       1.0  0.30571  0.6040499999999999  0.6890599999999998  1.0000
  C   C66       1.0  0.34005  0.55822  0.66831  1.0000
  C   C67       1.0  0.28768  0.53819  0.62597  1.0000
  C   C68       1.0  0.2168  0.62924  0.6675499999999999  1.0000
  C   C69       1.0  0.16347  0.60891  0.62594  1.0000
  C   C70       1.0  0.19892  0.56327  0.60517  1.0000
  C   C71       1.0  0.17268000000000003  0.6766  0.6903799999999998  1.0000
  C   C72       1.0  0.13665  0.53982  0.5629799999999999  1.0000
  C   C73       1.0  0.3809100000000001  0.4824  0.20608  1.0000
  C   C74       1.0  0.5244  0.54436  0.23268  1.0000
  C   C75       1.0  0.23169000000000003  0.42416  0.19534999999999997  1.0000
  C   C76       1.0  0.17489  0.38305  0.21529  1.0000
  C   C77       1.0  0.08650000000000001  0.36267  0.18951  1.0000
  C   C78       1.0  0.05405  0.38324  0.14335  1.0000
  C   C79       1.0  0.11094000000000001  0.42439  0.12367  1.0000
  C   C80       1.0  0.20038  0.44481  0.14931  1.0000
  C   C81       1.0  0.02565  0.32016  0.21347999999999998  1.0000
  C   C82       1.0  0.0734  0.44933  0.07634999999999999  1.0000
  C   C83       1.0  0.6943  0.6040499999999999  0.18905999999999995  1.0000
  C   C84       1.0  0.6599600000000001  0.55822  0.16831  1.0000
  C   C85       1.0  0.71232  0.53819  0.12597  1.0000
  C   C86       1.0  0.7832  0.62924  0.16754999999999998  1.0000
  C   C87       1.0  0.8365400000000001  0.60891  0.12594  1.0000
  C   C88       1.0  0.80108  0.56327  0.10516999999999997  1.0000
  C   C89       1.0  0.8273200000000002  0.6766  0.19038  1.0000
  C   C90       1.0  0.86335  0.53982  0.06298  1.0000
  C   C91       1.0  0.61909  0.9824  0.79392  1.0000
  C   C92       1.0  0.47560000000000013  0.04436  0.7673199999999998  1.0000
  C   C93       1.0  0.76832  0.9241600000000001  0.8046499999999999  1.0000
  C   C94       1.0  0.82511  0.88305  0.7847099999999998  1.0000
  C   C95       1.0  0.9135100000000002  0.86267  0.81049  1.0000
  C   C96       1.0  0.94595  0.88324  0.85665  1.0000
  C   C97       1.0  0.88906  0.92439  0.8763299999999998  1.0000
  C   C98       1.0  0.79962  0.9448100000000001  0.8506899999999997  1.0000
  C   C99       1.0  0.97435  0.82015  0.78652  1.0000
  C   C100      1.0  0.92661  0.94933  0.92365  1.0000
  C   C101      1.0  0.30571  0.10405000000000002  0.81094  1.0000
  C   C102      1.0  0.34005  0.05822  0.8316899999999999  1.0000
  C   C103      1.0  0.28768  0.03819  0.8740299999999999  1.0000
  C   C104      1.0  0.2168  0.12924  0.83245  1.0000
  C   C105      1.0  0.16347  0.10891000000000002  0.8740599999999997  1.0000
  C   C106      1.0  0.19892  0.06327  0.8948299999999999  1.0000
  C   C107      1.0  0.17268000000000003  0.1766  0.80962  1.0000
  C   C108      1.0  0.13665  0.03982  0.9370199999999999  1.0000
  C   C109      1.0  0.61909  0.0176  0.7060799999999999  1.0000
  C   C110      1.0  0.47560000000000013  0.95564  0.73268  1.0000
  C   C111      1.0  0.76832  0.07585  0.69535  1.0000
  C   C112      1.0  0.82511  0.11694999999999998  0.7152899999999998  1.0000
  C   C113      1.0  0.9135100000000002  0.13733  0.6895099999999997  1.0000
  C   C114      1.0  0.94595  0.11676  0.6433499999999999  1.0000
  C   C115      1.0  0.88906  0.07561  0.62367  1.0000
  C   C116      1.0  0.79962  0.05519  0.64931  1.0000
  C   C117      1.0  0.97435  0.17985  0.7134799999999998  1.0000
  C   C118      1.0  0.92661  0.05067  0.57635  1.0000
  C   C119      1.0  0.30571  0.8959500000000001  0.6890599999999998  1.0000
  C   C120      1.0  0.34005  0.94178  0.66831  1.0000
  C   C121      1.0  0.28768  0.96181  0.62597  1.0000
  C   C122      1.0  0.2168  0.87076  0.6675499999999999  1.0000
  C   C123      1.0  0.16347  0.89109  0.62594  1.0000
  C   C124      1.0  0.19892  0.93673  0.60517  1.0000
  C   C125      1.0  0.17268000000000003  0.8234  0.6903799999999998  1.0000
  C   C126      1.0  0.13665  0.9601800000000001  0.5629799999999999  1.0000
  C   C127      1.0  0.3809100000000001  0.5176  0.29391999999999996  1.0000
  C   C128      1.0  0.5244  0.45564  0.26731999999999995  1.0000
  C   C129      1.0  0.23169000000000003  0.57585  0.30465  1.0000
  C   C130      1.0  0.17489  0.61695  0.28471  1.0000
  C   C131      1.0  0.08650000000000001  0.63733  0.31049  1.0000
  C   C132      1.0  0.05405  0.61676  0.3566499999999999  1.0000
  C   C133      1.0  0.11094000000000001  0.57561  0.37632999999999994  1.0000
  C   C134      1.0  0.20038  0.55519  0.3506899999999999  1.0000
  C   C135      1.0  0.02565  0.67985  0.28652  1.0000
  C   C136      1.0  0.0734  0.55067  0.4236499999999999  1.0000
  C   C137      1.0  0.6943  0.39595  0.31093999999999994  1.0000
  C   C138      1.0  0.6599600000000001  0.44178  0.3316899999999999  1.0000
  C   C139      1.0  0.71232  0.46181  0.37403  1.0000
  C   C140      1.0  0.7832  0.37076  0.3324499999999999  1.0000
  C   C141      1.0  0.8365400000000001  0.39109  0.3740599999999999  1.0000
  C   C142      1.0  0.80108  0.43673000000000006  0.39483  1.0000
  C   C143      1.0  0.8273200000000002  0.3234  0.30962  1.0000
  C   C144      1.0  0.86335  0.46018  0.43702  1.0000
  C   C145      1.0  0.54707  0.5  0.7499999999999998  1.0000
  C   C146      1.0  0.45293  0.0  0.24999999999999994  1.0000
  C   C147      1.0  0.45293  0.5  0.24999999999999994  1.0000
  C   C148      1.0  0.54707  0.0  0.7499999999999998  1.0000
  O   O1        1.0  0.6850000000000002  0.55832  0.77525  1.0000
  O   O2        1.0  0.42303  0.47093  0.8131899999999997  1.0000
  O   O3        1.0  0.93507  0.69666  0.7451999999999998  1.0000
  O   O4        1.0  0.06034000000000001  0.6959  0.80796  1.0000
  O   O5        1.0  0.00596  0.57087  0.9469499999999997  1.0000
  O   O6        1.0  0.87771  0.51001  0.9367899999999998  1.0000
  O   O7        1.0  0.17499000000000003  0.50023  0.9571399999999999  1.0000
  O   O8        1.0  0.21832000000000004  0.30583  0.77003  1.0000
  O   O9        1.0  0.04732  0.43897  0.94918  1.0000
  O   O10       1.0  0.08974  0.30436  0.8312199999999997  1.0000
  O   O11       1.0  0.31501  0.05831999999999999  0.22475  1.0000
  O   O12       1.0  0.5769700000000001  0.9709300000000001  0.18681  1.0000
  O   O13       1.0  0.06493  0.19666  0.2548  1.0000
  O   O14       1.0  0.93967  0.19591  0.19203999999999996  1.0000
  O   O15       1.0  0.99404  0.07087  0.053049999999999986  1.0000
  O   O16       1.0  0.12229  0.01001  0.06320999999999999  1.0000
  O   O17       1.0  0.82502  0.00023  0.04286  1.0000
  O   O18       1.0  0.7816900000000001  0.80583  0.22996999999999995  1.0000
  O   O19       1.0  0.95269  0.93897  0.05081999999999999  1.0000
  O   O20       1.0  0.91027  0.80436  0.16877999999999999  1.0000
  O   O21       1.0  0.31501  0.9416799999999999  0.27524999999999994  1.0000
  O   O22       1.0  0.5769700000000001  0.029070000000000002  0.31318999999999997  1.0000
  O   O23       1.0  0.06493  0.80334  0.24519999999999995  1.0000
  O   O24       1.0  0.93967  0.80409  0.30796  1.0000
  O   O25       1.0  0.99404  0.9291300000000001  0.44695  1.0000
  O   O26       1.0  0.12229  0.98999  0.43678999999999996  1.0000
  O   O27       1.0  0.82502  0.9997700000000002  0.4571399999999999  1.0000
  O   O28       1.0  0.7816900000000001  0.19417  0.27003  1.0000
  O   O29       1.0  0.95269  0.06103  0.44918  1.0000
  O   O30       1.0  0.91027  0.19564  0.3312199999999999  1.0000
  O   O31       1.0  0.6850000000000002  0.44168  0.7247499999999998  1.0000
  O   O32       1.0  0.42303  0.52907  0.68681  1.0000
  O   O33       1.0  0.93507  0.30334  0.7548  1.0000
  O   O34       1.0  0.06034000000000001  0.3041  0.6920399999999998  1.0000
  O   O35       1.0  0.00596  0.42913  0.55305  1.0000
  O   O36       1.0  0.87771  0.48999  0.56321  1.0000
  O   O37       1.0  0.17499000000000003  0.49977  0.54286  1.0000
  O   O38       1.0  0.21832000000000004  0.69417  0.7299699999999998  1.0000
  O   O39       1.0  0.04732  0.56103  0.5508199999999999  1.0000
  O   O40       1.0  0.08974  0.69564  0.66878  1.0000
  O   O41       1.0  0.31501  0.44168  0.22475  1.0000
  O   O42       1.0  0.5769700000000001  0.52907  0.18681  1.0000
  O   O43       1.0  0.06493  0.30334  0.2548  1.0000
  O   O44       1.0  0.93966  0.3041  0.19203999999999996  1.0000
  O   O45       1.0  0.99404  0.42913  0.053049999999999986  1.0000
  O   O46       1.0  0.12229  0.48999  0.06320999999999999  1.0000
  O   O47       1.0  0.82502  0.49977  0.04286  1.0000
  O   O48       1.0  0.7816900000000001  0.69417  0.22996999999999995  1.0000
  O   O49       1.0  0.95269  0.56103  0.05081999999999999  1.0000
  O   O50       1.0  0.91027  0.69564  0.16877999999999999  1.0000
  O   O51       1.0  0.6850000000000002  0.9416799999999999  0.77525  1.0000
  O   O52       1.0  0.42303  0.029070000000000002  0.8131899999999997  1.0000
  O   O53       1.0  0.93507  0.80334  0.7451999999999998  1.0000
  O   O54       1.0  0.06034000000000001  0.80409  0.80796  1.0000
  O   O55       1.0  0.00596  0.9291300000000001  0.9469499999999997  1.0000
  O   O56       1.0  0.87771  0.98999  0.9367899999999998  1.0000
  O   O57       1.0  0.17499000000000003  0.9997700000000002  0.9571399999999999  1.0000
  O   O58       1.0  0.21832000000000004  0.19417  0.77003  1.0000
  O   O59       1.0  0.04732  0.06103  0.94918  1.0000
  O   O60       1.0  0.08974  0.19564  0.8312199999999997  1.0000
  O   O61       1.0  0.6850000000000002  0.05831999999999999  0.7247499999999998  1.0000
  O   O62       1.0  0.42303  0.9709300000000001  0.68681  1.0000
  O   O63       1.0  0.93507  0.19666  0.7548  1.0000
  O   O64       1.0  0.06034000000000001  0.19591  0.6920399999999998  1.0000
  O   O65       1.0  0.00596  0.07087  0.55305  1.0000
  O   O66       1.0  0.87771  0.01001  0.56321  1.0000
  O   O67       1.0  0.17499000000000003  0.00023  0.54286  1.0000
  O   O68       1.0  0.21832000000000004  0.80583  0.7299699999999998  1.0000
  O   O69       1.0  0.04732  0.93897  0.5508199999999999  1.0000
  O   O70       1.0  0.08974  0.80436  0.66878  1.0000
  O   O71       1.0  0.31501  0.55832  0.27524999999999994  1.0000
  O   O72       1.0  0.5769700000000001  0.47093  0.31318999999999997  1.0000
  O   O73       1.0  0.06493  0.69666  0.24519999999999995  1.0000
  O   O74       1.0  0.93966  0.6959  0.30796  1.0000
  O   O75       1.0  0.99404  0.57087  0.44695  1.0000
  O   O76       1.0  0.12229  0.51001  0.43678999999999996  1.0000
  O   O77       1.0  0.82502  0.50023  0.4571399999999999  1.0000
  O   O78       1.0  0.7816900000000001  0.30583  0.27003  1.0000
  O   O79       1.0  0.95269  0.43897  0.44918  1.0000
  O   O80       1.0  0.91027  0.30436  0.3312199999999999  1.0000
