data_image0
_chemical_formula_structural       Zn12Si4H44C100O72
_chemical_formula_sum              "Zn12 Si4 H44 C100 O72"
_cell_length_a       14.26378
_cell_length_b       16.383180000000003
_cell_length_c       21.53855
_cell_angle_alpha    98.03464999999998
_cell_angle_beta     90.05676
_cell_angle_gamma    89.94963

_space_group_name_H-M_alt    "P 1"
_space_group_IT_number       1

loop_
  _space_group_symop_operation_xyz
  'x, y, z'

loop_
  _atom_site_type_symbol
  _atom_site_label
  _atom_site_symmetry_multiplicity
  _atom_site_fract_x
  _atom_site_fract_y
  _atom_site_fract_z
  _atom_site_occupancy
  Zn  Zn1       1.0  0.012009999999999996  0.054590000000000014  0.07216  1.0000
  Zn  Zn2       1.0  0.9879899999999998  0.94541  0.9278400000000001  1.0000
  Zn  Zn3       1.0  0.34921  0.79481  0.45135  1.0000
  Zn  Zn4       1.0  0.5442  0.74739  0.38291000000000003  1.0000
  Zn  Zn5       1.0  0.15107  0.7957700000000002  0.95119  1.0000
  Zn  Zn6       1.0  0.4876299999999999  0.0564  0.57252  1.0000
  Zn  Zn7       1.0  0.04395  0.25209  0.11709  1.0000
  Zn  Zn8       1.0  0.4558  0.25261  0.61709  1.0000
  Zn  Zn9       1.0  0.51237  0.94359  0.42748  1.0000
  Zn  Zn10      1.0  0.9560499999999997  0.74791  0.88291  1.0000
  Zn  Zn11      1.0  0.8489399999999998  0.20422  0.04881  1.0000
  Zn  Zn12      1.0  0.6507899999999999  0.20519  0.54864  1.0000
  Si  Si1       1.0  0.9992999999999999  0.21237000000000006  0.8722300000000001  1.0000
  Si  Si2       1.0  0.49896  0.78769  0.62816  1.0000
  Si  Si3       1.0  0.0007099999999999997  0.7876300000000003  0.12777  1.0000
  Si  Si4       1.0  0.50104  0.21231  0.37183  1.0000
  H   H1        1.0  0.8095299999999997  0.011760000000000007  0.79696  1.0000
  H   H2        1.0  0.55681  0.23422000000000012  0.79674  1.0000
  H   H3        1.0  0.94385  0.23398  0.29776  1.0000
  H   H4        1.0  0.32501999999999986  0.79614  0.79321  1.0000
  H   H5        1.0  0.6665399999999998  0.43501  0.4934  1.0000
  H   H6        1.0  0.30393  0.9525200000000003  0.28411  1.0000
  H   H7        1.0  0.22322  0.01952  0.03378  1.0000
  H   H8        1.0  0.6960799999999998  0.04748  0.71589  1.0000
  H   H9        1.0  0.53212  0.4754800000000001  0.36294  1.0000
  H   H10       1.0  0.9676799999999998  0.47513  0.8625300000000001  1.0000
  H   H11       1.0  0.19576999999999994  0.95268  0.78361  1.0000
  H   H12       1.0  0.77678  0.9804699999999998  0.96621  1.0000
  H   H13       1.0  0.19046999999999994  0.9882400000000001  0.20303  1.0000
  H   H14       1.0  0.6895999999999998  0.01114  0.29637  1.0000
  H   H15       1.0  0.63493  0.23565000000000003  0.90209  1.0000
  H   H16       1.0  0.28576  0.2402  0.23511000000000004  1.0000
  H   H17       1.0  0.78566  0.7592400000000004  0.2642  1.0000
  H   H18       1.0  0.51484  0.8282  0.491  1.0000
  H   H19       1.0  0.7221  0.9816199999999999  0.46662000000000003  1.0000
  H   H20       1.0  0.86453  0.23621000000000006  0.40268  1.0000
  H   H21       1.0  0.05616  0.7660099999999999  0.70224  1.0000
  H   H22       1.0  0.4431999999999999  0.76578  0.20326  1.0000
  H   H23       1.0  0.31216  0.41975  0.53126  1.0000
  H   H24       1.0  0.8338  0.43449  0.99378  1.0000
  H   H25       1.0  0.71424  0.7598000000000001  0.7648900000000001  1.0000
  H   H26       1.0  0.67499  0.20386  0.20678  1.0000
  H   H27       1.0  0.21434  0.24076000000000003  0.7358  1.0000
  H   H28       1.0  0.9850299999999999  0.8288200000000002  0.9910100000000001  1.0000
  H   H29       1.0  0.16621  0.56551  0.00622  1.0000
  H   H30       1.0  0.01497  0.17118  0.00899  1.0000
  H   H31       1.0  0.03232  0.5248700000000002  0.13746  1.0000
  H   H32       1.0  0.36506999999999995  0.76435  0.09791000000000001  1.0000
  H   H33       1.0  0.31041  0.98886  0.70363  1.0000
  H   H34       1.0  0.6878499999999997  0.58025  0.46874  1.0000
  H   H35       1.0  0.48515999999999987  0.17180000000000006  0.50899  1.0000
  H   H36       1.0  0.2779  0.018380000000000004  0.53338  1.0000
  H   H37       1.0  0.13547  0.76379  0.59732  1.0000
  H   H38       1.0  0.18763999999999995  0.42048  0.0314  1.0000
  H   H39       1.0  0.17358999999999997  0.79529  0.29293  1.0000
  H   H40       1.0  0.81236  0.57951  0.9686  1.0000
  H   H41       1.0  0.33345999999999987  0.56499  0.5066  1.0000
  H   H42       1.0  0.8042399999999998  0.04732  0.21639  1.0000
  H   H43       1.0  0.46788  0.5245100000000003  0.63706  1.0000
  H   H44       1.0  0.82642  0.20471  0.70707  1.0000
  C   C1        1.0  0.8714099999999998  0.48625  0.01947  1.0000
  C   C2        1.0  0.21051  0.1775  0.74554  1.0000
  C   C3        1.0  0.13926  0.07484000000000003  0.80318  1.0000
  C   C4        1.0  0.26371  0.03517000000000003  0.72792  1.0000
  C   C5        1.0  0.03231  0.38124  0.91046  1.0000
  C   C6        1.0  0.63952  0.92524  0.69642  1.0000
  C   C7        1.0  0.22657  0.7777500000000003  0.1365  1.0000
  C   C8        1.0  0.64466  0.84263  0.70971  1.0000
  C   C9        1.0  0.67102  0.21131000000000003  0.30786  1.0000
  C   C10       1.0  0.31644  0.77909  0.57527  1.0000
  C   C11       1.0  0.01669  0.46416  0.89922  1.0000
  C   C12       1.0  0.23679999999999995  0.034630000000000015  0.22763  1.0000
  C   C13       1.0  0.14477  0.15758  0.79039  1.0000
  C   C14       1.0  0.36005  0.7777500000000005  0.31598  1.0000
  C   C15       1.0  0.8370399999999998  0.8632700000000001  0.8345100000000001  1.0000
  C   C16       1.0  0.4288  0.05105000000000001  0.34881  1.0000
  C   C17       1.0  0.8902099999999998  0.71644  0.02316  1.0000
  C   C18       1.0  0.8583099999999998  0.56677  0.006410000000000001  1.0000
  C   C19       1.0  0.60841  0.71663  0.52312  1.0000
  C   C20       1.0  0.7894899999999998  0.8225000000000002  0.25446  1.0000
  C   C21       1.0  0.21588999999999994  0.78837  0.25055  1.0000
  C   C22       1.0  0.68729  0.22082999999999997  0.74626  1.0000
  C   C23       1.0  0.6756599999999999  0.2298  0.85904  1.0000
  C   C24       1.0  0.13182  0.77139  0.69841  1.0000
  C   C25       1.0  0.78412  0.21163  0.74945  1.0000
  C   C26       1.0  0.81336  0.21999  0.24655  1.0000
  C   C27       1.0  0.23209999999999995  0.11627  0.21381  1.0000
  C   C28       1.0  0.8208499999999997  0.024710000000000006  0.99659  1.0000
  C   C29       1.0  0.8607499999999998  0.92516  0.19681999999999997  1.0000
  C   C30       1.0  0.1709  0.78864  0.19197  1.0000
  C   C31       1.0  0.79997  0.9848400000000002  0.22774  1.0000
  C   C32       1.0  0.20003999999999994  0.015150000000000002  0.77226  1.0000
  C   C33       1.0  0.44777  0.61671  0.42222  1.0000
  C   C34       1.0  0.92906  0.9492700000000002  0.15194  1.0000
  C   C35       1.0  0.7734399999999998  0.22225000000000003  0.8635000000000002  1.0000
  C   C36       1.0  0.7679  0.88373  0.7861900000000002  1.0000
  C   C37       1.0  0.16297  0.13673  0.16549  1.0000
  C   C38       1.0  0.35806  0.43269000000000013  0.49354000000000003  1.0000
  C   C39       1.0  0.72659  0.22244  0.36342  1.0000
  C   C40       1.0  0.28983  0.17704  0.24511  1.0000
  C   C41       1.0  0.53237  0.61885  0.58962  1.0000
  C   C42       1.0  0.28348  0.78893  0.75048  1.0000
  C   C43       1.0  0.96769  0.61876  0.08954  1.0000
  C   C44       1.0  0.36762  0.77113  0.19886  1.0000
  C   C45       1.0  0.35534  0.15737  0.29029  1.0000
  C   C46       1.0  0.56597  0.47113  0.56651  1.0000
  C   C47       1.0  0.5711999999999999  0.94895  0.65118  1.0000
  C   C48       1.0  0.07094999999999999  0.05072999999999997  0.84806  1.0000
  C   C49       1.0  0.7000899999999998  0.9850600000000002  0.72745  1.0000
  C   C50       1.0  0.6627699999999997  0.86258  0.33413  1.0000
  C   C51       1.0  0.71653  0.21107  0.24952  1.0000
  C   C52       1.0  0.6835599999999997  0.2209  0.42473  1.0000
  C   C53       1.0  0.14001  0.77939  0.8159500000000001  1.0000
  C   C54       1.0  0.17915  0.97529  0.0034100000000000003  1.0000
  C   C55       1.0  0.17562  0.76998  0.64068  1.0000
  C   C56       1.0  0.09573999999999998  0.36666  0.95909  1.0000
  C   C57       1.0  0.8243799999999998  0.23001  0.35932  1.0000
  C   C58       1.0  0.63238  0.22887000000000007  0.8011400000000001  1.0000
  C   C59       1.0  0.31271999999999994  0.7791700000000001  0.25374  1.0000
  C   C60       1.0  0.67713  0.025349999999999994  0.49671  1.0000
  C   C61       1.0  0.27342  0.77756  0.63657  1.0000
  C   C62       1.0  0.6288399999999997  0.48667  0.51917  1.0000
  C   C63       1.0  0.7315199999999997  0.88311  0.2857  1.0000
  C   C64       1.0  0.85524  0.84242  0.20961000000000002  1.0000
  C   C65       1.0  0.9342  0.4709  0.067  1.0000
  C   C66       1.0  0.10979  0.2835500000000001  0.9768400000000002  1.0000
  C   C67       1.0  0.51681  0.53584  0.6005  1.0000
  C   C68       1.0  0.18665  0.7800000000000002  0.7534500000000001  1.0000
  C   C69       1.0  0.18346999999999997  0.77927  0.0751  1.0000
  C   C70       1.0  0.5956999999999998  0.63361  0.54107  1.0000
  C   C71       1.0  0.4676299999999999  0.38115  0.41038  1.0000
  C   C72       1.0  0.8165299999999998  0.22073000000000004  0.9249000000000002  1.0000
  C   C73       1.0  0.8599899999999998  0.22060000000000005  0.18405  1.0000
  C   C74       1.0  0.3604899999999999  0.07476  0.30358  1.0000
  C   C75       1.0  0.3915899999999999  0.28336  0.4768800000000001  1.0000
  C   C76       1.0  0.0658  0.52909  0.933  1.0000
  C   C77       1.0  0.8291099999999999  0.21136  0.80803  1.0000
  C   C78       1.0  0.1417  0.43323  0.99358  1.0000
  C   C79       1.0  0.33723  0.13741  0.66587  1.0000
  C   C80       1.0  0.7101799999999998  0.82295  0.75489  1.0000
  C   C81       1.0  0.73629  0.96483  0.27208  1.0000
  C   C82       1.0  0.6399499999999999  0.22225  0.68402  1.0000
  C   C83       1.0  0.9833199999999997  0.53584  0.10078  1.0000
  C   C84       1.0  0.5522399999999998  0.38329  0.57778  1.0000
  C   C85       1.0  0.32434  0.77019  0.14096  1.0000
  C   C86       1.0  0.40431  0.36639  0.45893000000000006  1.0000
  C   C87       1.0  0.32897999999999994  0.7886900000000001  0.69213  1.0000
  C   C88       1.0  0.7632  0.96536  0.77237  1.0000
  C   C89       1.0  0.43403  0.52887  0.43349000000000004  1.0000
  C   C90       1.0  0.48319999999999996  0.46416  0.3995  1.0000
  C   C91       1.0  0.26849  0.11689  0.7143  1.0000
  C   C92       1.0  0.94779  0.38317  0.07875000000000001  1.0000
  C   C93       1.0  0.86818  0.22861000000000004  0.30159  1.0000
  C   C94       1.0  0.6419399999999998  0.5673  0.50646  1.0000
  C   C95       1.0  0.32288  0.97465  0.50329  1.0000
  C   C96       1.0  0.90426  0.63334  0.04091  1.0000
  C   C97       1.0  0.1286  0.51375  0.98053  1.0000
  C   C98       1.0  0.05222  0.61683  0.9212500000000001  1.0000
  C   C99       1.0  0.29992  0.01493  0.27254  1.0000
  C   C100      1.0  0.37117  0.51333  0.48083  1.0000
  O   O1        1.0  0.80532  0.21534000000000011  0.13663  1.0000
  O   O2        1.0  0.98513  0.63059  0.8842300000000001  1.0000
  O   O3        1.0  0.35515  0.27363  0.52757  1.0000
  O   O4        1.0  0.9864999999999999  0.16742  0.05006000000000001  1.0000
  O   O5        1.0  0.84715  0.78698  0.84007  1.0000
  O   O6        1.0  0.19467999999999994  0.7846600000000002  0.86337  1.0000
  O   O7        1.0  0.10661  0.67006  0.95  1.0000
  O   O8        1.0  0.51356  0.16847  0.55018  1.0000
  O   O9        1.0  0.14819  0.27361000000000013  0.02688  1.0000
  O   O10       1.0  0.013499999999999998  0.8325799999999999  0.94994  1.0000
  O   O11       1.0  0.9937799999999998  0.89777  0.12816  1.0000
  O   O12       1.0  0.64485  0.72636  0.47243  1.0000
  O   O13       1.0  0.78329  0.08588  0.02789  1.0000
  O   O14       1.0  0.3471299999999999  0.21366  0.66019  1.0000
  O   O15       1.0  0.69434  0.21918000000000007  0.63665  1.0000
  O   O16       1.0  0.55098  0.22620000000000004  0.68427  1.0000
  O   O17       1.0  0.00622  0.10223000000000004  0.8718400000000001  1.0000
  O   O18       1.0  0.49436999999999987  0.10229  0.37158  1.0000
  O   O19       1.0  0.9221899999999997  0.78119  0.06177  1.0000
  O   O20       1.0  0.30566  0.7808200000000002  0.36335  1.0000
  O   O21       1.0  0.44903  0.7738  0.31573  1.0000
  O   O22       1.0  0.98532  0.3223000000000001  0.8758  1.0000
  O   O23       1.0  0.7682599999999998  0.22682000000000002  0.9742300000000002  1.0000
  O   O24       1.0  0.92585  0.0212  0.13725  1.0000
  O   O25       1.0  0.4225999999999999  0.21867  0.43796  1.0000
  O   O26       1.0  0.51373  0.63045  0.38443000000000005  1.0000
  O   O27       1.0  0.01488  0.36941  0.11576  1.0000
  O   O28       1.0  0.07416  0.9788000000000001  0.8627500000000001  1.0000
  O   O29       1.0  0.09015  0.99199  0.00308  1.0000
  O   O30       1.0  0.42501  0.9797200000000001  0.36456  1.0000
  O   O31       1.0  0.07874999999999999  0.80152  0.19241000000000003  1.0000
  O   O32       1.0  0.40723  0.78982  0.57145  1.0000
  O   O33       1.0  0.57741  0.78132  0.56204  1.0000
  O   O34       1.0  0.621  0.92346  0.36546  1.0000
  O   O35       1.0  0.48537999999999987  0.6776800000000001  0.62441  1.0000
  O   O36       1.0  0.9073699999999998  0.21013  0.92885  1.0000
  O   O37       1.0  0.90985  0.008010000000000031  0.9969200000000001  1.0000
  O   O38       1.0  0.60564  0.33015  0.54779  1.0000
  O   O39       1.0  0.23175  0.77317  0.025770000000000005  1.0000
  O   O40       1.0  0.05119  0.77382  0.81589  1.0000
  O   O41       1.0  0.65287  0.78634  0.33981  1.0000
  O   O42       1.0  0.59277  0.21017999999999998  0.42855  1.0000
  O   O43       1.0  0.41138  0.9920600000000002  0.50331  1.0000
  O   O44       1.0  0.90763  0.78153  0.18092  1.0000
  O   O45       1.0  0.58862  0.007940000000000032  0.4966900000000001  1.0000
  O   O46       1.0  0.87921  0.9240300000000002  0.86559  1.0000
  O   O47       1.0  0.3789999999999999  0.07654000000000004  0.63454  1.0000
  O   O48       1.0  0.85181  0.72638  0.97312  1.0000
  O   O49       1.0  0.09263999999999997  0.78987  0.07115  1.0000
  O   O50       1.0  0.89339  0.32994  0.05  1.0000
  O   O51       1.0  0.4862699999999999  0.36955  0.61557  1.0000
  O   O52       1.0  0.57883  0.19852000000000006  0.30703  1.0000
  O   O53       1.0  0.73185  0.22700000000000004  0.47409  1.0000
  O   O54       1.0  0.7135099999999998  0.087  0.52824  1.0000
  O   O55       1.0  0.94882  0.22617  0.18411  1.0000
  O   O56       1.0  0.014689999999999996  0.6777  0.1242  1.0000
  O   O57       1.0  0.57499  0.02028  0.63543  1.0000
  O   O58       1.0  0.50563  0.8977100000000002  0.62841  1.0000
  O   O59       1.0  0.21671  0.9141100000000001  0.9721100000000001  1.0000
  O   O60       1.0  0.39436  0.66984  0.45221  1.0000
  O   O61       1.0  0.15286  0.21302  0.15993  1.0000
  O   O62       1.0  0.92125  0.19848000000000002  0.8075900000000001  1.0000
  O   O63       1.0  0.12079  0.07597  0.13441  1.0000
  O   O64       1.0  0.48645  0.83153  0.44982000000000005  1.0000
  O   O65       1.0  0.2865  0.913  0.47176  1.0000
  O   O66       1.0  0.42117  0.8014800000000002  0.69297  1.0000
  O   O67       1.0  0.5923399999999998  0.78162  0.68109  1.0000
  O   O68       1.0  0.07781999999999997  0.21880999999999998  0.93823  1.0000
  O   O69       1.0  0.26815  0.773  0.52591  1.0000
  O   O70       1.0  0.51462  0.32232  0.37559000000000003  1.0000
  O   O71       1.0  0.09236999999999997  0.21847  0.81908  1.0000
  O   O72       1.0  0.4076599999999999  0.21838000000000007  0.31891  1.0000
