data_image0
_chemical_formula_structural       Cd8H128C176N48O16
_chemical_formula_sum              "Cd8 H128 C176 N48 O16"
_cell_length_a       22.52362
_cell_length_b       22.52632
_cell_length_c       22.34368
_cell_angle_alpha    120.36972
_cell_angle_beta     120.37513
_cell_angle_gamma    89.9091

_symmetry_space_group_name_H-M    'P 1'
_symmetry_Int_Tables_number       1

loop_
  _symmetry_equiv_pos_as_xyz
  'x,y,z'

loop_
  _atom_site_type_symbol
  _atom_site_label
  _atom_site_symmetry_multiplicity
  _atom_site_fract_x
  _atom_site_fract_y
  _atom_site_fract_z
  _atom_site_occupancy
  Cd  Cd1       1.0  0.0979799999999999  0.6515899999999999  0.5146299999999998  1.0000
  Cd  Cd2       1.0  0.41629  0.54593  0.15030999999999994  1.0000
  Cd  Cd3       1.0  0.4161199999999999  0.86286  0.5138699999999998  1.0000
  Cd  Cd4       1.0  0.7328599999999998  0.60358  0.14984  1.0000
  Cd  Cd5       1.0  0.11253  0.84809  0.01437  1.0000
  Cd  Cd6       1.0  0.85435  0.1680499999999999  0.6504599999999998  1.0000
  Cd  Cd7       1.0  0.9016299999999999  0.16642999999999997  0.0143  1.0000
  Cd  Cd8       1.0  0.7961399999999998  0.48281999999999997  0.65006  1.0000
  H   H1        1.0  0.8631200000000001  0.40347  0.23116  1.0000
  H   H2        1.0  0.9481700000000002  0.70499  0.44127  1.0000
  H   H3        1.0  0.80465  0.6088499999999999  0.30708999999999986  1.0000
  H   H4        1.0  0.9427299999999997  0.49382  0.3787199999999999  1.0000
  H   H5        1.0  0.71431  0.5145399999999999  0.26315999999999995  1.0000
  H   H6        1.0  0.63078  0.28466  0.0604  1.0000
  H   H7        1.0  0.61012  0.47669999999999996  0.25388  1.0000
  H   H8        1.0  0.49762  0.5773  0.5051  1.0000
  H   H9        1.0  0.43261  0.6530499999999999  0.67536  1.0000
  H   H10       1.0  0.22071999999999997  0.6109099999999998  0.47288  1.0000
  H   H11       1.0  0.32319  0.6685999999999999  0.46346  1.0000
  H   H12       1.0  0.93163  0.5496999999999999  0.2641399999999999  1.0000
  H   H13       1.0  0.82744  0.46976999999999985  0.11022  1.0000
  H   H14       1.0  0.9664999999999999  0.35479  0.05705999999999999  1.0000
  H   H15       1.0  0.84641  0.37179  0.005129999999999998  1.0000
  H   H16       1.0  0.16372  0.29198  0.18443  1.0000
  H   H17       1.0  0.30752  0.59103  0.21999  1.0000
  H   H18       1.0  0.43244  0.51059  0.35819  1.0000
  H   H19       1.0  0.62363  0.63697  0.66939  1.0000
  H   H20       1.0  0.33525  0.6770500000000002  0.37791  1.0000
  H   H21       1.0  0.26855  0.52492  0.33705  1.0000
  H   H22       1.0  0.27789999999999987  0.40071  0.2863599999999999  1.0000
  H   H23       1.0  0.14765  0.5406  0.29105  1.0000
  H   H24       1.0  0.39991000000000004  0.7821299999999999  0.72573  1.0000
  H   H25       1.0  0.53077  0.3187299999999999  0.9955  1.0000
  H   H26       1.0  0.41575999999999996  0.35293  0.00496  1.0000
  H   H27       1.0  0.2679299999999999  0.78529  0.70874  1.0000
  H   H28       1.0  0.5866099999999997  0.5436099999999999  0.7748099999999998  1.0000
  H   H29       1.0  0.4535199999999999  0.54153  0.65918  1.0000
  H   H30       1.0  0.8678099999999999  0.31657  0.12888  1.0000
  H   H31       1.0  0.7274399999999999  0.09832  0.96194  1.0000
  H   H32       1.0  0.66152  0.18743999999999997  0.03127  1.0000
  H   H33       1.0  0.36765  0.8275  0.23069  1.0000
  H   H34       1.0  0.49299  0.73649  0.4410699999999999  1.0000
  H   H35       1.0  0.50265  0.69846  0.3073599999999999  1.0000
  H   H36       1.0  0.43500999999999995  0.8844699999999999  0.37775999999999993  1.0000
  H   H37       1.0  0.54856  0.7485299999999999  0.2630099999999999  1.0000
  H   H38       1.0  0.42991  0.7761799999999999  0.06085  1.0000
  H   H39       1.0  0.64384  0.77759  0.25438  1.0000
  H   H40       1.0  0.007329999999999977  0.9276599999999998  0.50479  1.0000
  H   H41       1.0  0.24289999999999995  0.022099999999999863  0.6752399999999997  1.0000
  H   H42       1.0  0.25108  0.86022  0.47192  1.0000
  H   H43       1.0  0.13982999999999995  0.7944  0.4631599999999999  1.0000
  H   H44       1.0  0.33212  0.71294  0.26207  1.0000
  H   H45       1.0  0.28157  0.63923  0.10805999999999998  1.0000
  H   H46       1.0  0.08994  0.70203  0.05641  1.0000
  H   H47       1.0  0.15748  0.63283  0.00372  1.0000
  H   H48       1.0  0.02072000000000002  0.8920099999999999  0.18451  1.0000
  H   H49       1.0  0.91172  0.6284  0.21952999999999995  1.0000
  H   H50       1.0  0.92558  0.84737  0.3575099999999999  1.0000
  H   H51       1.0  0.04580000000000003  0.03228  0.6692  1.0000
  H   H52       1.0  0.04204999999999993  0.7004599999999999  0.3777199999999999  1.0000
  H   H53       1.0  0.07007000000000001  0.8124699999999999  0.33792  1.0000
  H   H54       1.0  0.009010000000000002  0.8852899999999999  0.28656  1.0000
  H   H55       1.0  0.14478999999999997  0.75076  0.29146999999999995  1.0000
  H   H56       1.0  0.32640999999999987  0.9444999999999998  0.7257199999999998  1.0000
  H   H57       1.0  0.4648199999999999  0.6767399999999999  0.9958399999999997  1.0000
  H   H58       1.0  0.58938  0.6521  0.00563  1.0000
  H   H59       1.0  0.4411  0.92408  0.70816  1.0000
  H   H60       1.0  0.18888999999999992  0.23116999999999996  0.7752  1.0000
  H   H61       1.0  0.20587  0.11753999999999998  0.6592  1.0000
  H   H62       1.0  0.26098  0.8122199999999999  0.12858  1.0000
  H   H63       1.0  0.23458  0.8641599999999998  0.96242  1.0000
  H   H64       1.0  0.3698199999999999  0.8440199999999998  0.03153  1.0000
  H   H65       1.0  0.07776999999999992  0.61307  0.73083  1.0000
  H   H66       1.0  0.98621  0.6984499999999999  0.9406499999999998  1.0000
  H   H67       1.0  0.94834  0.55495  0.80681  1.0000
  H   H68       1.0  0.13489999999999983  0.6928299999999998  0.8783499999999997  1.0000
  H   H69       1.0  0.9987  0.46451  0.76278  1.0000
  H   H70       1.0  0.025879999999999893  0.3806999999999999  0.5603299999999998  1.0000
  H   H71       1.0  0.027529999999999954  0.36024999999999996  0.75368  1.0000
  H   H72       1.0  0.17778  0.24736999999999998  0.00498  1.0000
  H   H73       1.0  0.2722399999999999  0.18258  0.17544999999999994  1.0000
  H   H74       1.0  0.11151999999999981  0.9708499999999998  0.9727399999999998  1.0000
  H   H75       1.0  0.044539999999999885  0.07338999999999984  0.9632899999999998  1.0000
  H   H76       1.0  0.96379  0.68187  0.76375  1.0000
  H   H77       1.0  0.89063  0.57749  0.60992  1.0000
  H   H78       1.0  0.95259  0.71675  0.55746  1.0000
  H   H79       1.0  0.88371  0.59661  0.50516  1.0000
  H   H80       1.0  0.14207  0.91354  0.68439  1.0000
  H   H81       1.0  0.87857  0.05760999999999993  0.7195199999999999  1.0000
  H   H82       1.0  0.09743999999999997  0.18200999999999998  0.85788  1.0000
  H   H83       1.0  0.28218  0.37341  0.1691  1.0000
  H   H84       1.0  0.9505  0.0856099999999999  0.8775999999999998  1.0000
  H   H85       1.0  0.06212999999999988  0.018869999999999873  0.8371699999999997  1.0000
  H   H86       1.0  0.13529999999999992  0.027869999999999964  0.78617  1.0000
  H   H87       1.0  0.000510000000000013  0.8981399999999999  0.79134  1.0000
  H   H88       1.0  0.19375  0.15004999999999996  0.22573999999999994  1.0000
  H   H89       1.0  0.92656  0.28097  0.49535  1.0000
  H   H90       1.0  0.90194  0.16596  0.50466  1.0000
  H   H91       1.0  0.17342  0.018039999999999983  0.20853  1.0000
  H   H92       1.0  0.48134000000000005  0.33641  0.27525  1.0000
  H   H93       1.0  0.36773  0.20335  0.15954  1.0000
  H   H94       1.0  0.06235999999999988  0.6177099999999998  0.6288199999999998  1.0000
  H   H95       1.0  0.11367000000000002  0.47726  0.462  1.0000
  H   H96       1.0  0.09375000000000001  0.41122  0.53096  1.0000
  H   H97       1.0  0.6536499999999997  0.11840999999999986  0.7313899999999998  1.0000
  H   H98       1.0  0.9552399999999998  0.24293999999999988  0.9412399999999997  1.0000
  H   H99       1.0  0.85913  0.2524799999999999  0.8073499999999998  1.0000
  H   H100      1.0  0.7439899999999999  0.18594  0.87846  1.0000
  H   H101      1.0  0.76475  0.29866  0.76303  1.0000
  H   H102      1.0  0.53468  0.17992  0.56074  1.0000
  H   H103      1.0  0.72674  0.39388  0.75408  1.0000
  H   H104      1.0  0.82711  0.7574799999999999  0.00472  1.0000
  H   H105      1.0  0.9029700000000002  0.993  0.17517  1.0000
  H   H106      1.0  0.8613199999999999  0.0018399999999998938  0.9724299999999998  1.0000
  H   H107      1.0  0.91843  0.8900599999999997  0.9632699999999997  1.0000
  H   H108      1.0  0.79952  0.08208000000000001  0.76361  1.0000
  H   H109      1.0  0.71954  0.03209999999999999  0.60962  1.0000
  H   H110      1.0  0.60426  0.84037  0.55675  1.0000
  H   H111      1.0  0.62127  0.90809  0.50463  1.0000
  H   H112      1.0  0.5418199999999997  0.7707399999999998  0.6839799999999998  1.0000
  H   H113      1.0  0.8406899999999998  0.6620199999999999  0.7194899999999997  1.0000
  H   H114      1.0  0.76036  0.67555  0.85763  1.0000
  H   H115      1.0  0.88711  0.7959099999999999  0.16894999999999993  1.0000
  H   H116      1.0  0.92672  0.7923399999999999  0.87753  1.0000
  H   H117      1.0  0.77497  0.8187499999999999  0.83678  1.0000
  H   H118      1.0  0.65069  0.75848  0.78588  1.0000
  H   H119      1.0  0.79029  0.89358  0.7907299999999998  1.0000
  H   H120      1.0  0.03152999999999998  0.07602999999999996  0.22572999999999993  1.0000
  H   H121      1.0  0.56888  0.21463  0.49562  1.0000
  H   H122      1.0  0.60324  0.33895  0.50514  1.0000
  H   H123      1.0  0.03490999999999998  0.19096  0.20876  1.0000
  H   H124      1.0  0.79402  0.93895  0.2749299999999999  1.0000
  H   H125      1.0  0.79156  0.9561499999999998  0.15921  1.0000
  H   H126      1.0  0.56681  0.01146999999999988  0.6290899999999998  1.0000
  H   H127      1.0  0.34841  0.9852099999999998  0.46249  1.0000
  H   H128      1.0  0.43765999999999994  0.12039999999999997  0.53194  1.0000
  C   C1        1.0  0.80781  0.4015699999999999  0.21183999999999995  1.0000
  C   C2        1.0  0.9247099999999999  0.6469799999999999  0.4091499999999999  1.0000
  C   C3        1.0  0.7484  0.33670999999999995  0.14137999999999995  1.0000
  C   C4        1.0  0.7946999999999999  0.46491  0.25528  1.0000
  C   C5        1.0  0.85379  0.6006499999999999  0.3441099999999999  1.0000
  C   C6        1.0  0.92555  0.5387299999999999  0.3787199999999999  1.0000
  C   C7        1.0  0.72377  0.46458999999999995  0.22978999999999994  1.0000
  C   C8        1.0  0.66502  0.39908  0.15944999999999995  1.0000
  C   C9        1.0  0.6769099999999999  0.33497  0.11504999999999997  1.0000
  C   C10       1.0  0.5716  0.43977  0.18494  1.0000
  C   C11       1.0  0.02795  0.28751  0.12937  1.0000
  C   C12       1.0  0.46293999999999985  0.6018499999999998  0.5235699999999998  1.0000
  C   C13       1.0  0.3739399999999999  0.66396  0.5715099999999999  1.0000
  C   C14       1.0  0.4267599999999999  0.64502  0.62022  1.0000
  C   C15       1.0  0.2505999999999999  0.65926  0.5384499999999998  1.0000
  C   C16       1.0  0.3647999999999999  0.6530899999999997  0.4999099999999999  1.0000
  C   C17       1.0  0.40875  0.62075  0.47491  1.0000
  C   C18       1.0  0.47098999999999996  0.6136099999999999  0.5955299999999998  1.0000
  C   C19       1.0  0.93805  0.5054699999999999  0.2182  1.0000
  C   C20       1.0  0.006059999999999964  0.49491999999999997  0.24859999999999993  1.0000
  C   C21       1.0  0.0626  0.54222  0.34454  1.0000
  C   C22       1.0  0.8798399999999998  0.46089  0.13154  1.0000
  C   C23       1.0  0.09294  0.35562  0.18649  1.0000
  C   C24       1.0  0.016370000000000003  0.4387  0.19014  1.0000
  C   C25       1.0  0.9581  0.39625999999999995  0.10271  1.0000
  C   C26       1.0  0.08760000000000001  0.42635  0.21721  1.0000
  C   C27       1.0  0.8903699999999999  0.40624  0.07326999999999997  1.0000
  C   C28       1.0  0.16146  0.34714  0.21064  1.0000
  C   C29       1.0  0.33867  0.5872099999999998  0.27324  1.0000
  C   C30       1.0  0.40446999999999994  0.54508  0.34251  1.0000
  C   C31       1.0  0.5971099999999999  0.6107099999999998  0.6831899999999997  1.0000
  C   C32       1.0  0.35073  0.62983  0.35151  1.0000
  C   C33       1.0  0.2198199999999999  0.47763  0.2959099999999999  1.0000
  C   C34       1.0  0.22493  0.40776  0.2667499999999999  1.0000
  C   C35       1.0  0.15184  0.48644999999999994  0.27056  1.0000
  C   C36       1.0  0.3436  0.7479199999999999  0.67247  1.0000
  C   C37       1.0  0.52927  0.35518  0.04944999999999999  1.0000
  C   C38       1.0  0.47356  0.37376999999999994  0.05581  1.0000
  C   C39       1.0  0.2784299999999999  0.7489899999999998  0.6628599999999998  1.0000
  C   C40       1.0  0.57491  0.56344  0.73616  1.0000
  C   C41       1.0  0.5084999999999997  0.5623599999999997  0.6800199999999997  1.0000
  C   C42       1.0  0.8213  0.26934  0.09399  1.0000
  C   C43       1.0  0.74618  0.15703  0.00811  1.0000
  C   C44       1.0  0.71287  0.20051999999999998  0.04046  1.0000
  C   C45       1.0  0.40372  0.81013  0.21151  1.0000
  C   C46       1.0  0.48414  0.76223  0.4087999999999999  1.0000
  C   C47       1.0  0.39286  0.80468  0.14129  1.0000
  C   C48       1.0  0.46028  0.7902799999999999  0.25503  1.0000
  C   C49       1.0  0.49025  0.74359  0.34404  1.0000
  C   C50       1.0  0.45251  0.83975  0.37803  1.0000
  C   C51       1.0  0.5058  0.7651899999999998  0.22969  1.0000
  C   C52       1.0  0.4944  0.7605099999999999  0.1596  1.0000
  C   C53       1.0  0.43817  0.7802699999999999  0.11521  1.0000
  C   C54       1.0  0.6135  0.74553  0.18545999999999996  1.0000
  C   C55       1.0  0.10131999999999998  0.84132  0.129  1.0000
  C   C56       1.0  0.060489999999999926  0.92149  0.5233099999999998  1.0000
  C   C57       1.0  0.1974299999999999  0.90723  0.5712599999999998  1.0000
  C   C58       1.0  0.19348000000000007  0.97497  0.62001  1.0000
  C   C59       1.0  0.2872299999999999  0.87815  0.5376999999999997  1.0000
  C   C60       1.0  0.13481000000000007  0.84644  0.49962  1.0000
  C   C61       1.0  0.06585999999999993  0.8538599999999998  0.4745899999999999  1.0000
  C   C62       1.0  0.12454999999999988  0.9817199999999999  0.5953499999999998  1.0000
  C   C63       1.0  0.27972  0.7115299999999999  0.21651  1.0000
  C   C64       1.0  0.24247  0.7526999999999999  0.24732  1.0000
  C   C65       1.0  0.28241  0.8015  0.34327  1.0000
  C   C66       1.0  0.25078  0.6695899999999999  0.12975  1.0000
  C   C67       1.0  0.09373  0.8305599999999999  0.18635  1.0000
  C   C68       1.0  0.17365  0.75082  0.18933  1.0000
  C   C69       1.0  0.14402  0.70595  0.1018  1.0000
  C   C70       1.0  0.13000999999999996  0.79063  0.21705999999999995  1.0000
  C   C71       1.0  0.18196  0.66634  0.07189999999999998  1.0000
  C   C72       1.0  0.04946999999999997  0.86317  0.21071999999999994  1.0000
  C   C73       1.0  0.9339999999999998  0.6855799999999999  0.2726999999999999  1.0000
  C   C74       1.0  0.9376900000000001  0.7971199999999998  0.34193  1.0000
  C   C75       1.0  0.08624  0.07235000000000003  0.68307  1.0000
  C   C76       1.0  0.00022999999999999827  0.72125  0.35108  1.0000
  C   C77       1.0  0.07723999999999998  0.8184099999999999  0.29647  1.0000
  C   C78       1.0  0.04247  0.85879  0.26703  1.0000
  C   C79       1.0  0.11974  0.7842499999999998  0.2709  1.0000
  C   C80       1.0  0.32913  0.92498  0.67223  1.0000
  C   C81       1.0  0.52029  0.6943  0.04988  1.0000
  C   C82       1.0  0.5824500000000002  0.68213  0.05643  1.0000
  C   C83       1.0  0.38449999999999984  0.9140999999999999  0.6623199999999998  1.0000
  C   C84       1.0  0.1617299999999999  0.17265999999999995  0.7363799999999998  1.0000
  C   C85       1.0  0.17182999999999998  0.11755999999999994  0.68012  1.0000
  C   C86       1.0  0.27260000000000006  0.82472  0.09386  1.0000
  C   C87       1.0  0.26195  0.85142  0.00836  1.0000
  C   C88       1.0  0.32761  0.84016  0.04063  1.0000
  C   C89       1.0  0.060340000000000074  0.55781  0.71158  1.0000
  C   C90       1.0  0.012099999999999974  0.67498  0.90857  1.0000
  C   C91       1.0  0.05473000000000003  0.49832999999999994  0.64119  1.0000
  C   C92       1.0  0.04048999999999991  0.5448299999999998  0.7550099999999997  1.0000
  C   C93       1.0  0.9934999999999999  0.60405  0.84368  1.0000
  C   C94       1.0  0.08997999999999999  0.6757200000000001  0.87831  1.0000
  C   C95       1.0  0.015349999999999921  0.47392  0.72952  1.0000
  C   C96       1.0  0.01052  0.41509999999999997  0.65927  1.0000
  C   C97       1.0  0.030180000000000016  0.42688  0.61489  1.0000
  C   C98       1.0  0.9954499999999997  0.32170999999999983  0.6847399999999998  1.0000
  C   C99       1.0  0.09168999999999984  0.77792  0.6295899999999998  1.0000
  C   C100      1.0  0.17158  0.21282  0.023499999999999993  1.0000
  C   C101      1.0  0.15737  0.12401999999999999  0.07145  1.0000
  C   C102      1.0  0.22509  0.17671999999999993  0.12021999999999997  1.0000
  C   C103      1.0  0.12881  0.0007399999999999989  0.0383  1.0000
  C   C104      1.0  0.09654999999999989  0.11490999999999998  0.9997799999999999  1.0000
  C   C105      1.0  0.10394999999999988  0.15875999999999996  0.9747699999999998  1.0000
  C   C106      1.0  0.23181999999999994  0.22088  0.09554999999999997  1.0000
  C   C107      1.0  0.96234  0.68831  0.71803  1.0000
  C   C108      1.0  0.0032000000000000097  0.75639  0.74861  1.0000
  C   C109      1.0  0.05157  0.8129299999999999  0.84454  1.0000
  C   C110      1.0  0.92068  0.63  0.63142  1.0000
  C   C111      1.0  0.08081  0.84298  0.68681  1.0000
  C   C112      1.0  0.0013199999999998833  0.76666  0.6903799999999998  1.0000
  C   C113      1.0  0.9566000000000001  0.70833  0.60296  1.0000
  C   C114      1.0  0.040850000000000074  0.8378299999999999  0.71756  1.0000
  C   C115      1.0  0.91728  0.64053  0.57333  1.0000
  C   C116      1.0  0.11327000000000002  0.91141  0.71072  1.0000
  C   C117      1.0  0.93572  0.08861000000000004  0.7728  1.0000
  C   C118      1.0  0.04723000000000002  0.15427999999999992  0.84225  1.0000
  C   C119      1.0  0.32235  0.34690000000000004  0.18312  1.0000
  C   C120      1.0  0.9713599999999999  0.10075999999999988  0.8510999999999997  1.0000
  C   C121      1.0  0.06824000000000002  0.97007  0.79606  1.0000
  C   C122      1.0  0.10878000000000006  0.97498  0.76674  1.0000
  C   C123      1.0  0.03411999999999986  0.9021799999999998  0.7708199999999997  1.0000
  C   C124      1.0  0.17454  0.09374  0.1724  1.0000
  C   C125      1.0  0.94422  0.27943  0.54926  1.0000
  C   C126      1.0  0.93202  0.22372999999999987  0.5555699999999998  1.0000
  C   C127      1.0  0.16375  0.028559999999999995  0.16269  1.0000
  C   C128      1.0  0.42278  0.32470999999999994  0.23642999999999995  1.0000
  C   C129      1.0  0.36773  0.25833  0.18033  1.0000
  C   C130      1.0  0.07473999999999999  0.57119  0.59397  1.0000
  C   C131      1.0  0.10113000000000003  0.49599  0.50812  1.0000
  C   C132      1.0  0.08996000000000003  0.46267  0.54033  1.0000
  C   C133      1.0  0.6517499999999999  0.1542899999999999  0.7119999999999997  1.0000
  C   C134      1.0  0.8972099999999998  0.23432999999999987  0.9091199999999998  1.0000
  C   C135      1.0  0.58685  0.14327999999999996  0.64163  1.0000
  C   C136      1.0  0.71511  0.21069999999999997  0.75537  1.0000
  C   C137      1.0  0.8509100000000002  0.24037  0.84428  1.0000
  C   C138      1.0  0.78892  0.20314  0.87856  1.0000
  C   C139      1.0  0.71474  0.25601  0.72981  1.0000
  C   C140      1.0  0.6491899999999999  0.24450999999999987  0.6595899999999998  1.0000
  C   C141      1.0  0.58504  0.18834999999999996  0.61528  1.0000
  C   C142      1.0  0.68987  0.36339999999999995  0.68514  1.0000
  C   C143      1.0  0.53723  0.85144  0.62893  1.0000
  C   C144      1.0  0.85168  0.8106099999999999  0.0232  1.0000
  C   C145      1.0  0.9137899999999999  0.94758  0.07127999999999997  1.0000
  C   C146      1.0  0.8948799999999999  0.94359  0.11996  1.0000
  C   C147      1.0  0.90946  0.037659999999999985  0.038139999999999986  1.0000
  C   C148      1.0  0.90289  0.88496  0.99963  1.0000
  C   C149      1.0  0.87052  0.8160099999999999  0.9745399999999999  1.0000
  C   C150      1.0  0.86352  0.87467  0.09523999999999998  1.0000
  C   C151      1.0  0.75528  0.029719999999999976  0.71762  1.0000
  C   C152      1.0  0.7447199999999999  0.9922999999999997  0.7480599999999997  1.0000
  C   C153      1.0  0.79202  0.03189000000000003  0.84398  1.0000
  C   C154      1.0  0.71065  0.00112999999999999  0.63095  1.0000
  C   C155      1.0  0.60534  0.84353  0.68609  1.0000
  C   C156      1.0  0.68841  0.9235799999999997  0.6896899999999998  1.0000
  C   C157      1.0  0.6458799999999999  0.89433  0.6022899999999998  1.0000
  C   C158      1.0  0.6760399999999999  0.87954  0.7167599999999997  1.0000
  C   C159      1.0  0.65589  0.9324  0.57277  1.0000
  C   C160      1.0  0.5969899999999999  0.7992299999999998  0.7102699999999997  1.0000
  C   C161      1.0  0.8368199999999999  0.6842099999999999  0.77269  1.0000
  C   C162      1.0  0.79483  0.6877699999999998  0.84199  1.0000
  C   C163      1.0  0.8608999999999999  0.8363899999999999  0.18291999999999994  1.0000
  C   C164      1.0  0.87948  0.7504799999999999  0.8510299999999997  1.0000
  C   C165      1.0  0.7275399999999999  0.82616  0.79554  1.0000
  C   C166      1.0  0.6576899999999999  0.7918599999999998  0.7663499999999998  1.0000
  C   C167      1.0  0.7361899999999999  0.8687099999999999  0.7701399999999998  1.0000
  C   C168      1.0  0.9974599999999999  0.07903  0.17245  1.0000
  C   C169      1.0  0.6054399999999999  0.2700799999999998  0.5496099999999998  1.0000
  C   C170      1.0  0.6241  0.33211  0.556  1.0000
  C   C171      1.0  0.99871  0.13450999999999996  0.16279999999999994  1.0000
  C   C172      1.0  0.81372  0.91181  0.23613  1.0000
  C   C173      1.0  0.81245  0.9219699999999998  0.17995  1.0000
  C   C174      1.0  0.5195  0.023079999999999944  0.59427  1.0000
  C   C175      1.0  0.40714  0.012520000000000015  0.50861  1.0000
  C   C176      1.0  0.45065  0.07813  0.54098  1.0000
  N   N1        1.0  0.50032  0.42607  0.14023  1.0000
  N   N2        1.0  0.59288  0.39802999999999994  0.13289  1.0000
  N   N3        1.0  0.96828  0.60791  0.43054  1.0000
  N   N4        1.0  0.85452  0.5313  0.32442  1.0000
  N   N5        1.0  0.3720399999999999  0.5347399999999999  0.26796  1.0000
  N   N6        1.0  0.3938499999999999  0.6032799999999999  0.3972299999999999  1.0000
  N   N7        1.0  0.32522  0.69094  0.59275  1.0000
  N   N8        1.0  0.52245  0.59261  0.64529  1.0000
  N   N9        1.0  0.6297099999999999  0.5941099999999998  0.7383399999999998  1.0000
  N   N10       1.0  0.22151  0.69352  0.57956  1.0000
  N   N11       1.0  0.76088  0.27248  0.09551  1.0000
  N   N12       1.0  0.8133499999999999  0.20058  0.0419  1.0000
  N   N13       1.0  0.64016  0.7144599999999999  0.14093  1.0000
  N   N14       1.0  0.54011  0.7351  0.13326  1.0000
  N   N15       1.0  0.46159  0.82246  0.42982  1.0000
  N   N16       1.0  0.46958999999999995  0.79306  0.3240999999999999  1.0000
  N   N17       1.0  0.8955  0.73286  0.26731  1.0000
  N   N18       1.0  0.0029600000000000073  0.79361  0.39679  1.0000
  N   N19       1.0  0.2673499999999999  0.9014299999999998  0.5923699999999998  1.0000
  N   N20       1.0  0.12294999999999989  0.052529999999999896  0.6451899999999998  1.0000
  N   N21       1.0  0.109  0.14413999999999993  0.73841  1.0000
  N   N22       1.0  0.35756999999999983  0.88534  0.5787099999999997  1.0000
  N   N23       1.0  0.33456  0.8231  0.09544  1.0000
  N   N24       1.0  0.22852  0.8415699999999999  0.04198  1.0000
  N   N25       1.0  0.96436  0.2504599999999999  0.6399999999999998  1.0000
  N   N26       1.0  0.98504  0.34299  0.63273  1.0000
  N   N27       1.0  0.07254999999999989  0.7184999999999999  0.9299899999999998  1.0000
  N   N28       1.0  0.04319000000000007  0.6046899999999998  0.82407  1.0000
  N   N29       1.0  0.98298  0.12181999999999987  0.7676099999999998  1.0000
  N   N30       1.0  0.04370999999999988  0.1438199999999999  0.8969599999999998  1.0000
  N   N31       1.0  0.15164999999999995  0.07534999999999999  0.09268999999999997  1.0000
  N   N32       1.0  0.30263  0.2722899999999999  0.14540999999999996  1.0000
  N   N33       1.0  0.39416  0.37947  0.23834999999999995  1.0000
  N   N34       1.0  0.13567  0.9716399999999998  0.07934999999999998  1.0000
  N   N35       1.0  0.07309  0.51072  0.59537  1.0000
  N   N36       1.0  0.09141999999999997  0.5632199999999999  0.54198  1.0000
  N   N37       1.0  0.6763  0.38989  0.64046  1.0000
  N   N38       1.0  0.64811  0.29004999999999986  0.6330599999999997  1.0000
  N   N39       1.0  0.8580899999999998  0.21209999999999982  0.9303199999999998  1.0000
  N   N40       1.0  0.7815199999999999  0.21999999999999983  0.8244799999999998  1.0000
  N   N41       1.0  0.7843899999999999  0.6455999999999998  0.7673699999999998  1.0000
  N   N42       1.0  0.85302  0.75312  0.8967799999999998  1.0000
  N   N43       1.0  0.94078  0.017529999999999994  0.09258  1.0000
  N   N44       1.0  0.84265  0.8731199999999999  0.14507  1.0000
  N   N45       1.0  0.8444399999999999  0.8590999999999999  0.23818  1.0000
  N   N46       1.0  0.9436600000000002  0.1079  0.07931  1.0000
  N   N47       1.0  0.52261  0.08504999999999997  0.59587  1.0000
  N   N48       1.0  0.45071  0.97903  0.54226  1.0000
  O   O1        1.0  0.07305  0.6115499999999999  0.38311  1.0000
  O   O2        1.0  0.09209999999999996  0.5123899999999999  0.3814499999999999  1.0000
  O   O3        1.0  0.020130000000000002  0.23302  0.06284  1.0000
  O   O4        1.0  0.98441  0.28642000000000006  0.14954  1.0000
  O   O5        1.0  0.30915999999999993  0.77064  0.38187  1.0000
  O   O6        1.0  0.29161  0.86866  0.38019999999999987  1.0000
  O   O7        1.0  0.04247999999999999  0.82888  0.06229999999999999  1.0000
  O   O8        1.0  0.16506  0.8628299999999999  0.14923  1.0000
  O   O9        1.0  0.02068999999999984  0.8231999999999998  0.8828499999999998  1.0000
  O   O10       1.0  0.11838  0.8426  0.88174  1.0000
  O   O11       1.0  0.07952999999999999  0.77021  0.56313  1.0000
  O   O12       1.0  0.11305  0.73428  0.64962  1.0000
  O   O13       1.0  0.8614  0.05969999999999986  0.8825899999999998  1.0000
  O   O14       1.0  0.7620899999999999  0.039659999999999924  0.8808099999999998  1.0000
  O   O15       1.0  0.48277  0.79273  0.5622  1.0000
  O   O16       1.0  0.5361899999999998  0.9152499999999998  0.6492099999999997  1.0000
