data_image0
_chemical_formula_structural       Gd4H128C176N4Cl12O36
_chemical_formula_sum              "Gd4 H128 C176 N4 Cl12 O36"
_cell_length_a       12.3857
_cell_length_b       18.42936
_cell_length_c       24.64897
_cell_angle_alpha    90.0
_cell_angle_beta     90.0
_cell_angle_gamma    109.51304

_symmetry_space_group_name_H-M    'P 1'
_symmetry_Int_Tables_number       1

loop_
  _symmetry_equiv_pos_as_xyz
  'x,y,z'

loop_
  _atom_site_type_symbol
  _atom_site_label
  _atom_site_symmetry_multiplicity
  _atom_site_fract_x
  _atom_site_fract_y
  _atom_site_fract_z
  _atom_site_occupancy
  Gd  Gd1       1.0  0.2438200000000001  0.76962  0.787  1.0000
  Gd  Gd2       1.0  0.75616  0.23037  0.28699  1.0000
  Gd  Gd3       1.0  0.52373  0.7696  0.7129299999999998  1.0000
  Gd  Gd4       1.0  0.47626999999999997  0.23039999999999997  0.21292999999999995  1.0000
  H   H1        1.0  0.045889999999999945  0.85902  0.7664399999999999  1.0000
  H   H2        1.0  0.97548  0.96305  0.8014299999999999  1.0000
  H   H3        1.0  0.07859  0.04404  0.87928  1.0000
  H   H4        1.0  0.24895  0.01813  0.91911  1.0000
  H   H5        1.0  0.30811  0.91209  0.87962  1.0000
  H   H6        1.0  0.07707999999999997  0.55464  0.89501  1.0000
  H   H7        1.0  0.07111000000000002  0.80756  0.93325  1.0000
  H   H8        1.0  0.93112  0.79259  0.09422  1.0000
  H   H9        1.0  0.91131  0.65483  0.09906  1.0000
  H   H10       1.0  0.9899599999999998  0.4347  0.8986  1.0000
  H   H11       1.0  0.12378000000000003  0.44868  0.93145  1.0000
  H   H12       1.0  0.014419999999999999  0.30801  0.91497  1.0000
  H   H13       1.0  0.03331999999999996  0.32721  0.98565  1.0000
  H   H14       1.0  0.89856  0.31532  0.9544299999999998  1.0000
  H   H15       1.0  0.67878  0.36402  0.09233  1.0000
  H   H16       1.0  0.93166  0.43705  0.24557  1.0000
  H   H17       1.0  0.19721  0.64288  0.19418999999999997  1.0000
  H   H18       1.0  0.10988999999999997  0.63124  0.1029  1.0000
  H   H19       1.0  0.73182  0.34112  0.0049  1.0000
  H   H20       1.0  0.60861  0.3701  0.9987  1.0000
  H   H21       1.0  0.66247  0.33461  0.90689  1.0000
  H   H22       1.0  0.68877  0.43546  0.9090199999999999  1.0000
  H   H23       1.0  0.80451  0.39939  0.9152199999999999  1.0000
  H   H24       1.0  0.41872999999999994  0.83258  0.9071599999999997  1.0000
  H   H25       1.0  0.73716  0.97652  0.79493  1.0000
  H   H26       1.0  0.94025  0.15858  0.89914  1.0000
  H   H27       1.0  0.80894  0.10473  0.97578  1.0000
  H   H28       1.0  0.28878  0.83587  0.9709499999999998  1.0000
  H   H29       1.0  0.37099  0.7779  0.99005  1.0000
  H   H30       1.0  0.20805  0.76099  0.05514  1.0000
  H   H31       1.0  0.34195  0.80327  0.08915  1.0000
  H   H32       1.0  0.25876  0.861  0.06956  1.0000
  H   H33       1.0  0.95412  0.14098  0.26644  1.0000
  H   H34       1.0  0.024520000000000004  0.03695  0.30143  1.0000
  H   H35       1.0  0.9214100000000001  0.95596  0.37928  1.0000
  H   H36       1.0  0.75105  0.98188  0.4191099999999999  1.0000
  H   H37       1.0  0.69189  0.08792  0.37962  1.0000
  H   H38       1.0  0.92292  0.44537  0.39500999999999986  1.0000
  H   H39       1.0  0.92888  0.19245  0.43325  1.0000
  H   H40       1.0  0.06888  0.20741  0.59422  1.0000
  H   H41       1.0  0.08869  0.34517  0.59906  1.0000
  H   H42       1.0  0.010039999999999992  0.5653  0.3986  1.0000
  H   H43       1.0  0.87622  0.55132  0.43145  1.0000
  H   H44       1.0  0.98559  0.692  0.41497  1.0000
  H   H45       1.0  0.96668  0.67279  0.48565  1.0000
  H   H46       1.0  0.10144  0.68468  0.45442999999999995  1.0000
  H   H47       1.0  0.32122  0.63598  0.59233  1.0000
  H   H48       1.0  0.06834000000000003  0.56295  0.74557  1.0000
  H   H49       1.0  0.80278  0.35712  0.69419  1.0000
  H   H50       1.0  0.8901  0.36876  0.6029  1.0000
  H   H51       1.0  0.2681700000000001  0.65888  0.5049  1.0000
  H   H52       1.0  0.39139  0.6299  0.4986999999999999  1.0000
  H   H53       1.0  0.33753000000000005  0.66539  0.40689  1.0000
  H   H54       1.0  0.31123  0.56455  0.40902  1.0000
  H   H55       1.0  0.19549  0.60061  0.41522  1.0000
  H   H56       1.0  0.58127  0.16742  0.4071599999999999  1.0000
  H   H57       1.0  0.26285  0.02349  0.29492999999999997  1.0000
  H   H58       1.0  0.05974999999999999  0.84142  0.39915  1.0000
  H   H59       1.0  0.19106  0.89527  0.47578  1.0000
  H   H60       1.0  0.71122  0.16413  0.4709499999999999  1.0000
  H   H61       1.0  0.62901  0.2221  0.49005  1.0000
  H   H62       1.0  0.79195  0.23901  0.55514  1.0000
  H   H63       1.0  0.65805  0.19673  0.58915  1.0000
  H   H64       1.0  0.74124  0.139  0.56956  1.0000
  H   H65       1.0  0.81012  0.85807  0.73349  1.0000
  H   H66       1.0  0.9846199999999999  0.9615399999999998  0.6986199999999998  1.0000
  H   H67       1.0  0.9631899999999999  0.04239  0.62036  1.0000
  H   H68       1.0  0.76719  0.0175  0.58061  1.0000
  H   H69       1.0  0.6019899999999998  0.91203  0.61998  1.0000
  H   H70       1.0  0.47729999999999995  0.55571  0.60479  1.0000
  H   H71       1.0  0.73756  0.80846  0.5670699999999999  1.0000
  H   H72       1.0  0.8613899999999999  0.79305  0.40595  1.0000
  H   H73       1.0  0.74436  0.6552  0.40136  1.0000
  H   H74       1.0  0.44462  0.43559  0.60165  1.0000
  H   H75       1.0  0.32607  0.45043  0.56803  1.0000
  H   H76       1.0  0.29359  0.30922  0.58478  1.0000
  H   H77       1.0  0.29452  0.32895  0.5142  1.0000
  H   H78       1.0  0.41689  0.3162  0.54544  1.0000
  H   H79       1.0  0.68459  0.3633  0.40853  1.0000
  H   H80       1.0  0.50523  0.43762  0.25482  1.0000
  H   H81       1.0  0.44627  0.64387  0.30682  1.0000
  H   H82       1.0  0.52235  0.63178  0.39795  1.0000
  H   H83       1.0  0.6121799999999997  0.34162  0.4949599999999999  1.0000
  H   H84       1.0  0.76396  0.37097  0.50221  1.0000
  H   H85       1.0  0.67085  0.33383  0.59314  1.0000
  H   H86       1.0  0.74525  0.43461  0.59218  1.0000
  H   H87       1.0  0.59395  0.39899  0.58447  1.0000
  H   H88       1.0  0.41295  0.831  0.59258  1.0000
  H   H89       1.0  0.23822000000000007  0.97597  0.7048199999999999  1.0000
  H   H90       1.0  0.21855999999999998  0.1586  0.60048  1.0000
  H   H91       1.0  0.29515  0.10395  0.52385  1.0000
  H   H92       1.0  0.54806  0.8358  0.52913  1.0000
  H   H93       1.0  0.40793  0.77729  0.51088  1.0000
  H   H94       1.0  0.55309  0.75921  0.44586  1.0000
  H   H95       1.0  0.46001  0.80004  0.41148  1.0000
  H   H96       1.0  0.6007799999999999  0.85878  0.43003  1.0000
  H   H97       1.0  0.18987  0.14193  0.23349  1.0000
  H   H98       1.0  0.01538  0.03846  0.19861  1.0000
  H   H99       1.0  0.03680999999999992  0.9576099999999999  0.12035999999999998  1.0000
  H   H100      1.0  0.23281  0.9825  0.08061  1.0000
  H   H101      1.0  0.39801  0.08797  0.11997999999999998  1.0000
  H   H102      1.0  0.52269  0.44429  0.10478999999999998  1.0000
  H   H103      1.0  0.26243  0.19154  0.06707  1.0000
  H   H104      1.0  0.13861  0.20696  0.90595  1.0000
  H   H105      1.0  0.25564  0.3448  0.9013599999999998  1.0000
  H   H106      1.0  0.55538  0.56441  0.10165  1.0000
  H   H107      1.0  0.67393  0.54957  0.06803  1.0000
  H   H108      1.0  0.70641  0.69078  0.08478  1.0000
  H   H109      1.0  0.70548  0.67105  0.0142  1.0000
  H   H110      1.0  0.5831  0.6838  0.04543  1.0000
  H   H111      1.0  0.31541  0.6367  0.90853  1.0000
  H   H112      1.0  0.49477  0.56238  0.75482  1.0000
  H   H113      1.0  0.55373  0.35613  0.8068199999999999  1.0000
  H   H114      1.0  0.47765  0.36822  0.8979499999999999  1.0000
  H   H115      1.0  0.38781999999999994  0.65839  0.99496  1.0000
  H   H116      1.0  0.23603  0.62903  0.00221  1.0000
  H   H117      1.0  0.32913999999999993  0.66617  0.09313999999999997  1.0000
  H   H118      1.0  0.25475  0.56539  0.09218  1.0000
  H   H119      1.0  0.40605  0.60101  0.08446  1.0000
  H   H120      1.0  0.58705  0.169  0.09257999999999998  1.0000
  H   H121      1.0  0.76178  0.02403  0.20482  1.0000
  H   H122      1.0  0.78144  0.8414  0.10047999999999999  1.0000
  H   H123      1.0  0.70484  0.89605  0.023849999999999996  1.0000
  H   H124      1.0  0.45193  0.1642  0.02913  1.0000
  H   H125      1.0  0.59206  0.22271  0.01088  1.0000
  H   H126      1.0  0.44691  0.24079  0.94586  1.0000
  H   H127      1.0  0.53998  0.19996  0.91148  1.0000
  H   H128      1.0  0.3992200000000001  0.14123  0.93003  1.0000
  C   C1        1.0  0.08796999999999999  0.89531  0.80042  1.0000
  C   C2        1.0  0.049359999999999946  0.95331  0.81973  1.0000
  C   C3        1.0  0.10725999999999988  0.9987399999999999  0.8629299999999998  1.0000
  C   C4        1.0  0.20196999999999993  0.98452  0.88511  1.0000
  C   C5        1.0  0.2349599999999999  0.9252799999999999  0.86347  1.0000
  C   C6        1.0  0.9714999999999999  0.57102  0.02154  1.0000
  C   C7        1.0  0.006549999999999999  0.53734  0.97678  1.0000
  C   C8        1.0  0.05060999999999999  0.58104  0.92964  1.0000
  C   C9        1.0  0.06373000000000005  0.65848  0.9274  1.0000
  C   C10       1.0  0.02997000000000002  0.69536  0.97181  1.0000
  C   C11       1.0  0.03751000000000003  0.7739  0.9694  1.0000
  C   C12       1.0  0.001460000000000014  0.80697  0.01278  1.0000
  C   C13       1.0  0.95744  0.76459  0.06035  1.0000
  C   C14       1.0  0.94719  0.68786  0.06291  1.0000
  C   C15       1.0  0.98255  0.65043  0.01919  1.0000
  C   C16       1.0  0.1214  0.70377  0.87889  1.0000
  C   C17       1.0  0.030289999999999997  0.42413  0.93617  1.0000
  C   C18       1.0  0.99173  0.33871  0.9489299999999999  1.0000
  C   C19       1.0  0.91668  0.5211  0.06812  1.0000
  C   C20       1.0  0.81292  0.4621100000000001  0.05864  1.0000
  C   C21       1.0  0.7607100000000001  0.40868  0.09964  1.0000
  C   C22       1.0  0.81285  0.41113  0.14962  1.0000
  C   C23       1.0  0.91672  0.47175999999999996  0.16225  1.0000
  C   C24       1.0  0.9687200000000001  0.4796000000000001  0.21435  1.0000
  C   C25       1.0  0.06692  0.54074  0.22498999999999997  1.0000
  C   C26       1.0  0.11882000000000001  0.59606  0.18477999999999994  1.0000
  C   C27       1.0  0.06973999999999998  0.58912  0.13398  1.0000
  C   C28       1.0  0.96738  0.52812  0.12085  1.0000
  C   C29       1.0  0.75467  0.34744  0.18805  1.0000
  C   C30       1.0  0.69904  0.3843  0.98703  1.0000
  C   C31       1.0  0.7147499999999999  0.38883  0.92594  1.0000
  C   C32       1.0  0.61631  0.98128  0.9730999999999997  1.0000
  C   C33       1.0  0.51773  0.91755  0.96516  1.0000
  C   C34       1.0  0.49581000000000003  0.88163  0.91396  1.0000
  C   C35       1.0  0.57119  0.90796  0.87088  1.0000
  C   C36       1.0  0.67336  0.97282  0.8773199999999999  1.0000
  C   C37       1.0  0.75148  0.00436  0.83428  1.0000
  C   C38       1.0  0.84438  0.07002  0.8428199999999999  1.0000
  C   C39       1.0  0.8663800000000001  0.10683  0.8939199999999998  1.0000
  C   C40       1.0  0.79269  0.07674  0.93633  1.0000
  C   C41       1.0  0.6941  0.01001  0.92952  1.0000
  C   C42       1.0  0.53663  0.86566  0.8187399999999998  1.0000
  C   C43       1.0  0.34486  0.82674  0.00281  1.0000
  C   C44       1.0  0.28537  0.81221  0.05749  1.0000
  C   C45       1.0  0.91204  0.1047  0.30042  1.0000
  C   C46       1.0  0.95064  0.04669  0.31973  1.0000
  C   C47       1.0  0.8927400000000001  0.00126  0.36293  1.0000
  C   C48       1.0  0.79803  0.01549  0.38511  1.0000
  C   C49       1.0  0.76505  0.07473  0.36347  1.0000
  C   C50       1.0  0.02849999999999999  0.42898  0.52154  1.0000
  C   C51       1.0  0.99344  0.46267  0.47678  1.0000
  C   C52       1.0  0.9493899999999998  0.41897  0.4296399999999999  1.0000
  C   C53       1.0  0.93627  0.34153  0.42738999999999994  1.0000
  C   C54       1.0  0.97003  0.30465  0.47180999999999995  1.0000
  C   C55       1.0  0.96249  0.22611  0.46939999999999993  1.0000
  C   C56       1.0  0.9985299999999999  0.19304  0.51278  1.0000
  C   C57       1.0  0.04254999999999999  0.23540999999999998  0.56035  1.0000
  C   C58       1.0  0.05279999999999999  0.31214  0.56291  1.0000
  C   C59       1.0  0.017450000000000035  0.34957  0.51919  1.0000
  C   C60       1.0  0.87858  0.29623  0.37889  1.0000
  C   C61       1.0  0.96971  0.57587  0.43617  1.0000
  C   C62       1.0  0.008270000000000052  0.6613  0.44893  1.0000
  C   C63       1.0  0.08332000000000007  0.47890000000000005  0.56812  1.0000
  C   C64       1.0  0.18708  0.5379  0.55865  1.0000
  C   C65       1.0  0.23928  0.59132  0.59964  1.0000
  C   C66       1.0  0.18715  0.58887  0.64962  1.0000
  C   C67       1.0  0.08327999999999998  0.52825  0.66225  1.0000
  C   C68       1.0  0.03128  0.5204  0.71435  1.0000
  C   C69       1.0  0.93308  0.45926  0.7249899999999999  1.0000
  C   C70       1.0  0.8811800000000001  0.40395  0.68479  1.0000
  C   C71       1.0  0.93026  0.41088  0.63398  1.0000
  C   C72       1.0  0.03261000000000002  0.47188  0.62086  1.0000
  C   C73       1.0  0.24533  0.65256  0.68805  1.0000
  C   C74       1.0  0.30096  0.6157  0.48703  1.0000
  C   C75       1.0  0.28525  0.61118  0.42593999999999993  1.0000
  C   C76       1.0  0.38369  0.01873  0.4731  1.0000
  C   C77       1.0  0.48227  0.08245  0.46516  1.0000
  C   C78       1.0  0.50419  0.11837000000000002  0.41395999999999994  1.0000
  C   C79       1.0  0.42881  0.09204  0.37088  1.0000
  C   C80       1.0  0.32664  0.02718  0.37732  1.0000
  C   C81       1.0  0.24852000000000007  0.99564  0.33428  1.0000
  C   C82       1.0  0.15561999999999995  0.9299899999999999  0.34282  1.0000
  C   C83       1.0  0.13361999999999996  0.89318  0.39392  1.0000
  C   C84       1.0  0.20731  0.92326  0.4363299999999999  1.0000
  C   C85       1.0  0.30589999999999995  0.99  0.42952  1.0000
  C   C86       1.0  0.46336999999999995  0.13434  0.31874  1.0000
  C   C87       1.0  0.65514  0.17326  0.50281  1.0000
  C   C88       1.0  0.71462  0.18779  0.55749  1.0000
  C   C89       1.0  0.80462  0.89428  0.69936  1.0000
  C   C90       1.0  0.9012899999999999  0.95201  0.6801099999999999  1.0000
  C   C91       1.0  0.8891500000000001  0.9974100000000001  0.63676  1.0000
  C   C92       1.0  0.78043  0.98367  0.61456  1.0000
  C   C93       1.0  0.6881400000000001  0.9247100000000001  0.63616  1.0000
  C   C94       1.0  0.601  0.57165  0.47878  1.0000
  C   C95       1.0  0.53195  0.53798  0.52338  1.0000
  C   C96       1.0  0.53079  0.58186  0.57033  1.0000
  C   C97       1.0  0.59519  0.65917  0.57278  1.0000
  C   C98       1.0  0.66662  0.69602  0.52864  1.0000
  C   C99       1.0  0.73754  0.77453  0.53103  1.0000
  C   C100      1.0  0.8062800000000001  0.8075  0.48754999999999993  1.0000
  C   C101      1.0  0.80783  0.76504  0.43999  1.0000
  C   C102      1.0  0.74181  0.68832  0.43752  1.0000
  C   C103      1.0  0.66928  0.65099  0.48126999999999986  1.0000
  C   C104      1.0  0.58152  0.70404  0.6213099999999999  1.0000
  C   C105      1.0  0.3945600000000001  0.42526  0.56383  1.0000
  C   C106      1.0  0.34732  0.33991  0.55098  1.0000
  C   C107      1.0  0.60568  0.52155  0.43224  1.0000
  C   C108      1.0  0.65029  0.46236  0.44173999999999997  1.0000
  C   C109      1.0  0.6482300000000001  0.40847  0.40085  1.0000
  C   C110      1.0  0.59887  0.41117  0.35076  1.0000
  C   C111      1.0  0.5553700000000001  0.4719400000000001  0.33820999999999996  1.0000
  C   C112      1.0  0.51083  0.48004  0.2862  1.0000
  C   C113      1.0  0.47381  0.54146  0.2758  1.0000
  C   C114      1.0  0.47732  0.59668  0.31614  1.0000
  C   C115      1.0  0.51974  0.58954  0.36683  1.0000
  C   C116      1.0  0.56116  0.52833  0.37967  1.0000
  C   C117      1.0  0.59403  0.34762  0.3121  1.0000
  C   C118      1.0  0.68711  0.38483  0.51336  1.0000
  C   C119      1.0  0.67353  0.38847  0.57437  1.0000
  C   C120      1.0  0.36434  0.98028  0.52675  1.0000
  C   C121      1.0  0.39941999999999994  0.91655  0.53487  1.0000
  C   C122      1.0  0.3845  0.88007  0.58598  1.0000
  C   C123      1.0  0.33416000000000007  0.90613  0.62881  1.0000
  C   C124      1.0  0.29803  0.9716700000000001  0.62234  1.0000
  C   C125      1.0  0.25201  0.0036900000000000006  0.6654  1.0000
  C   C126      1.0  0.22575  0.06987  0.6568999999999999  1.0000
  C   C127      1.0  0.24060999999999996  0.1067  0.6058  1.0000
  C   C128      1.0  0.28368  0.07619  0.56338  1.0000
  C   C129      1.0  0.31512  0.00914  0.57022  1.0000
  C   C130      1.0  0.32294  0.86344  0.68103  1.0000
  C   C131      1.0  0.4823  0.82594  0.49752  1.0000
  C   C132      1.0  0.52619  0.81018  0.44288  1.0000
  C   C133      1.0  0.19538  0.10572  0.19936  1.0000
  C   C134      1.0  0.09869999999999998  0.04799  0.18011  1.0000
  C   C135      1.0  0.11084000000000001  0.00259  0.13676  1.0000
  C   C136      1.0  0.21957  0.01633  0.11455999999999998  1.0000
  C   C137      1.0  0.31185  0.07529  0.13616  1.0000
  C   C138      1.0  0.399  0.42835  0.97878  1.0000
  C   C139      1.0  0.46803999999999996  0.46202  0.02337  1.0000
  C   C140      1.0  0.46921  0.41814  0.07033  1.0000
  C   C141      1.0  0.40479999999999994  0.34083  0.07277  1.0000
  C   C142      1.0  0.33338  0.30398  0.028639999999999995  1.0000
  C   C143      1.0  0.26245  0.22547  0.031029999999999995  1.0000
  C   C144      1.0  0.19372  0.1925  0.98755  1.0000
  C   C145      1.0  0.19217  0.23496000000000003  0.93999  1.0000
  C   C146      1.0  0.25819  0.31169  0.9375199999999999  1.0000
  C   C147      1.0  0.33072  0.34901  0.98127  1.0000
  C   C148      1.0  0.41848  0.29597  0.12130999999999999  1.0000
  C   C149      1.0  0.60544  0.57474  0.06383  1.0000
  C   C150      1.0  0.65268  0.66009  0.05097999999999999  1.0000
  C   C151      1.0  0.39431999999999995  0.47845999999999994  0.93224  1.0000
  C   C152      1.0  0.34971  0.53764  0.9417399999999998  1.0000
  C   C153      1.0  0.35177  0.59153  0.9008499999999999  1.0000
  C   C154      1.0  0.40113  0.58883  0.85076  1.0000
  C   C155      1.0  0.44463  0.52806  0.83821  1.0000
  C   C156      1.0  0.48917  0.51996  0.7862  1.0000
  C   C157      1.0  0.52619  0.45855  0.7758  1.0000
  C   C158      1.0  0.52268  0.40333  0.81614  1.0000
  C   C159      1.0  0.4802600000000001  0.41047  0.86683  1.0000
  C   C160      1.0  0.43883  0.47168  0.8796699999999998  1.0000
  C   C161      1.0  0.40596  0.65238  0.8121  1.0000
  C   C162      1.0  0.31288  0.61517  0.013359999999999999  1.0000
  C   C163      1.0  0.32647  0.61153  0.07437  1.0000
  C   C164      1.0  0.63566  0.01972  0.02675  1.0000
  C   C165      1.0  0.60058  0.08345  0.03487  1.0000
  C   C166      1.0  0.61549  0.11993  0.08598  1.0000
  C   C167      1.0  0.6658400000000001  0.09387  0.12881  1.0000
  C   C168      1.0  0.70197  0.02833  0.12234  1.0000
  C   C169      1.0  0.74799  0.9963100000000001  0.1654  1.0000
  C   C170      1.0  0.77424  0.93013  0.1569  1.0000
  C   C171      1.0  0.7593899999999999  0.8933  0.1058  1.0000
  C   C172      1.0  0.71632  0.92381  0.06338  1.0000
  C   C173      1.0  0.68487  0.99086  0.07022  1.0000
  C   C174      1.0  0.67706  0.13657  0.18102999999999997  1.0000
  C   C175      1.0  0.5177  0.17407  0.9975199999999999  1.0000
  C   C176      1.0  0.47381  0.18983  0.94288  1.0000
  N   N1        1.0  0.17898000000000006  0.88077  0.82187  1.0000
  N   N2        1.0  0.82102  0.11924  0.32187  1.0000
  N   N3        1.0  0.69941  0.88002  0.6777199999999999  1.0000
  N   N4        1.0  0.30059  0.11997999999999999  0.17772  1.0000
  Cl  Cl1       1.0  0.008429999999999986  0.90317  0.00905  1.0000
  Cl  Cl2       1.0  0.13066  0.55019  0.2891  1.0000
  Cl  Cl3       1.0  0.93821  0.10977  0.7892  1.0000
  Cl  Cl4       1.0  0.9915599999999999  0.09684  0.50905  1.0000
  Cl  Cl5       1.0  0.86934  0.44981  0.7890999999999999  1.0000
  Cl  Cl6       1.0  0.06178999999999995  0.89023  0.2892  1.0000
  Cl  Cl7       1.0  0.89471  0.9038  0.49086  1.0000
  Cl  Cl8       1.0  0.42037  0.55191  0.21168  1.0000
  Cl  Cl9       1.0  0.17244  0.11031  0.7105  1.0000
  Cl  Cl10      1.0  0.10529  0.0962  0.9908699999999999  1.0000
  Cl  Cl11      1.0  0.57962  0.44809  0.71168  1.0000
  Cl  Cl12      1.0  0.82756  0.88969  0.2105  1.0000
  O   O1        1.0  0.21814999999999998  0.75675  0.88603  1.0000
  O   O2        1.0  0.0764  0.68777  0.8317299999999999  1.0000
  O   O3        1.0  0.99544  0.46155000000000007  0.9814  1.0000
  O   O4        1.0  0.64581  0.32669  0.19029  1.0000
  O   O5        1.0  0.81555  0.31612  0.21479999999999996  1.0000
  O   O6        1.0  0.76416  0.45949  0.00857  1.0000
  O   O7        1.0  0.42861000000000005  0.83648  0.8094  1.0000
  O   O8        1.0  0.61067  0.85804  0.78559  1.0000
  O   O9        1.0  0.44588  0.8947  0.00856  1.0000
  O   O10       1.0  0.7818399999999999  0.24324999999999997  0.3860399999999999  1.0000
  O   O11       1.0  0.9235599999999999  0.31222  0.33172  1.0000
  O   O12       1.0  0.004560000000000004  0.53845  0.4813999999999999  1.0000
  O   O13       1.0  0.35419  0.67331  0.6902899999999998  1.0000
  O   O14       1.0  0.18445  0.68388  0.7148  1.0000
  O   O15       1.0  0.23583  0.54051  0.50857  1.0000
  O   O16       1.0  0.5713900000000001  0.16352  0.3094  1.0000
  O   O17       1.0  0.38932999999999995  0.14196  0.28559  1.0000
  O   O18       1.0  0.55412  0.1053  0.50856  1.0000
  O   O19       1.0  0.5379  0.75724  0.61404  1.0000
  O   O20       1.0  0.60891  0.68739  0.66863  1.0000
  O   O21       1.0  0.46764  0.46219  0.51879  1.0000
  O   O22       1.0  0.68249  0.32718  0.30954  1.0000
  O   O23       1.0  0.50193  0.31614  0.28537  1.0000
  O   O24       1.0  0.69716  0.4601  0.49171  1.0000
  O   O25       1.0  0.40246999999999994  0.83565  0.69293  1.0000
  O   O26       1.0  0.23784999999999992  0.85451  0.7121799999999998  1.0000
  O   O27       1.0  0.44905  0.89397  0.49153  1.0000
  O   O28       1.0  0.4621  0.24275999999999998  0.11404  1.0000
  O   O29       1.0  0.39109  0.31261  0.16863  1.0000
  O   O30       1.0  0.53235  0.53781  0.01879  1.0000
  O   O31       1.0  0.31751  0.67282  0.80954  1.0000
  O   O32       1.0  0.49806999999999996  0.68386  0.78537  1.0000
  O   O33       1.0  0.30285  0.5399  0.99171  1.0000
  O   O34       1.0  0.59753  0.16435  0.19293  1.0000
  O   O35       1.0  0.76216  0.1455  0.21217999999999995  1.0000
  O   O36       1.0  0.55095  0.10604  0.99153  1.0000
