data_image0
_chemical_formula_structural       Cd8H72C128N8O32
_chemical_formula_sum              "Cd8 H72 C128 N8 O32"
_cell_length_a       10.7014
_cell_length_b       16.79045
_cell_length_c       24.8012
_cell_angle_alpha    90.0
_cell_angle_beta     90.0
_cell_angle_gamma    92.57510000000002

_space_group_name_H-M_alt    "P 1"
_space_group_IT_number       1

loop_
  _space_group_symop_operation_xyz
  'x, y, z'

loop_
  _atom_site_type_symbol
  _atom_site_label
  _atom_site_symmetry_multiplicity
  _atom_site_fract_x
  _atom_site_fract_y
  _atom_site_fract_z
  _atom_site_occupancy
  Cd  Cd1       1.0  0.012589999999999997  0.036299999999999985  0.7999  1.0000
  Cd  Cd2       1.0  0.27005  0.98467  0.14154  1.0000
  Cd  Cd3       1.0  0.98741  0.46369  0.2999  1.0000
  Cd  Cd4       1.0  0.72995  0.5153299999999997  0.64154  1.0000
  Cd  Cd5       1.0  0.98741  0.96369  0.2001  1.0000
  Cd  Cd6       1.0  0.72995  0.015329999999999998  0.8584600000000001  1.0000
  Cd  Cd7       1.0  0.012590000000000002  0.5363  0.7001  1.0000
  Cd  Cd8       1.0  0.27005  0.4846699999999999  0.35846  1.0000
  H   H1        1.0  0.8244100000000001  0.84381  0.6754100000000001  1.0000
  H   H2        1.0  0.81991  0.74983  0.59745  1.0000
  H   H3        1.0  0.19595  0.8294099999999998  0.5566  1.0000
  H   H4        1.0  0.20037000000000002  0.9208099999999998  0.63569  1.0000
  H   H5        1.0  0.90967  0.5494199999999998  0.47293999999999997  1.0000
  H   H6        1.0  0.08966  0.8249199999999998  0.47479  1.0000
  H   H7        1.0  0.97518  0.71208  0.32321999999999995  1.0000
  H   H8        1.0  0.06408  0.78367  0.24393000000000004  1.0000
  H   H9        1.0  0.35539  0.8910999999999998  0.34203  1.0000
  H   H10       1.0  0.26949999999999996  0.8176699999999998  0.42206  1.0000
  H   H11       1.0  0.26209  0.05145  0.73667  1.0000
  H   H12       1.0  0.42338  0.15198999999999993  0.7034599999999999  1.0000
  H   H13       1.0  0.22113  0.3321  0.78728  1.0000
  H   H14       1.0  0.08160999999999999  0.22176999999999997  0.8245000000000001  1.0000
  H   H15       1.0  0.58283  0.24056999999999998  0.72399  1.0000
  H   H16       1.0  0.72471  0.3436499999999999  0.68007  1.0000
  H   H17       1.0  0.43908  0.50273  0.6704  1.0000
  H   H18       1.0  0.28403999999999996  0.4047199999999999  0.71027  1.0000
  H   H19       1.0  0.17558999999999997  0.6561799999999998  0.17541  1.0000
  H   H20       1.0  0.18008  0.75016  0.09745  1.0000
  H   H21       1.0  0.80404  0.67059  0.0566  1.0000
  H   H22       1.0  0.7996299999999997  0.5791799999999998  0.13569  1.0000
  H   H23       1.0  0.09033  0.95058  0.97294  1.0000
  H   H24       1.0  0.9103299999999999  0.67508  0.97479  1.0000
  H   H25       1.0  0.02481999999999998  0.7879199999999997  0.82322  1.0000
  H   H26       1.0  0.93592  0.71633  0.74393  1.0000
  H   H27       1.0  0.6446100000000001  0.6089  0.8420300000000001  1.0000
  H   H28       1.0  0.7305  0.68233  0.9220600000000001  1.0000
  H   H29       1.0  0.73791  0.44855  0.23667  1.0000
  H   H30       1.0  0.57661  0.34801  0.20346  1.0000
  H   H31       1.0  0.77887  0.1679  0.28728  1.0000
  H   H32       1.0  0.91839  0.27823  0.3245  1.0000
  H   H33       1.0  0.41717  0.25943  0.22399000000000002  1.0000
  H   H34       1.0  0.27529  0.15634999999999993  0.18007  1.0000
  H   H35       1.0  0.56092  0.99727  0.1704  1.0000
  H   H36       1.0  0.71596  0.09527999999999998  0.21027  1.0000
  H   H37       1.0  0.17559  0.15618  0.32459  1.0000
  H   H38       1.0  0.18008  0.25017  0.40255  1.0000
  H   H39       1.0  0.80405  0.17059  0.44340000000000007  1.0000
  H   H40       1.0  0.79963  0.07917999999999997  0.36430999999999997  1.0000
  H   H41       1.0  0.09033  0.45057999999999987  0.52706  1.0000
  H   H42       1.0  0.9103299999999999  0.17507999999999999  0.52521  1.0000
  H   H43       1.0  0.02482  0.28792  0.67678  1.0000
  H   H44       1.0  0.93592  0.21632999999999994  0.75607  1.0000
  H   H45       1.0  0.64461  0.10889999999999997  0.65797  1.0000
  H   H46       1.0  0.7305  0.18232999999999994  0.57794  1.0000
  H   H47       1.0  0.73791  0.9485499999999998  0.26333  1.0000
  H   H48       1.0  0.57661  0.8480099999999998  0.29654  1.0000
  H   H49       1.0  0.77887  0.6679  0.21272  1.0000
  H   H50       1.0  0.91839  0.77823  0.1755  1.0000
  H   H51       1.0  0.41717  0.75943  0.27601  1.0000
  H   H52       1.0  0.27529  0.65635  0.31993  1.0000
  H   H53       1.0  0.56092  0.49727  0.32960000000000006  1.0000
  H   H54       1.0  0.71596  0.59528  0.28973  1.0000
  H   H55       1.0  0.8244100000000001  0.34382  0.8245899999999999  1.0000
  H   H56       1.0  0.81992  0.24983  0.90255  1.0000
  H   H57       1.0  0.19595  0.32941  0.9434  1.0000
  H   H58       1.0  0.20037000000000002  0.42081  0.86431  1.0000
  H   H59       1.0  0.90967  0.04942  0.02706  1.0000
  H   H60       1.0  0.08966  0.3249199999999999  0.02521  1.0000
  H   H61       1.0  0.97518  0.21207999999999994  0.17678  1.0000
  H   H62       1.0  0.06408  0.28367  0.25607  1.0000
  H   H63       1.0  0.35539  0.3910999999999999  0.15797  1.0000
  H   H64       1.0  0.2695  0.31767  0.07794  1.0000
  H   H65       1.0  0.26209000000000005  0.55145  0.76333  1.0000
  H   H66       1.0  0.42338  0.65199  0.7965400000000001  1.0000
  H   H67       1.0  0.22113  0.8321  0.71272  1.0000
  H   H68       1.0  0.08161  0.72177  0.6754999999999999  1.0000
  H   H69       1.0  0.58283  0.74056  0.77601  1.0000
  H   H70       1.0  0.7247  0.8436499999999998  0.8199300000000002  1.0000
  H   H71       1.0  0.43908  0.00273  0.8296  1.0000
  H   H72       1.0  0.28404  0.9047199999999997  0.78973  1.0000
  C   C1        1.0  0.019379999999999998  0.94099  0.70884  1.0000
  C   C2        1.0  0.012529999999999989  0.8880599999999997  0.66033  1.0000
  C   C3        1.0  0.90517  0.8398899999999998  0.64909  1.0000
  C   C4        1.0  0.9033300000000001  0.7873999999999998  0.60551  1.0000
  C   C5        1.0  0.007730000000000001  0.78307  0.57135  1.0000
  C   C6        1.0  0.11407999999999999  0.8327799999999997  0.58235  1.0000
  C   C7        1.0  0.11693  0.88395  0.62647  1.0000
  C   C8        1.0  0.0072499999999999995  0.7307  0.52337  1.0000
  C   C9        1.0  0.95473  0.6518999999999999  0.52247  1.0000
  C   C10       1.0  0.90947  0.60908  0.57283  1.0000
  C   C11       1.0  0.9523900000000001  0.6094399999999999  0.47385  1.0000
  C   C12       1.0  0.008329999999999988  0.6406299999999998  0.42679000000000006  1.0000
  C   C13       1.0  0.06228999999999998  0.7190699999999998  0.42712  1.0000
  C   C14       1.0  0.05755999999999998  0.7625099999999998  0.47532  1.0000
  C   C15       1.0  0.11587  0.75947  0.37874  1.0000
  C   C16       1.0  0.059059999999999994  0.7505599999999999  0.32782000000000006  1.0000
  C   C17       1.0  0.10782000000000001  0.7914799999999997  0.2832  1.0000
  C   C18       1.0  0.21463  0.84258  0.28794  1.0000
  C   C19       1.0  0.27231  0.8516299999999998  0.33845  1.0000
  C   C20       1.0  0.22337  0.81076  0.38314999999999994  1.0000
  C   C21       1.0  0.012769999999999988  0.5861099999999998  0.37898  1.0000
  C   C22       1.0  0.26018  0.11388  0.74824  1.0000
  C   C23       1.0  0.3474300000000001  0.17064  0.7289800000000001  1.0000
  C   C24       1.0  0.33395  0.25113  0.74196  1.0000
  C   C25       1.0  0.23571  0.27045  0.7762600000000001  1.0000
  C   C26       1.0  0.15593  0.20964999999999995  0.7961  1.0000
  C   C27       1.0  0.42090000000000005  0.3133099999999999  0.71955  1.0000
  C   C28       1.0  0.54689  0.29725  0.7115  1.0000
  C   C29       1.0  0.62668  0.35434  0.68759  1.0000
  C   C30       1.0  0.46632  0.44341999999999987  0.6817000000000001  1.0000
  C   C31       1.0  0.38077  0.38873999999999986  0.70468  1.0000
  C   C32       1.0  0.26714  0.88588  0.23977  1.0000
  C   C33       1.0  0.9806099999999999  0.559  0.20883999999999997  1.0000
  C   C34       1.0  0.98747  0.61193  0.16033  1.0000
  C   C35       1.0  0.09483  0.66011  0.14909  1.0000
  C   C36       1.0  0.09667000000000002  0.7126  0.10551  1.0000
  C   C37       1.0  0.9922600000000001  0.7169299999999997  0.07135  1.0000
  C   C38       1.0  0.88592  0.66722  0.08235  1.0000
  C   C39       1.0  0.88307  0.61604  0.12647  1.0000
  C   C40       1.0  0.99274  0.7692999999999998  0.02337  1.0000
  C   C41       1.0  0.04526999999999999  0.8481  0.022469999999999997  1.0000
  C   C42       1.0  0.09052999999999999  0.8909199999999998  0.07283  1.0000
  C   C43       1.0  0.047610000000000006  0.89056  0.97385  1.0000
  C   C44       1.0  0.9916700000000002  0.85937  0.92679  1.0000
  C   C45       1.0  0.9377100000000002  0.7809199999999997  0.9271199999999999  1.0000
  C   C46       1.0  0.94244  0.73749  0.9753200000000001  1.0000
  C   C47       1.0  0.88412  0.7405199999999997  0.87874  1.0000
  C   C48       1.0  0.94093  0.74944  0.82782  1.0000
  C   C49       1.0  0.89218  0.7085099999999998  0.7831999999999999  1.0000
  C   C50       1.0  0.78537  0.6574199999999998  0.78794  1.0000
  C   C51       1.0  0.72769  0.64837  0.83845  1.0000
  C   C52       1.0  0.77662  0.6892399999999999  0.88315  1.0000
  C   C53       1.0  0.9872200000000001  0.91389  0.87898  1.0000
  C   C54       1.0  0.73982  0.38612  0.24824000000000002  1.0000
  C   C55       1.0  0.65257  0.3293599999999999  0.22898  1.0000
  C   C56       1.0  0.66604  0.24887  0.24196000000000004  1.0000
  C   C57       1.0  0.76428  0.22954999999999995  0.27626  1.0000
  C   C58       1.0  0.8440700000000001  0.29035  0.2961  1.0000
  C   C59       1.0  0.5791  0.18669  0.21955  1.0000
  C   C60       1.0  0.45311000000000007  0.20275  0.2115  1.0000
  C   C61       1.0  0.37332  0.14566  0.18759  1.0000
  C   C62       1.0  0.53368  0.05658  0.1817  1.0000
  C   C63       1.0  0.61922  0.11125999999999997  0.20468  1.0000
  C   C64       1.0  0.7328599999999998  0.6141199999999998  0.73977  1.0000
  C   C65       1.0  0.98062  0.05899999999999998  0.29116  1.0000
  C   C66       1.0  0.98747  0.11192999999999999  0.33967  1.0000
  C   C67       1.0  0.09483  0.16010999999999995  0.35091  1.0000
  C   C68       1.0  0.09667000000000002  0.21259999999999996  0.39449  1.0000
  C   C69       1.0  0.9922600000000001  0.21692999999999996  0.42865000000000003  1.0000
  C   C70       1.0  0.88592  0.16722  0.41765  1.0000
  C   C71       1.0  0.88307  0.11603999999999998  0.37353  1.0000
  C   C72       1.0  0.99274  0.2692999999999999  0.47663  1.0000
  C   C73       1.0  0.04527  0.3481  0.47752999999999995  1.0000
  C   C74       1.0  0.09053  0.39092  0.42717  1.0000
  C   C75       1.0  0.047610000000000006  0.39056  0.52615  1.0000
  C   C76       1.0  0.9916700000000002  0.3593699999999999  0.57321  1.0000
  C   C77       1.0  0.9377100000000002  0.28092  0.57288  1.0000
  C   C78       1.0  0.94244  0.23748999999999995  0.52468  1.0000
  C   C79       1.0  0.88412  0.24052  0.62126  1.0000
  C   C80       1.0  0.9409400000000001  0.24944  0.67218  1.0000
  C   C81       1.0  0.89218  0.20852  0.7168000000000001  1.0000
  C   C82       1.0  0.78537  0.15741999999999995  0.71206  1.0000
  C   C83       1.0  0.72769  0.14837  0.6615500000000001  1.0000
  C   C84       1.0  0.77662  0.18924  0.61685  1.0000
  C   C85       1.0  0.98723  0.41388999999999987  0.62102  1.0000
  C   C86       1.0  0.73981  0.8861199999999998  0.25176  1.0000
  C   C87       1.0  0.65256  0.82936  0.27102  1.0000
  C   C88       1.0  0.66604  0.74887  0.25804  1.0000
  C   C89       1.0  0.76428  0.72954  0.22374  1.0000
  C   C90       1.0  0.8440700000000001  0.79035  0.2039  1.0000
  C   C91       1.0  0.5791  0.68669  0.28045  1.0000
  C   C92       1.0  0.45311000000000007  0.70275  0.2885  1.0000
  C   C93       1.0  0.37331  0.64566  0.31241  1.0000
  C   C94       1.0  0.53368  0.55658  0.3183  1.0000
  C   C95       1.0  0.6192199999999999  0.6112599999999998  0.29532  1.0000
  C   C96       1.0  0.73286  0.11411999999999997  0.7602300000000001  1.0000
  C   C97       1.0  0.019379999999999998  0.441  0.79116  1.0000
  C   C98       1.0  0.012530000000000003  0.38807  0.83967  1.0000
  C   C99       1.0  0.90517  0.3398899999999999  0.85091  1.0000
  C   C100      1.0  0.9033300000000001  0.2874  0.89449  1.0000
  C   C101      1.0  0.007729999999999998  0.28306999999999993  0.92865  1.0000
  C   C102      1.0  0.11408000000000001  0.33278  0.9176500000000001  1.0000
  C   C103      1.0  0.11693  0.38396  0.87353  1.0000
  C   C104      1.0  0.007259999999999996  0.23069999999999993  0.97663  1.0000
  C   C105      1.0  0.95473  0.1519  0.97753  1.0000
  C   C106      1.0  0.90947  0.10907999999999997  0.92717  1.0000
  C   C107      1.0  0.9523900000000001  0.10944  0.02615  1.0000
  C   C108      1.0  0.008329999999999997  0.14062999999999995  0.07321  1.0000
  C   C109      1.0  0.06228999999999999  0.21906999999999993  0.07288  1.0000
  C   C110      1.0  0.05756  0.26251  0.02468  1.0000
  C   C111      1.0  0.11588  0.25947  0.12126  1.0000
  C   C112      1.0  0.05906  0.25055999999999995  0.17218  1.0000
  C   C113      1.0  0.10782000000000001  0.29148  0.2168  1.0000
  C   C114      1.0  0.21463  0.3425799999999999  0.21206  1.0000
  C   C115      1.0  0.27231  0.3516299999999999  0.16155  1.0000
  C   C116      1.0  0.22337  0.31076  0.11685000000000001  1.0000
  C   C117      1.0  0.012770000000000002  0.08611  0.12102  1.0000
  C   C118      1.0  0.26018  0.61388  0.75176  1.0000
  C   C119      1.0  0.3474300000000001  0.67063  0.7710199999999999  1.0000
  C   C120      1.0  0.33395  0.75113  0.75804  1.0000
  C   C121      1.0  0.23571  0.77045  0.7237399999999999  1.0000
  C   C122      1.0  0.15593  0.70965  0.7039  1.0000
  C   C123      1.0  0.42089000000000004  0.8133099999999999  0.78045  1.0000
  C   C124      1.0  0.54689  0.7972499999999998  0.7885  1.0000
  C   C125      1.0  0.62668  0.85433  0.81241  1.0000
  C   C126      1.0  0.46631  0.9434199999999998  0.8182999999999999  1.0000
  C   C127      1.0  0.38077  0.88874  0.79532  1.0000
  C   C128      1.0  0.26714  0.3858799999999999  0.26023  1.0000
  N   N1        1.0  0.5867800000000001  0.42626  0.67235  1.0000
  N   N2        1.0  0.16556  0.13284  0.7812099999999998  1.0000
  N   N3        1.0  0.4132199999999999  0.07374  0.17234999999999998  1.0000
  N   N4        1.0  0.83444  0.36716  0.28121  1.0000
  N   N5        1.0  0.41321  0.57374  0.32765  1.0000
  N   N6        1.0  0.83444  0.86716  0.21879000000000004  1.0000
  N   N7        1.0  0.58678  0.9262599999999998  0.82765  1.0000
  N   N8        1.0  0.16556  0.63283  0.7187900000000002  1.0000
  O   O1        1.0  0.12585  0.95265  0.73156  1.0000
  O   O2        1.0  0.91959  0.9717  0.72581  1.0000
  O   O3        1.0  0.9802000000000001  0.61059  0.61323  1.0000
  O   O4        1.0  0.80046  0.5723699999999998  0.56837  1.0000
  O   O5        1.0  0.9127800000000001  0.54802  0.36522  1.0000
  O   O6        1.0  0.11806  0.5789799999999998  0.35471  1.0000
  O   O7        1.0  0.38103  0.90475  0.23581000000000002  1.0000
  O   O8        1.0  0.18598  0.90036  0.20173  1.0000
  O   O9        1.0  0.87415  0.5473499999999998  0.23156  1.0000
  O   O10       1.0  0.0804  0.5283  0.22581  1.0000
  O   O11       1.0  0.019789999999999988  0.88941  0.11323  1.0000
  O   O12       1.0  0.19953  0.92763  0.06837  1.0000
  O   O13       1.0  0.08721999999999999  0.9519799999999998  0.86522  1.0000
  O   O14       1.0  0.88194  0.92102  0.85471  1.0000
  O   O15       1.0  0.61897  0.59524  0.7358099999999999  1.0000
  O   O16       1.0  0.8140099999999999  0.59963  0.70173  1.0000
  O   O17       1.0  0.87415  0.04735  0.26844  1.0000
  O   O18       1.0  0.0804  0.0283  0.27419  1.0000
  O   O19       1.0  0.0198  0.38941  0.38677  1.0000
  O   O20       1.0  0.19953999999999997  0.4276299999999999  0.43163  1.0000
  O   O21       1.0  0.08722  0.4519799999999999  0.63478  1.0000
  O   O22       1.0  0.88194  0.4210199999999999  0.64529  1.0000
  O   O23       1.0  0.61897  0.09523999999999998  0.7641900000000001  1.0000
  O   O24       1.0  0.8140099999999999  0.09962999999999998  0.79827  1.0000
  O   O25       1.0  0.12585  0.4526499999999999  0.76844  1.0000
  O   O26       1.0  0.9195999999999999  0.4717  0.77419  1.0000
  O   O27       1.0  0.9802000000000001  0.11059  0.88677  1.0000
  O   O28       1.0  0.80046  0.07237  0.93163  1.0000
  O   O29       1.0  0.9127800000000001  0.04802  0.13478  1.0000
  O   O30       1.0  0.11806  0.07898  0.14529  1.0000
  O   O31       1.0  0.38103  0.40476  0.26419  1.0000
  O   O32       1.0  0.18599  0.40036  0.29827  1.0000
