data_image0
_chemical_formula_structural       Zn10H72C144N12O32F48
_chemical_formula_sum              "Zn10 H72 C144 N12 O32 F48"
_cell_length_a       7.3727
_cell_length_b       21.10174
_cell_length_c       26.34704
_cell_angle_alpha    96.86673
_cell_angle_beta     89.90476
_cell_angle_gamma    90.05839

_symmetry_space_group_name_H-M    'P 1'
_symmetry_Int_Tables_number       1

loop_
  _symmetry_equiv_pos_as_xyz
  'x,y,z'

loop_
  _atom_site_type_symbol
  _atom_site_label
  _atom_site_symmetry_multiplicity
  _atom_site_fract_x
  _atom_site_fract_y
  _atom_site_fract_z
  _atom_site_occupancy
  Zn  Zn1       1.0  0.44018  0.01742  0.34728  1.0000
  Zn  Zn2       1.0  0.79586  0.08976999999999999  0.40794  1.0000
  Zn  Zn3       1.0  0.4408999999999999  0.48153999999999997  0.15306000000000006  1.0000
  Zn  Zn4       1.0  0.7956599999999998  0.41055  0.09221000000000003  1.0000
  Zn  Zn5       1.0  0.5598399999999998  0.9825800000000001  0.6527100000000002  1.0000
  Zn  Zn6       1.0  0.20414  0.91026  0.59205  1.0000
  Zn  Zn7       1.0  0.5590999999999999  0.5184599999999999  0.8469300000000002  1.0000
  Zn  Zn8       1.0  0.20436  0.5894699999999999  0.90778  1.0000
  Zn  Zn9       1.0  0.0013499999999999992  0.99999  0.49945  1.0000
  Zn  Zn10      1.0  0.9992899999999999  0.4999799999999999  0.9997  1.0000
  H   H1        1.0  0.10204  0.18202000000000002  0.3554100000000001  1.0000
  H   H2        1.0  0.9755299999999998  0.29116  0.3561500000000001  1.0000
  H   H3        1.0  0.4490499999999999  0.36888  0.43760000000000004  1.0000
  H   H4        1.0  0.57546  0.26049  0.43463  1.0000
  H   H5        1.0  0.76585  0.4527399999999999  0.37612  1.0000
  H   H6        1.0  0.6440699999999998  0.46573  0.29118000000000005  1.0000
  H   H7        1.0  0.13741  0.39131  0.22058000000000005  1.0000
  H   H8        1.0  0.26004  0.37515  0.3057000000000001  1.0000
  H   H9        1.0  0.39216  0.8987799999999998  0.41947  1.0000
  H   H10       1.0  0.6581000000000001  0.88858  0.4945  1.0000
  H   H11       1.0  0.056589999999999994  0.6510699999999999  0.10410000000000001  1.0000
  H   H12       1.0  0.87121  0.7460799999999999  0.9778600000000002  1.0000
  H   H13       1.0  0.71027  0.82529  0.03722000000000001  1.0000
  H   H14       1.0  0.9194  0.7364399999999999  0.16451  1.0000
  H   H15       1.0  0.61602  0.8471099999999999  0.2514  1.0000
  H   H16       1.0  0.81959  0.8946499999999998  0.31999  1.0000
  H   H17       1.0  0.21682999999999994  0.93249  0.20852000000000004  1.0000
  H   H18       1.0  0.02171  0.88024  0.13918  1.0000
  H   H19       1.0  0.10107  0.31824  0.14464000000000002  1.0000
  H   H20       1.0  0.9722499999999997  0.20912999999999998  0.14367  1.0000
  H   H21       1.0  0.4443999999999999  0.1313  0.06132  1.0000
  H   H22       1.0  0.5730799999999998  0.23937999999999998  0.06472  1.0000
  H   H23       1.0  0.7646899999999998  0.04702  0.12439000000000001  1.0000
  H   H24       1.0  0.6434299999999997  0.03382  0.2095  1.0000
  H   H25       1.0  0.13626  0.10974000000000002  0.2793800000000001  1.0000
  H   H26       1.0  0.25780999999999993  0.12602999999999998  0.19413000000000002  1.0000
  H   H27       1.0  0.39272  0.60127  0.08107000000000002  1.0000
  H   H28       1.0  0.6583499999999999  0.61156  0.00577  1.0000
  H   H29       1.0  0.057559999999999986  0.84929  0.3955500000000001  1.0000
  H   H30       1.0  0.86781  0.7546999999999999  0.5217800000000001  1.0000
  H   H31       1.0  0.7061599999999998  0.67592  0.46242  1.0000
  H   H32       1.0  0.92009  0.76421  0.33522  1.0000
  H   H33       1.0  0.6176799999999998  0.65449  0.2475  1.0000
  H   H34       1.0  0.8218  0.6056899999999998  0.1794  1.0000
  H   H35       1.0  0.21466  0.56781  0.29163  1.0000
  H   H36       1.0  0.018589999999999995  0.62074  0.3604500000000001  1.0000
  H   H37       1.0  0.8979599999999998  0.8179799999999998  0.6445900000000001  1.0000
  H   H38       1.0  0.02448  0.70884  0.64385  1.0000
  H   H39       1.0  0.55095  0.63112  0.5624  1.0000
  H   H40       1.0  0.42455  0.73951  0.56536  1.0000
  H   H41       1.0  0.23415  0.54726  0.62387  1.0000
  H   H42       1.0  0.35593999999999987  0.53427  0.7088200000000002  1.0000
  H   H43       1.0  0.8626  0.6086899999999998  0.7794200000000001  1.0000
  H   H44       1.0  0.73996  0.62485  0.6943  1.0000
  H   H45       1.0  0.6078999999999998  0.10123999999999998  0.58057  1.0000
  H   H46       1.0  0.3421  0.11146  0.50549  1.0000
  H   H47       1.0  0.9434099999999997  0.34892  0.8959000000000003  1.0000
  H   H48       1.0  0.12881  0.25392  0.02214  1.0000
  H   H49       1.0  0.28975  0.17470000000000002  0.96278  1.0000
  H   H50       1.0  0.08061  0.26356  0.83548  1.0000
  H   H51       1.0  0.38399  0.15289  0.7486000000000003  1.0000
  H   H52       1.0  0.18039999999999995  0.10535  0.68001  1.0000
  H   H53       1.0  0.78318  0.06751000000000003  0.7914800000000002  1.0000
  H   H54       1.0  0.9783  0.11976000000000003  0.8608100000000002  1.0000
  H   H55       1.0  0.8989399999999997  0.68176  0.8553600000000002  1.0000
  H   H56       1.0  0.027759999999999993  0.79087  0.8563300000000003  1.0000
  H   H57       1.0  0.5556099999999998  0.8686999999999998  0.93868  1.0000
  H   H58       1.0  0.42692999999999987  0.76063  0.93527  1.0000
  H   H59       1.0  0.23532  0.9529799999999995  0.8756  1.0000
  H   H60       1.0  0.35657  0.9661799999999998  0.79049  1.0000
  H   H61       1.0  0.86374  0.89026  0.7206200000000001  1.0000
  H   H62       1.0  0.74219  0.8739699999999999  0.80586  1.0000
  H   H63       1.0  0.6072599999999998  0.39873999999999993  0.9189500000000002  1.0000
  H   H64       1.0  0.3415299999999999  0.38845999999999997  0.9942200000000001  1.0000
  H   H65       1.0  0.94245  0.1507  0.60445  1.0000
  H   H66       1.0  0.13218  0.24529999999999996  0.47822  1.0000
  H   H67       1.0  0.29384  0.32407  0.53758  1.0000
  H   H68       1.0  0.07991  0.23578999999999994  0.66478  1.0000
  H   H69       1.0  0.3823199999999999  0.34551  0.7524900000000001  1.0000
  H   H70       1.0  0.17822  0.39431  0.8205900000000003  1.0000
  H   H71       1.0  0.7853399999999998  0.43219  0.7083700000000003  1.0000
  H   H72       1.0  0.9814199999999997  0.37925999999999993  0.6395500000000002  1.0000
  C   C1        1.0  0.4273299999999999  0.14959  0.39297  1.0000
  C   C2        1.0  0.34749999999999986  0.21465  0.39452  1.0000
  C   C3        1.0  0.17768  0.22341  0.37258  1.0000
  C   C4        1.0  0.10654999999999998  0.28463  0.37362000000000006  1.0000
  C   C5        1.0  0.20224999999999996  0.33803  0.3969300000000001  1.0000
  C   C6        1.0  0.3715699999999999  0.3289  0.41912  1.0000
  C   C7        1.0  0.4439299999999999  0.26769  0.4176100000000001  1.0000
  C   C8        1.0  0.10971999999999997  0.40360999999999997  0.39895000000000014  1.0000
  C   C9        1.0  0.24427999999999994  0.4609  0.41079000000000004  1.0000
  C   C10       1.0  0.9693799999999998  0.40688  0.4436  1.0000
  C   C11       1.0  0.02183999999999999  0.41214  0.34721000000000013  1.0000
  C   C12       1.0  0.8485199999999998  0.43812999999999996  0.34275  1.0000
  C   C13       1.0  0.7785399999999998  0.44572  0.29478  1.0000
  C   C14       1.0  0.88118  0.42804  0.25063  1.0000
  C   C15       1.0  0.056359999999999986  0.40347  0.25488  1.0000
  C   C16       1.0  0.12529999999999994  0.3952  0.30277  1.0000
  C   C17       1.0  0.8013699999999998  0.43456999999999996  0.19969000000000003  1.0000
  C   C18       1.0  0.51167  0.92717  0.43003000000000013  1.0000
  C   C19       1.0  0.6425099999999999  0.92282  0.46734  1.0000
  C   C20       1.0  0.044749999999999984  0.64044  0.00015  1.0000
  C   C21       1.0  0.97264  0.69322  0.03683  1.0000
  C   C22       1.0  0.9867  0.6907999999999999  0.08976  1.0000
  C   C23       1.0  0.87876  0.74369  0.01876  1.0000
  C   C24       1.0  0.7890599999999998  0.7888199999999999  0.05277  1.0000
  C   C25       1.0  0.79992  0.7862499999999999  0.10561  1.0000
  C   C26       1.0  0.9055099999999998  0.73812  0.12364000000000003  1.0000
  C   C27       1.0  0.6877399999999998  0.82964  0.14513  1.0000
  C   C28       1.0  0.53353  0.7860299999999999  0.16222000000000006  1.0000
  C   C29       1.0  0.59601  0.88677  0.12243000000000001  1.0000
  C   C30       1.0  0.8058399999999998  0.8588  0.19014  1.0000
  C   C31       1.0  0.7483699999999998  0.86415  0.24127000000000004  1.0000
  C   C32       1.0  0.8620499999999998  0.8914999999999998  0.28021000000000007  1.0000
  C   C33       1.0  0.03227  0.9155999999999999  0.26868  1.0000
  C   C34       1.0  0.08650999999999998  0.9124999999999999  0.21742000000000003  1.0000
  C   C35       1.0  0.97578  0.88359  0.17865  1.0000
  C   C36       1.0  0.15484999999999993  0.94484  0.31041  1.0000
  C   C37       1.0  0.42722  0.34989999999999993  0.10684  1.0000
  C   C38       1.0  0.34563  0.28521  0.10513  1.0000
  C   C39       1.0  0.17560999999999993  0.27675  0.12721  1.0000
  C   C40       1.0  0.10335  0.21565  0.12609  1.0000
  C   C41       1.0  0.19854  0.16234  0.10257  1.0000
  C   C42       1.0  0.3677399999999999  0.17126999999999998  0.08007000000000003  1.0000
  C   C43       1.0  0.44128  0.23225  0.08172  1.0000
  C   C44       1.0  0.10767999999999997  0.09656999999999999  0.10109  1.0000
  C   C45       1.0  0.24603  0.04086  0.08981000000000001  1.0000
  C   C46       1.0  0.9686899999999998  0.09187999999999999  0.05638  1.0000
  C   C47       1.0  0.020079999999999994  0.08821  0.15295  1.0000
  C   C48       1.0  0.84721  0.06186  0.1577  1.0000
  C   C49       1.0  0.77763  0.05416  0.2058  1.0000
  C   C50       1.0  0.8803899999999998  0.07215  0.24982  1.0000
  C   C51       1.0  0.05503999999999999  0.09725  0.24523  1.0000
  C   C52       1.0  0.12347  0.10562  0.19724000000000005  1.0000
  C   C53       1.0  0.8025199999999998  0.06557999999999999  0.3011  1.0000
  C   C54       1.0  0.51191  0.57279  0.07035  1.0000
  C   C55       1.0  0.6424999999999997  0.57721  0.03285  1.0000
  C   C56       1.0  0.043809999999999995  0.8602800000000002  0.4995800000000001  1.0000
  C   C57       1.0  0.97142  0.8074999999999998  0.46291000000000004  1.0000
  C   C58       1.0  0.98654  0.8097599999999999  0.40997  1.0000
  C   C59       1.0  0.8760299999999998  0.75718  0.48089  1.0000
  C   C60       1.0  0.78578  0.7122399999999999  0.4468400000000001  1.0000
  C   C61       1.0  0.79743  0.7147  0.39395  1.0000
  C   C62       1.0  0.9048999999999998  0.76259  0.3760600000000001  1.0000
  C   C63       1.0  0.6854599999999997  0.67131  0.35418000000000005  1.0000
  C   C64       1.0  0.53079  0.71518  0.33752000000000004  1.0000
  C   C65       1.0  0.59513  0.6138399999999999  0.37721000000000005  1.0000
  C   C66       1.0  0.8046199999999998  0.64242  0.30919  1.0000
  C   C67       1.0  0.74907  0.6370899999999999  0.25794  1.0000
  C   C68       1.0  0.86311  0.60899  0.21925000000000003  1.0000
  C   C69       1.0  0.03200999999999999  0.58427  0.23107000000000005  1.0000
  C   C70       1.0  0.08499  0.58789  0.28242  1.0000
  C   C71       1.0  0.97378  0.6173599999999999  0.32093000000000005  1.0000
  C   C72       1.0  0.15463  0.55405  0.18959000000000004  1.0000
  C   C73       1.0  0.57267  0.85041  0.6070300000000001  1.0000
  C   C74       1.0  0.6524999999999997  0.7853499999999999  0.60547  1.0000
  C   C75       1.0  0.82233  0.7765899999999999  0.62742  1.0000
  C   C76       1.0  0.8934499999999997  0.7153699999999998  0.62638  1.0000
  C   C77       1.0  0.7977499999999997  0.66197  0.6030600000000002  1.0000
  C   C78       1.0  0.62843  0.6711  0.58088  1.0000
  C   C79       1.0  0.5560699999999998  0.7323100000000001  0.58238  1.0000
  C   C80       1.0  0.8902899999999999  0.59639  0.60105  1.0000
  C   C81       1.0  0.7557299999999998  0.5390999999999999  0.5892  1.0000
  C   C82       1.0  0.03063  0.5931199999999999  0.55639  1.0000
  C   C83       1.0  0.97817  0.58786  0.65279  1.0000
  C   C84       1.0  0.15148  0.56187  0.65725  1.0000
  C   C85       1.0  0.22145999999999993  0.55428  0.70521  1.0000
  C   C86       1.0  0.11882999999999998  0.57195  0.74937  1.0000
  C   C87       1.0  0.9436499999999998  0.5965299999999999  0.74512  1.0000
  C   C88       1.0  0.8746999999999998  0.6047999999999999  0.69723  1.0000
  C   C89       1.0  0.19864  0.56543  0.8003  1.0000
  C   C90       1.0  0.4883999999999999  0.07286  0.56999  1.0000
  C   C91       1.0  0.35776999999999987  0.07721  0.53263  1.0000
  C   C92       1.0  0.9552399999999998  0.35952999999999996  0.99984  1.0000
  C   C93       1.0  0.027400000000000004  0.3067599999999999  0.96317  1.0000
  C   C94       1.0  0.013319999999999999  0.30919  0.91024  1.0000
  C   C95       1.0  0.12126999999999998  0.2563  0.98123  1.0000
  C   C96       1.0  0.21096  0.21117000000000005  0.9472300000000001  1.0000
  C   C97       1.0  0.2001  0.21373999999999999  0.89438  1.0000
  C   C98       1.0  0.09449999999999997  0.26188  0.8763500000000002  1.0000
  C   C99       1.0  0.31226999999999994  0.17034999999999997  0.8548600000000001  1.0000
  C   C100      1.0  0.46648  0.21396  0.8377800000000002  1.0000
  C   C101      1.0  0.404  0.11323000000000001  0.87757  1.0000
  C   C102      1.0  0.19416999999999995  0.1412  0.80986  1.0000
  C   C103      1.0  0.25163  0.13585000000000003  0.75873  1.0000
  C   C104      1.0  0.13795  0.10849999999999999  0.71979  1.0000
  C   C105      1.0  0.9677299999999998  0.08440000000000002  0.7313200000000001  1.0000
  C   C106      1.0  0.9135  0.0875  0.78258  1.0000
  C   C107      1.0  0.02423  0.11642000000000004  0.8213500000000002  1.0000
  C   C108      1.0  0.8451499999999997  0.05517000000000002  0.6895900000000003  1.0000
  C   C109      1.0  0.5727899999999999  0.6501  0.8931600000000002  1.0000
  C   C110      1.0  0.6543799999999997  0.71479  0.89487  1.0000
  C   C111      1.0  0.8243899999999997  0.7232499999999998  0.8727900000000002  1.0000
  C   C112      1.0  0.8966599999999998  0.78435  0.87391  1.0000
  C   C113      1.0  0.80146  0.83766  0.89743  1.0000
  C   C114      1.0  0.63226  0.82873  0.9199200000000002  1.0000
  C   C115      1.0  0.55873  0.76775  0.9182700000000003  1.0000
  C   C116      1.0  0.8923299999999997  0.90343  0.89891  1.0000
  C   C117      1.0  0.7539799999999998  0.95914  0.9101800000000001  1.0000
  C   C118      1.0  0.03132  0.9081200000000001  0.94362  1.0000
  C   C119      1.0  0.9799299999999997  0.9117899999999999  0.8470400000000002  1.0000
  C   C120      1.0  0.1528  0.93814  0.8423000000000002  1.0000
  C   C121      1.0  0.22238  0.94584  0.7942000000000001  1.0000
  C   C122      1.0  0.11962  0.9278499999999997  0.7501800000000002  1.0000
  C   C123      1.0  0.94497  0.90275  0.7547700000000002  1.0000
  C   C124      1.0  0.87653  0.89438  0.80275  1.0000
  C   C125      1.0  0.19749  0.9344200000000001  0.69889  1.0000
  C   C126      1.0  0.4880699999999999  0.42723  0.92967  1.0000
  C   C127      1.0  0.35734  0.42280999999999996  0.9671300000000003  1.0000
  C   C128      1.0  0.9562199999999997  0.13969  0.50041  1.0000
  C   C129      1.0  0.028529999999999993  0.19249  0.5370900000000001  1.0000
  C   C130      1.0  0.013449999999999997  0.19022999999999995  0.5900300000000002  1.0000
  C   C131      1.0  0.12393999999999997  0.24281999999999995  0.51911  1.0000
  C   C132      1.0  0.21420999999999996  0.28775  0.55316  1.0000
  C   C133      1.0  0.20256  0.2853  0.60604  1.0000
  C   C134      1.0  0.0951  0.23741  0.62393  1.0000
  C   C135      1.0  0.31455  0.3286899999999999  0.64582  1.0000
  C   C136      1.0  0.4692099999999999  0.28482  0.6624800000000002  1.0000
  C   C137      1.0  0.4048699999999999  0.38615999999999995  0.62279  1.0000
  C   C138      1.0  0.19539  0.35757999999999995  0.69081  1.0000
  C   C139      1.0  0.25093999999999994  0.36290999999999995  0.74206  1.0000
  C   C140      1.0  0.1369  0.39101  0.7807400000000002  1.0000
  C   C141      1.0  0.96799  0.41572999999999993  0.7689300000000002  1.0000
  C   C142      1.0  0.9150199999999997  0.4121099999999999  0.71757  1.0000
  C   C143      1.0  0.026229999999999993  0.38264999999999993  0.67907  1.0000
  C   C144      1.0  0.8453899999999998  0.44595  0.81041  1.0000
  N   N1        1.0  0.5542299999999998  0.97867  0.40637000000000006  1.0000
  N   N2        1.0  0.70384  0.0054400000000000125  0.4280600000000001  1.0000
  N   N3        1.0  0.7591599999999997  0.9721200000000001  0.4651900000000001  1.0000
  N   N4        1.0  0.5543099999999997  0.52117  0.09386  1.0000
  N   N5        1.0  0.7035099999999999  0.49443  0.07185  1.0000
  N   N6        1.0  0.7587699999999998  0.52782  0.03468  1.0000
  N   N7        1.0  0.44569  0.02135000000000002  0.5936200000000001  1.0000
  N   N8        1.0  0.29621  0.9945599999999999  0.57186  1.0000
  N   N9        1.0  0.24120999999999995  0.02789  0.53471  1.0000
  N   N10       1.0  0.4457399999999999  0.47883999999999993  0.90613  1.0000
  N   N11       1.0  0.29646  0.5055599999999999  0.9281000000000001  1.0000
  N   N12       1.0  0.24102999999999994  0.47218  0.96525  1.0000
  O   O1        1.0  0.5817399999999998  0.14615  0.41449000000000014  1.0000
  O   O2        1.0  0.3366299999999999  0.10263  0.37087  1.0000
  O   O3        1.0  0.64257  0.4574699999999999  0.19881000000000004  1.0000
  O   O4        1.0  0.8989799999999999  0.41544999999999993  0.16027  1.0000
  O   O5        1.0  0.10039999999999998  0.5896099999999999  0.01753  1.0000
  O   O6        1.0  0.04436  0.6469999999999999  0.9524  1.0000
  O   O7        1.0  0.11824999999999998  0.9432  0.3566500000000001  1.0000
  O   O8        1.0  0.30010999999999993  0.9714099999999998  0.2938  1.0000
  O   O9        1.0  0.5824099999999999  0.35292  0.08554  1.0000
  O   O10       1.0  0.33666  0.39689  0.12894  1.0000
  O   O11       1.0  0.6456099999999998  0.04128  0.30294  1.0000
  O   O12       1.0  0.9001099999999997  0.0861  0.34011  1.0000
  O   O13       1.0  0.10081999999999998  0.9110099999999998  0.48222  1.0000
  O   O14       1.0  0.04220999999999999  0.85403  0.54737  1.0000
  O   O15       1.0  0.11876999999999997  0.55529  0.14329000000000003  1.0000
  O   O16       1.0  0.2988599999999999  0.52728  0.20646000000000006  1.0000
  O   O17       1.0  0.41825  0.85385  0.58551  1.0000
  O   O18       1.0  0.66336  0.8973699999999999  0.62913  1.0000
  O   O19       1.0  0.35743999999999987  0.54253  0.80119  1.0000
  O   O20       1.0  0.10102  0.58455  0.83973  1.0000
  O   O21       1.0  0.89938  0.41032  0.98243  1.0000
  O   O22       1.0  0.9556399999999998  0.353  0.047590000000000014  1.0000
  O   O23       1.0  0.8817299999999999  0.05681  0.64336  1.0000
  O   O24       1.0  0.69988  0.02859  0.70621  1.0000
  O   O25       1.0  0.4176  0.64708  0.9144600000000002  1.0000
  O   O26       1.0  0.66335  0.6031100000000001  0.8710600000000002  1.0000
  O   O27       1.0  0.35439999999999994  0.9587199999999998  0.69706  1.0000
  O   O28       1.0  0.09989999999999999  0.9139  0.65988  1.0000
  O   O29       1.0  0.89957  0.08889000000000001  0.5177200000000001  1.0000
  O   O30       1.0  0.9578699999999998  0.14597000000000002  0.4526100000000001  1.0000
  O   O31       1.0  0.8812399999999998  0.44470999999999994  0.85672  1.0000
  O   O32       1.0  0.7011599999999998  0.47272  0.79354  1.0000
  F   F1        1.0  0.3092899999999999  0.4667299999999999  0.4595800000000001  1.0000
  F   F2        1.0  0.39082  0.45395  0.37881  1.0000
  F   F3        1.0  0.16409  0.5173199999999999  0.4040600000000001  1.0000
  F   F4        1.0  0.04519999999999998  0.39051  0.4872700000000001  1.0000
  F   F5        1.0  0.8279799999999998  0.36541  0.43186000000000013  1.0000
  F   F6        1.0  0.89907  0.46648999999999996  0.45471000000000006  1.0000
  F   F7        1.0  0.3996899999999999  0.8189899999999999  0.18941000000000005  1.0000
  F   F8        1.0  0.5998999999999999  0.7427699999999999  0.19194000000000006  1.0000
  F   F9        1.0  0.45364999999999994  0.7521699999999999  0.12104000000000001  1.0000
  F   F10       1.0  0.51795  0.9275900000000001  0.15971  1.0000
  F   F11       1.0  0.71936  0.9207899999999999  0.09840000000000003  1.0000
  F   F12       1.0  0.4624699999999999  0.86928  0.08791  1.0000
  F   F13       1.0  0.30923  0.03467  0.04067  1.0000
  F   F14       1.0  0.3923799999999999  0.05073  0.12130000000000002  1.0000
  F   F15       1.0  0.17273999999999995  0.98403  0.09831  1.0000
  F   F16       1.0  0.04508  0.10794999999999999  0.01264  1.0000
  F   F17       1.0  0.82722  0.13311  0.06808000000000002  1.0000
  F   F18       1.0  0.8993999999999998  0.03199  0.04542  1.0000
  F   F19       1.0  0.4007099999999999  0.68273  0.30816  1.0000
  F   F20       1.0  0.5991799999999998  0.76135  0.3105400000000001  1.0000
  F   F21       1.0  0.4447699999999999  0.7462200000000001  0.3789400000000001  1.0000
  F   F22       1.0  0.51811  0.5715099999999999  0.34062  1.0000
  F   F23       1.0  0.71946  0.58079  0.4015900000000001  1.0000
  F   F24       1.0  0.46228  0.6319899999999999  0.4118800000000001  1.0000
  F   F25       1.0  0.69071  0.53327  0.54042  1.0000
  F   F26       1.0  0.60918  0.54605  0.6211800000000002  1.0000
  F   F27       1.0  0.83591  0.4826800000000001  0.59593  1.0000
  F   F28       1.0  0.9547999999999999  0.6094899999999999  0.51273  1.0000
  F   F29       1.0  0.17202999999999996  0.63459  0.56814  1.0000
  F   F30       1.0  0.10092999999999999  0.53351  0.54529  1.0000
  F   F31       1.0  0.6003199999999997  0.18100999999999998  0.81058  1.0000
  F   F32       1.0  0.40011  0.25723000000000007  0.8080500000000002  1.0000
  F   F33       1.0  0.5463599999999997  0.24782999999999997  0.87896  1.0000
  F   F34       1.0  0.4820599999999999  0.07241000000000003  0.8402900000000001  1.0000
  F   F35       1.0  0.28063999999999995  0.07920999999999997  0.9016  1.0000
  F   F36       1.0  0.5375399999999998  0.13072  0.91209  1.0000
  F   F37       1.0  0.69078  0.9653299999999995  0.95933  1.0000
  F   F38       1.0  0.6076299999999998  0.9492699999999998  0.8787000000000003  1.0000
  F   F39       1.0  0.8272599999999998  0.015970000000000047  0.9016900000000002  1.0000
  F   F40       1.0  0.9549199999999998  0.89205  0.9873500000000002  1.0000
  F   F41       1.0  0.17277999999999993  0.86689  0.93192  1.0000
  F   F42       1.0  0.10060999999999998  0.9680099999999999  0.9545800000000001  1.0000
  F   F43       1.0  0.5992899999999999  0.31727  0.69184  1.0000
  F   F44       1.0  0.4008199999999999  0.23865  0.68946  1.0000
  F   F45       1.0  0.5552399999999997  0.25378  0.62106  1.0000
  F   F46       1.0  0.4818999999999999  0.42849  0.65938  1.0000
  F   F47       1.0  0.28055  0.41921  0.5984000000000002  1.0000
  F   F48       1.0  0.53773  0.36801000000000006  0.5881100000000001  1.0000
