data_image0
_chemical_formula_structural       Co8H144C160N32O52
_chemical_formula_sum              "Co8 H144 C160 N32 O52"
_cell_length_a       13.55054
_cell_length_b       21.33796
_cell_length_c       23.890109999999996
_cell_angle_alpha    90.00178999999999
_cell_angle_beta     89.99865999999999
_cell_angle_gamma    90.09444

_space_group_name_H-M_alt    "P 1"
_space_group_IT_number       1

loop_
  _space_group_symop_operation_xyz
  'x, y, z'

loop_
  _atom_site_type_symbol
  _atom_site_label
  _atom_site_symmetry_multiplicity
  _atom_site_fract_x
  _atom_site_fract_y
  _atom_site_fract_z
  _atom_site_occupancy
  Co  Co1       1.0  0.35181  0.029319999999999992  0.20236  1.0000
  Co  Co2       1.0  0.35672  0.17947999999999997  0.12052999999999997  1.0000
  Co  Co3       1.0  0.6482100000000002  0.9706899999999998  0.70236  1.0000
  Co  Co4       1.0  0.64327  0.8205199999999998  0.62054  1.0000
  Co  Co5       1.0  0.14708  0.5293899999999999  0.20253  1.0000
  Co  Co6       1.0  0.14258  0.6792599999999998  0.12077999999999997  1.0000
  Co  Co7       1.0  0.8529200000000001  0.47059999999999996  0.70253  1.0000
  Co  Co8       1.0  0.8573900000000001  0.32076  0.62076  1.0000
  H   H1        1.0  0.51301  0.1011  0.13351999999999997  1.0000
  H   H2        1.0  0.50223  0.11757999999999999  0.19649  1.0000
  H   H3        1.0  0.11288  0.9580599999999999  0.11226  1.0000
  H   H4        1.0  0.92272  0.9993899999999999  0.97225  1.0000
  H   H5        1.0  0.16090000000000004  0.12529  0.01425  1.0000
  H   H6        1.0  0.1482  0.08963999999999998  0.31126  1.0000
  H   H7        1.0  0.91212  0.22008999999999998  0.34308  1.0000
  H   H8        1.0  0.11173  0.25188  0.20504999999999995  1.0000
  H   H9        1.0  0.7445900000000001  0.9831199999999998  0.8093499999999998  1.0000
  H   H10       1.0  0.7978000000000002  0.06618  0.87515  1.0000
  H   H11       1.0  0.73529  0.201  0.7455899999999998  1.0000
  H   H12       1.0  0.6792700000000003  0.11247  0.6858699999999999  1.0000
  H   H13       1.0  0.8792300000000002  0.19113999999999998  0.86328  1.0000
  H   H14       1.0  0.7862800000000001  0.23971999999999993  0.8336599999999997  1.0000
  H   H15       1.0  0.77719  0.22907  0.9395199999999999  1.0000
  H   H16       1.0  0.7576000000000003  0.14824999999999997  0.93212  1.0000
  H   H17       1.0  0.62209  0.25305  0.8886999999999999  1.0000
  H   H18       1.0  0.60317  0.1731  0.87351  1.0000
  H   H19       1.0  0.01274  0.56148  0.74523  1.0000
  H   H20       1.0  0.11209  0.5711299999999999  0.8303499999999998  1.0000
  H   H21       1.0  0.01821  0.38373999999999997  0.87567  1.0000
  H   H22       1.0  0.91993  0.38189  0.7885499999999999  1.0000
  H   H23       1.0  0.09392000000000003  0.51237  0.94524  1.0000
  H   H24       1.0  0.20296  0.50782  0.90622  1.0000
  H   H25       1.0  0.08832  0.39590999999999993  0.9556799999999999  1.0000
  H   H26       1.0  0.1905  0.3884499999999999  0.9105599999999999  1.0000
  H   H27       1.0  0.19628  0.45964999999999995  0.022419999999999995  1.0000
  H   H28       1.0  0.29728  0.44481999999999994  0.9781  1.0000
  H   H29       1.0  0.42974  0.09401999999999998  0.029369999999999993  1.0000
  H   H30       1.0  0.52462  0.10390999999999997  0.94025  1.0000
  H   H31       1.0  0.6123900000000001  0.28905  0.9947599999999998  1.0000
  H   H32       1.0  0.51691  0.27205999999999997  0.08033  1.0000
  H   H33       1.0  0.29073  0.20921  0.00442  1.0000
  H   H34       1.0  0.25003  0.30415  0.9497299999999999  1.0000
  H   H35       1.0  0.24652000000000002  0.4074899999999999  0.10479999999999998  1.0000
  H   H36       1.0  0.29231  0.30791999999999997  0.15353  1.0000
  H   H37       1.0  0.48697  0.8989  0.6335  1.0000
  H   H38       1.0  0.49774  0.8824399999999998  0.6964599999999999  1.0000
  H   H39       1.0  0.8871200000000001  0.04194  0.61225  1.0000
  H   H40       1.0  0.07728  0.00061  0.4722399999999999  1.0000
  H   H41       1.0  0.83911  0.8747  0.51424  1.0000
  H   H42       1.0  0.85177  0.9103699999999998  0.81125  1.0000
  H   H43       1.0  0.08788000000000003  0.7799299999999999  0.84309  1.0000
  H   H44       1.0  0.88829  0.7481099999999999  0.70505  1.0000
  H   H45       1.0  0.2554  0.01687  0.30934999999999996  1.0000
  H   H46       1.0  0.20220000000000002  0.9338199999999999  0.37515  1.0000
  H   H47       1.0  0.26471  0.79899  0.24558999999999997  1.0000
  H   H48       1.0  0.32072  0.8875199999999999  0.18586  1.0000
  H   H49       1.0  0.12078000000000003  0.8088599999999998  0.36328  1.0000
  H   H50       1.0  0.21372  0.76028  0.33366  1.0000
  H   H51       1.0  0.22280000000000003  0.7709299999999999  0.4395299999999999  1.0000
  H   H52       1.0  0.2424  0.85175  0.43213  1.0000
  H   H53       1.0  0.37791  0.7469399999999999  0.3887  1.0000
  H   H54       1.0  0.39683  0.8269099999999998  0.37350999999999995  1.0000
  H   H55       1.0  0.9872700000000002  0.43852  0.24521999999999997  1.0000
  H   H56       1.0  0.8879100000000002  0.42887  0.33034  1.0000
  H   H57       1.0  0.98179  0.6162599999999999  0.37566  1.0000
  H   H58       1.0  0.08008  0.61811  0.2885499999999999  1.0000
  H   H59       1.0  0.90608  0.4876299999999999  0.44522999999999996  1.0000
  H   H60       1.0  0.79704  0.49218  0.40621999999999997  1.0000
  H   H61       1.0  0.9116700000000002  0.6041  0.45568  1.0000
  H   H62       1.0  0.80949  0.61155  0.41056  1.0000
  H   H63       1.0  0.80373  0.54035  0.52242  1.0000
  H   H64       1.0  0.70271  0.55519  0.47811  1.0000
  H   H65       1.0  0.57025  0.90599  0.52937  1.0000
  H   H66       1.0  0.47538000000000014  0.8960899999999999  0.44026  1.0000
  H   H67       1.0  0.38761  0.7109599999999999  0.49476999999999993  1.0000
  H   H68       1.0  0.48307  0.72794  0.58032  1.0000
  H   H69       1.0  0.70925  0.7907899999999998  0.50443  1.0000
  H   H70       1.0  0.74997  0.6958599999999999  0.44972999999999996  1.0000
  H   H71       1.0  0.75348  0.59252  0.6048  1.0000
  H   H72       1.0  0.7076800000000001  0.69208  0.65353  1.0000
  H   H73       1.0  0.98588  0.6018799999999999  0.13432  1.0000
  H   H74       1.0  0.99713  0.6185999999999999  0.19715999999999997  1.0000
  H   H75       1.0  0.38503  0.45885  0.11192999999999999  1.0000
  H   H76       1.0  0.57613  0.50126  0.9723999999999999  1.0000
  H   H77       1.0  0.33737  0.6263099999999999  0.014549999999999999  1.0000
  H   H78       1.0  0.35063  0.5892599999999998  0.31189  1.0000
  H   H79       1.0  0.58851  0.71912  0.3427599999999999  1.0000
  H   H80       1.0  0.38777000000000006  0.7511299999999997  0.20528999999999994  1.0000
  H   H81       1.0  0.7558400000000002  0.48308999999999996  0.80977  1.0000
  H   H82       1.0  0.7017000000000001  0.56623  0.8752099999999998  1.0000
  H   H83       1.0  0.76443  0.70076  0.74537  1.0000
  H   H84       1.0  0.8209800000000003  0.6121599999999999  0.6859599999999998  1.0000
  H   H85       1.0  0.6205400000000001  0.6911899999999997  0.8630599999999998  1.0000
  H   H86       1.0  0.7137700000000001  0.7397  0.83338  1.0000
  H   H87       1.0  0.72282  0.72917  0.93929  1.0000
  H   H88       1.0  0.74218  0.64836  0.93194  1.0000
  H   H89       1.0  0.87779  0.75325  0.8884299999999998  1.0000
  H   H90       1.0  0.89654  0.6733299999999999  0.87315  1.0000
  H   H91       1.0  0.48769  0.061679999999999985  0.7452799999999999  1.0000
  H   H92       1.0  0.38801  0.07094  0.8301999999999999  1.0000
  H   H93       1.0  0.48212  0.8838499999999999  0.8755799999999999  1.0000
  H   H94       1.0  0.58078  0.88223  0.7886  1.0000
  H   H95       1.0  0.4062  0.012369999999999999  0.9451899999999999  1.0000
  H   H96       1.0  0.29726  0.0077199999999999986  0.90613  1.0000
  H   H97       1.0  0.41149  0.8959599999999999  0.95572  1.0000
  H   H98       1.0  0.30932000000000004  0.88837  0.9106  1.0000
  H   H99       1.0  0.30359  0.9596  0.02249  1.0000
  H   H100      1.0  0.20261  0.94466  0.9781499999999999  1.0000
  H   H101      1.0  0.06956  0.59429  0.02909  1.0000
  H   H102      1.0  0.97486  0.60407  0.9399199999999998  1.0000
  H   H103      1.0  0.8872400000000003  0.7890499999999999  0.99447  1.0000
  H   H104      1.0  0.98244  0.7721199999999999  0.08012  1.0000
  H   H105      1.0  0.20899  0.70901  0.00434  1.0000
  H   H106      1.0  0.25014  0.80398  0.94978  1.0000
  H   H107      1.0  0.25293  0.90732  0.10483  1.0000
  H   H108      1.0  0.20737  0.8076399999999999  0.15353999999999998  1.0000
  H   H109      1.0  0.01415  0.3981299999999999  0.6342999999999999  1.0000
  H   H110      1.0  0.00284  0.38142  0.6971399999999998  1.0000
  H   H111      1.0  0.6149500000000002  0.54118  0.61193  1.0000
  H   H112      1.0  0.42382000000000003  0.49874  0.4724099999999999  1.0000
  H   H113      1.0  0.66262  0.3737  0.51455  1.0000
  H   H114      1.0  0.64938  0.4107199999999999  0.81188  1.0000
  H   H115      1.0  0.41151  0.28087  0.84274  1.0000
  H   H116      1.0  0.6122500000000001  0.24887  0.7052799999999998  1.0000
  H   H117      1.0  0.24418  0.51691  0.30977  1.0000
  H   H118      1.0  0.2983100000000001  0.4337699999999999  0.37519999999999987  1.0000
  H   H119      1.0  0.23557  0.29923  0.24536999999999995  1.0000
  H   H120      1.0  0.17902000000000004  0.38783999999999996  0.18595  1.0000
  H   H121      1.0  0.37945  0.30881  0.36305999999999994  1.0000
  H   H122      1.0  0.28625  0.2603  0.33337999999999995  1.0000
  H   H123      1.0  0.27717  0.27083  0.43929  1.0000
  H   H124      1.0  0.25781  0.35164  0.43194  1.0000
  H   H125      1.0  0.12221  0.24675  0.38843  1.0000
  H   H126      1.0  0.10346000000000001  0.32666999999999996  0.3731499999999999  1.0000
  H   H127      1.0  0.51231  0.9383199999999999  0.24527999999999994  1.0000
  H   H128      1.0  0.61199  0.9290699999999998  0.3302  1.0000
  H   H129      1.0  0.51787  0.11615999999999997  0.37558  1.0000
  H   H130      1.0  0.4192  0.11777  0.28861  1.0000
  H   H131      1.0  0.59379  0.9876399999999999  0.44519  1.0000
  H   H132      1.0  0.70273  0.99228  0.40611999999999987  1.0000
  H   H133      1.0  0.58851  0.10404999999999999  0.45571999999999996  1.0000
  H   H134      1.0  0.6906900000000001  0.11163999999999999  0.4106  1.0000
  H   H135      1.0  0.6964000000000001  0.04041  0.52249  1.0000
  H   H136      1.0  0.7973800000000002  0.05534  0.4781499999999999  1.0000
  H   H137      1.0  0.93044  0.40570999999999996  0.5290999999999999  1.0000
  H   H138      1.0  0.02515  0.39592999999999995  0.43991999999999987  1.0000
  H   H139      1.0  0.11275  0.21096  0.49445999999999996  1.0000
  H   H140      1.0  0.01755  0.22788999999999998  0.5801199999999999  1.0000
  H   H141      1.0  0.7910100000000001  0.29099  0.50434  1.0000
  H   H142      1.0  0.74985  0.19601999999999994  0.44978  1.0000
  H   H143      1.0  0.74707  0.09267999999999998  0.6048299999999999  1.0000
  H   H144      1.0  0.7926300000000002  0.19236  0.65352  1.0000
  C   C1        1.0  0.24003000000000005  0.058549999999999984  0.09796999999999999  1.0000
  C   C2        1.0  0.14908  0.04235  0.06584  1.0000
  C   C3        1.0  0.09369  0.9884499999999998  0.07760999999999998  1.0000
  C   C4        1.0  0.012970000000000004  0.9736399999999998  0.043259999999999986  1.0000
  C   C5        1.0  0.98395  0.012159999999999999  0.99909  1.0000
  C   C6        1.0  0.03755  0.0672  0.9904699999999997  1.0000
  C   C7        1.0  0.12007000000000001  0.08263  0.02266  1.0000
  C   C8        1.0  0.23447000000000004  0.15135  0.22371999999999995  1.0000
  C   C9        1.0  0.14308  0.16980999999999996  0.25548  1.0000
  C   C10       1.0  0.11014000000000003  0.13248  0.30022  1.0000
  C   C11       1.0  0.02616  0.15065  0.33052  1.0000
  C   C12       1.0  0.97524  0.20562999999999998  0.31837999999999994  1.0000
  C   C13       1.0  0.00837  0.24165999999999996  0.27335999999999994  1.0000
  C   C14       1.0  0.09017000000000003  0.22378  0.24083999999999994  1.0000
  C   C15       1.0  0.74327  0.03216999999999999  0.79708  1.0000
  C   C16       1.0  0.7721600000000001  0.07909  0.8336799999999999  1.0000
  C   C17       1.0  0.77007  0.14203999999999997  0.8164299999999998  1.0000
  C   C18       1.0  0.73816  0.15335  0.76165  1.0000
  C   C19       1.0  0.7082200000000001  0.10393999999999999  0.72761  1.0000
  C   C20       1.0  0.79951  0.19484999999999994  0.85495  1.0000
  C   C21       1.0  0.74503  0.19357  0.9115899999999998  1.0000
  C   C22       1.0  0.63333  0.20543  0.905  1.0000
  C   C23       1.0  0.01567  0.52251  0.7747  1.0000
  C   C24       1.0  0.07141  0.5277  0.82333  1.0000
  C   C25       1.0  0.07438  0.4780299999999999  0.86188  1.0000
  C   C26       1.0  0.01958  0.4243599999999999  0.8481999999999998  1.0000
  C   C27       1.0  0.9653000000000002  0.4223799999999999  0.7989499999999998  1.0000
  C   C28       1.0  0.13389  0.4824999999999999  0.9151199999999999  1.0000
  C   C29       1.0  0.15677  0.41907999999999995  0.9421499999999999  1.0000
  C   C30       1.0  0.22602000000000003  0.42559  0.99238  1.0000
  C   C31       1.0  0.4733500000000001  0.13575  0.02044  1.0000
  C   C32       1.0  0.52563  0.14195  0.97067  1.0000
  C   C33       1.0  0.57749  0.19744  0.95897  1.0000
  C   C34       1.0  0.57494  0.2442  0.0002999999999999999  1.0000
  C   C35       1.0  0.5212  0.23479999999999998  0.04922999999999999  1.0000
  C   C36       1.0  0.28099  0.25414  0.02518  1.0000
  C   C37       1.0  0.25768  0.30763  0.99492  1.0000
  C   C38       1.0  0.24605  0.36506999999999995  0.02268999999999999  1.0000
  C   C39       1.0  0.25646  0.36439999999999995  0.08104  1.0000
  C   C40       1.0  0.2814  0.30926  0.10845999999999997  1.0000
  C   C41       1.0  0.75999  0.94144  0.59796  1.0000
  C   C42       1.0  0.85094  0.95764  0.56584  1.0000
  C   C43       1.0  0.90633  0.011549999999999996  0.5776  1.0000
  C   C44       1.0  0.98704  0.02634  0.54325  1.0000
  C   C45       1.0  0.01604  0.9878399999999998  0.49908  1.0000
  C   C46       1.0  0.9624200000000003  0.9328099999999998  0.4904699999999999  1.0000
  C   C47       1.0  0.8799300000000001  0.9173699999999998  0.52265  1.0000
  C   C48       1.0  0.76554  0.8486499999999999  0.7237299999999998  1.0000
  C   C49       1.0  0.85693  0.83019  0.75548  1.0000
  C   C50       1.0  0.8898300000000001  0.8675299999999999  0.80021  1.0000
  C   C51       1.0  0.9738200000000002  0.8493499999999998  0.8305199999999998  1.0000
  C   C52       1.0  0.02476  0.79437  0.8183799999999999  1.0000
  C   C53       1.0  0.9916300000000001  0.7583499999999999  0.7733599999999999  1.0000
  C   C54       1.0  0.90983  0.7762199999999999  0.74084  1.0000
  C   C55       1.0  0.25672  0.9678299999999999  0.29709  1.0000
  C   C56       1.0  0.22784  0.92091  0.3336799999999999  1.0000
  C   C57       1.0  0.22993  0.8579699999999999  0.31642999999999993  1.0000
  C   C58       1.0  0.26184  0.84664  0.26165  1.0000
  C   C59       1.0  0.29177  0.8960599999999997  0.22761  1.0000
  C   C60       1.0  0.20048  0.80515  0.35494  1.0000
  C   C61       1.0  0.25493  0.8064299999999999  0.4115899999999999  1.0000
  C   C62       1.0  0.3666600000000001  0.7945699999999998  0.40499999999999997  1.0000
  C   C63       1.0  0.98433  0.4774899999999999  0.2747  1.0000
  C   C64       1.0  0.9286  0.47230999999999995  0.32333  1.0000
  C   C65       1.0  0.92562  0.52198  0.36188  1.0000
  C   C66       1.0  0.98043  0.57565  0.3482  1.0000
  C   C67       1.0  0.03471  0.57763  0.29895  1.0000
  C   C68       1.0  0.86611  0.5174999999999998  0.41511  1.0000
  C   C69       1.0  0.84324  0.58092  0.44214  1.0000
  C   C70       1.0  0.77399  0.5744099999999999  0.49238  1.0000
  C   C71       1.0  0.52666  0.86426  0.5204399999999999  1.0000
  C   C72       1.0  0.4743600000000001  0.8580599999999998  0.4706699999999999  1.0000
  C   C73       1.0  0.42252000000000006  0.80256  0.45898  1.0000
  C   C74       1.0  0.42505  0.7557999999999999  0.50031  1.0000
  C   C75       1.0  0.47879000000000005  0.7652  0.54923  1.0000
  C   C76       1.0  0.719  0.7458699999999999  0.52519  1.0000
  C   C77       1.0  0.74231  0.6923699999999999  0.49492  1.0000
  C   C78       1.0  0.7539400000000002  0.6349299999999999  0.5227  1.0000
  C   C79       1.0  0.74353  0.63561  0.58105  1.0000
  C   C80       1.0  0.7186  0.6907499999999998  0.60847  1.0000
  C   C81       1.0  0.25771  0.5579899999999999  0.09804  1.0000
  C   C82       1.0  0.34896  0.5430499999999999  0.06578  1.0000
  C   C83       1.0  0.40460000000000007  0.4894199999999999  0.07747  1.0000
  C   C84       1.0  0.48561  0.47503  0.04334  1.0000
  C   C85       1.0  0.5149  0.5137599999999999  0.9993299999999999  1.0000
  C   C86       1.0  0.46105  0.56861  0.99072  1.0000
  C   C87       1.0  0.37819000000000014  0.58367  0.02281  1.0000
  C   C88       1.0  0.26472  0.6510999999999998  0.22450999999999996  1.0000
  C   C89       1.0  0.35636  0.66944  0.25601  1.0000
  C   C90       1.0  0.3891200000000001  0.6319399999999998  0.30058  1.0000
  C   C91       1.0  0.47372  0.64986  0.33048999999999995  1.0000
  C   C92       1.0  0.52502  0.70479  0.31822  1.0000
  C   C93       1.0  0.49186  0.7411899999999999  0.2733999999999999  1.0000
  C   C94       1.0  0.40961  0.7233099999999999  0.24116  1.0000
  C   C95       1.0  0.7569400000000002  0.5320799999999999  0.7973599999999997  1.0000
  C   C96       1.0  0.72756  0.57905  0.8337499999999998  1.0000
  C   C97       1.0  0.72962  0.64194  0.8163499999999998  1.0000
  C   C98       1.0  0.7617  0.6531499999999999  0.76156  1.0000
  C   C99       1.0  0.7919600000000001  0.60369  0.72771  1.0000
  C   C100      1.0  0.70027  0.6948699999999999  0.85473  1.0000
  C   C101      1.0  0.7547800000000001  0.69367  0.91136  1.0000
  C   C102      1.0  0.8664800000000001  0.7055899999999998  0.9046799999999998  1.0000
  C   C103      1.0  0.4849  0.02265  0.77469  1.0000
  C   C104      1.0  0.42894  0.02767  0.82325  1.0000
  C   C105      1.0  0.42592  0.9780299999999998  0.8618399999999998  1.0000
  C   C106      1.0  0.48092  0.9245199999999999  0.84818  1.0000
  C   C107      1.0  0.53547  0.9226999999999999  0.799  1.0000
  C   C108      1.0  0.36623  0.9824399999999999  0.91505  1.0000
  C   C109      1.0  0.3431100000000001  0.9190599999999998  0.94217  1.0000
  C   C110      1.0  0.27385  0.9255099999999999  0.9924099999999998  1.0000
  C   C111      1.0  0.026030000000000005  0.63595  0.02015  1.0000
  C   C112      1.0  0.97388  0.64211  0.97034  1.0000
  C   C113      1.0  0.9222500000000002  0.6975699999999999  0.95864  1.0000
  C   C114      1.0  0.9247100000000001  0.7442799999999998  0.0  1.0000
  C   C115      1.0  0.9783  0.7348999999999999  0.048979999999999996  1.0000
  C   C116      1.0  0.2188  0.75391  0.025169999999999998  1.0000
  C   C117      1.0  0.24224000000000004  0.80747  0.9949499999999999  1.0000
  C   C118      1.0  0.25371  0.8649499999999998  0.02272  1.0000
  C   C119      1.0  0.2431  0.86422  0.08106  1.0000
  C   C120      1.0  0.21826  0.809  0.10845999999999997  1.0000
  C   C121      1.0  0.7422600000000003  0.44202  0.59804  1.0000
  C   C122      1.0  0.65101  0.45696  0.5657899999999999  1.0000
  C   C123      1.0  0.59537  0.51061  0.57748  1.0000
  C   C124      1.0  0.51437  0.5249799999999999  0.54333  1.0000
  C   C125      1.0  0.4850800000000001  0.48625  0.49934  1.0000
  C   C126      1.0  0.53894  0.43141  0.4907399999999999  1.0000
  C   C127      1.0  0.6218  0.41634  0.52282  1.0000
  C   C128      1.0  0.73527  0.34887999999999997  0.72451  1.0000
  C   C129      1.0  0.64363  0.33054  0.7559999999999998  1.0000
  C   C130      1.0  0.6108800000000002  0.36805  0.80058  1.0000
  C   C131      1.0  0.52628  0.35012999999999994  0.83049  1.0000
  C   C132      1.0  0.47499  0.2952  0.8181999999999998  1.0000
  C   C133      1.0  0.50814  0.25879  0.77337  1.0000
  C   C134      1.0  0.5903900000000001  0.27667  0.7411399999999998  1.0000
  C   C135      1.0  0.24308  0.46792  0.29736  1.0000
  C   C136      1.0  0.27245  0.42095999999999995  0.33374999999999994  1.0000
  C   C137      1.0  0.27039  0.35805999999999993  0.31634999999999996  1.0000
  C   C138      1.0  0.23830000000000007  0.34684999999999994  0.26156  1.0000
  C   C139      1.0  0.20805  0.39631  0.22771  1.0000
  C   C140      1.0  0.29974000000000006  0.3051399999999999  0.35472  1.0000
  C   C141      1.0  0.24525  0.30632999999999994  0.41135  1.0000
  C   C142      1.0  0.13353  0.29441  0.40467999999999993  1.0000
  C   C143      1.0  0.5151  0.97734  0.27469  1.0000
  C   C144      1.0  0.57105  0.9723299999999999  0.32326  1.0000
  C   C145      1.0  0.57408  0.02198  0.36184  1.0000
  C   C146      1.0  0.51908  0.07548  0.34818999999999994  1.0000
  C   C147      1.0  0.4645200000000001  0.07731  0.299  1.0000
  C   C148      1.0  0.63376  0.01756  0.41504  1.0000
  C   C149      1.0  0.65687  0.08094  0.44215999999999994  1.0000
  C   C150      1.0  0.7261400000000001  0.07449  0.49240999999999996  1.0000
  C   C151      1.0  0.9739700000000002  0.36405  0.52015  1.0000
  C   C152      1.0  0.02612  0.3578899999999999  0.47034  1.0000
  C   C153      1.0  0.07773  0.30242  0.45864999999999995  1.0000
  C   C154      1.0  0.07529  0.25571999999999995  0.5000099999999998  1.0000
  C   C155      1.0  0.0217  0.26509999999999995  0.54898  1.0000
  C   C156      1.0  0.78119  0.24608  0.5251699999999999  1.0000
  C   C157      1.0  0.7577500000000001  0.19252999999999998  0.49496  1.0000
  C   C158      1.0  0.74629  0.13505  0.52272  1.0000
  C   C159      1.0  0.7569  0.13578  0.58106  1.0000
  C   C160      1.0  0.78174  0.19100999999999999  0.60845  1.0000
  N   N1        1.0  0.95868  0.9156  0.05295  1.0000
  N   N2        1.0  0.00733  0.11017999999999999  0.9465799999999999  1.0000
  N   N3        1.0  0.99139  0.11122  0.37633  1.0000
  N   N4        1.0  0.95829  0.2999899999999999  0.26156  1.0000
  N   N5        1.0  0.71062  0.043559999999999995  0.74444  1.0000
  N   N6        1.0  0.96182  0.47058999999999995  0.7619399999999997  1.0000
  N   N7        1.0  0.46938  0.18151999999999996  0.05989  1.0000
  N   N8        1.0  0.29496  0.2543099999999999  0.08133  1.0000
  N   N9        1.0  0.04133  0.08439  0.55294  1.0000
  N   N10       1.0  0.99262  0.8898199999999998  0.4465799999999999  1.0000
  N   N11       1.0  0.008600000000000002  0.8887899999999997  0.87632  1.0000
  N   N12       1.0  0.041710000000000004  0.7000299999999998  0.76157  1.0000
  N   N13       1.0  0.28938  0.9564399999999998  0.24444999999999995  1.0000
  N   N14       1.0  0.0382  0.5294099999999999  0.26194  1.0000
  N   N15       1.0  0.5306  0.81848  0.55988  1.0000
  N   N16       1.0  0.70503  0.74569  0.58133  1.0000
  N   N17       1.0  0.53904  0.41684  0.053029999999999994  1.0000
  N   N18       1.0  0.49145  0.6114499999999998  0.94661  1.0000
  N   N19       1.0  0.50863  0.6099599999999997  0.37607  1.0000
  N   N20       1.0  0.54238  0.79964  0.26167  1.0000
  N   N21       1.0  0.78989  0.54335  0.7447499999999999  1.0000
  N   N22       1.0  0.53897  0.9708999999999998  0.7619699999999999  1.0000
  N   N23       1.0  0.03001  0.6816899999999999  0.05963  1.0000
  N   N24       1.0  0.20475  0.75402  0.08130999999999998  1.0000
  N   N25       1.0  0.46094  0.58318  0.55301  1.0000
  N   N26       1.0  0.50858  0.38854999999999995  0.4466199999999999  1.0000
  N   N27       1.0  0.49136  0.39003  0.8760899999999998  1.0000
  N   N28       1.0  0.4576100000000001  0.20033999999999996  0.76168  1.0000
  N   N29       1.0  0.21012  0.4566499999999999  0.24475999999999998  1.0000
  N   N30       1.0  0.46103  0.0291  0.26198  1.0000
  N   N31       1.0  0.96999  0.3183  0.5596199999999999  1.0000
  N   N32       1.0  0.79525  0.24599  0.5813099999999999  1.0000
  O   O1        1.0  0.46437  0.10817999999999998  0.16282  1.0000
  O   O2        1.0  0.27071  0.018629999999999997  0.13418  1.0000
  O   O3        1.0  0.2803  0.11075  0.08545999999999998  1.0000
  O   O4        1.0  0.89004  0.90156  0.02002  1.0000
  O   O5        1.0  0.9849  0.8824399999999998  0.09372  1.0000
  O   O6        1.0  0.93374  0.09549999999999999  0.9176299999999998  1.0000
  O   O7        1.0  0.05569000000000001  0.15971999999999997  0.94015  1.0000
  O   O8        1.0  0.27021  0.09778  0.23578  1.0000
  O   O9        1.0  0.26949  0.19052  0.18803  1.0000
  O   O10       1.0  0.91991  0.12994999999999998  0.4053799999999999  1.0000
  O   O11       1.0  0.03523  0.06029  0.38388  1.0000
  O   O12       1.0  0.89258  0.31811  0.29526  1.0000
  O   O13       1.0  0.98496  0.33036  0.21886  1.0000
  O   O14       1.0  0.53561  0.8918199999999998  0.6628  1.0000
  O   O15       1.0  0.7293  0.98135  0.63418  1.0000
  O   O16       1.0  0.71971  0.88925  0.5854599999999999  1.0000
  O   O17       1.0  0.10994000000000001  0.09845  0.52004  1.0000
  O   O18       1.0  0.01512  0.11754999999999997  0.5937  1.0000
  O   O19       1.0  0.06621  0.9044899999999999  0.41762999999999995  1.0000
  O   O20       1.0  0.94434  0.84029  0.44013999999999986  1.0000
  O   O21       1.0  0.7297900000000002  0.9022199999999999  0.73577  1.0000
  O   O22       1.0  0.7305  0.8094899999999998  0.68803  1.0000
  O   O23       1.0  0.08009  0.8700599999999998  0.90537  1.0000
  O   O24       1.0  0.9647700000000001  0.93973  0.88389  1.0000
  O   O25       1.0  0.10744  0.68189  0.79523  1.0000
  O   O26       1.0  0.015070000000000004  0.6696499999999997  0.71888  1.0000
  O   O27       1.0  0.03486  0.60966  0.16336  1.0000
  O   O28       1.0  0.22906  0.5179799999999999  0.13488  1.0000
  O   O29       1.0  0.21509000000000006  0.60923  0.08521999999999998  1.0000
  O   O30       1.0  0.6085800000000001  0.40305  0.020659999999999998  1.0000
  O   O31       1.0  0.51097  0.3834199999999999  0.09328999999999998  1.0000
  O   O32       1.0  0.56488  0.5968  0.91761  1.0000
  O   O33       1.0  0.44324  0.6609399999999999  0.94016  1.0000
  O   O34       1.0  0.22571000000000005  0.5988499999999999  0.23827999999999994  1.0000
  O   O35       1.0  0.23271000000000003  0.6892499999999998  0.18727  1.0000
  O   O36       1.0  0.58034  0.62853  0.40505  1.0000
  O   O37       1.0  0.46489  0.5589099999999999  0.38356999999999997  1.0000
  O   O38       1.0  0.60961  0.8168299999999998  0.29486  1.0000
  O   O39       1.0  0.5149  0.83109  0.21973999999999994  1.0000
  O   O40       1.0  0.9651400000000002  0.3903299999999999  0.66333  1.0000
  O   O41       1.0  0.7709100000000002  0.482  0.6349  1.0000
  O   O42       1.0  0.7849000000000002  0.3907899999999999  0.58523  1.0000
  O   O43       1.0  0.39135  0.5969499999999999  0.52068  1.0000
  O   O44       1.0  0.48904000000000003  0.61664  0.59322  1.0000
  O   O45       1.0  0.43515000000000004  0.40318999999999994  0.41761  1.0000
  O   O46       1.0  0.55679  0.33908999999999995  0.44016  1.0000
  O   O47       1.0  0.7743100000000002  0.4011199999999999  0.7382799999999999  1.0000
  O   O48       1.0  0.7672600000000002  0.31074999999999997  0.6872599999999998  1.0000
  O   O49       1.0  0.4197  0.37147  0.9051  1.0000
  O   O50       1.0  0.53509  0.4411  0.88358  1.0000
  O   O51       1.0  0.39032  0.18324  0.79487  1.0000
  O   O52       1.0  0.48511  0.1688  0.7198199999999999  1.0000
