data_image0
_chemical_formula_structural       Eu6H90C162O36
_chemical_formula_sum              "Eu6 H90 C162 O36"
_cell_length_a       11.03643
_cell_length_b       16.06725
_cell_length_c       29.31968
_cell_angle_alpha    90.00313
_cell_angle_beta     90.0
_cell_angle_gamma    91.04986000000001

_symmetry_space_group_name_H-M    'P 1'
_symmetry_Int_Tables_number       1

loop_
  _symmetry_equiv_pos_as_xyz
  'x,y,z'

loop_
  _atom_site_type_symbol
  _atom_site_label
  _atom_site_symmetry_multiplicity
  _atom_site_fract_x
  _atom_site_fract_y
  _atom_site_fract_z
  _atom_site_occupancy
  Eu  Eu1       1.0  0.93126  0.7163900000000002  0.23336999999999997  1.0000
  Eu  Eu2       1.0  0.56695  0.78336  0.23367  1.0000
  Eu  Eu3       1.0  0.06872  0.2837  0.76662  1.0000
  Eu  Eu4       1.0  0.43307  0.21663  0.76628  1.0000
  Eu  Eu5       1.0  0.75031  0.25037  0.70883  1.0000
  Eu  Eu6       1.0  0.24967  0.74964  0.29117999999999994  1.0000
  H   H1        1.0  0.91812  0.04928  0.05957  1.0000
  H   H2        1.0  0.94273  0.91508  0.10059  1.0000
  H   H3        1.0  0.67798  0.98869  0.19941  1.0000
  H   H4        1.0  0.65306  0.12246  0.15887  1.0000
  H   H5        1.0  0.8998000000000002  0.16581  0.95228  1.0000
  H   H6        1.0  0.77661  0.11772  0.01461  1.0000
  H   H7        1.0  0.9047800000000001  0.1698  0.86756  1.0000
  H   H8        1.0  0.05911  0.16195  0.3459  1.0000
  H   H9        1.0  0.16585  0.03645  0.31736  1.0000
  H   H10       1.0  0.8288899999999999  0.93955  0.26371  1.0000
  H   H11       1.0  0.72419  0.06745  0.28823  1.0000
  H   H12       1.0  0.57479  0.30746  0.47084999999999994  1.0000
  H   H13       1.0  0.87198  0.14632  0.40687  1.0000
  H   H14       1.0  0.57931  0.31054  0.55568  1.0000
  H   H15       1.0  0.21784  0.4847  0.42272  1.0000
  H   H16       1.0  0.15195  0.59816  0.37179  1.0000
  H   H17       1.0  0.0013900000000000032  0.4188300000000001  0.27812  1.0000
  H   H18       1.0  0.06479  0.30416  0.32926  1.0000
  H   H19       1.0  0.42541  0.19327  0.53521  1.0000
  H   H20       1.0  0.15997  0.36793  0.47287  1.0000
  H   H21       1.0  0.42532  0.19433000000000006  0.62023  1.0000
  H   H22       1.0  0.58179  0.45067  0.05941  1.0000
  H   H23       1.0  0.55675  0.58471  0.10057  1.0000
  H   H24       1.0  0.8215400000000002  0.5115  0.19942  1.0000
  H   H25       1.0  0.8469400000000001  0.37774  0.15888  1.0000
  H   H26       1.0  0.60042  0.33403  0.95214  1.0000
  H   H27       1.0  0.72345  0.38222  0.01457  1.0000
  H   H28       1.0  0.59624  0.33013  0.86744  1.0000
  H   H29       1.0  0.44181  0.33769  0.34596  1.0000
  H   H30       1.0  0.33465  0.46289  0.31735  1.0000
  H   H31       1.0  0.67193  0.5599600000000002  0.26381  1.0000
  H   H32       1.0  0.7761900000000002  0.43212  0.28838  1.0000
  H   H33       1.0  0.92577  0.19237  0.4706  1.0000
  H   H34       1.0  0.62845  0.35329  0.40682  1.0000
  H   H35       1.0  0.92184  0.189  0.55547  1.0000
  H   H36       1.0  0.28221  0.015220000000000003  0.42276  1.0000
  H   H37       1.0  0.34797  0.9017600000000002  0.37173  1.0000
  H   H38       1.0  0.49863  0.08105  0.27811  1.0000
  H   H39       1.0  0.43525  0.19577  0.32927999999999996  1.0000
  H   H40       1.0  0.07458  0.30675  0.53508  1.0000
  H   H41       1.0  0.34012  0.13197  0.47285  1.0000
  H   H42       1.0  0.07429  0.3057200000000001  0.62013  1.0000
  H   H43       1.0  0.08187999999999998  0.95071  0.94044  1.0000
  H   H44       1.0  0.05727  0.08491  0.89941  1.0000
  H   H45       1.0  0.32204  0.01131  0.8006  1.0000
  H   H46       1.0  0.34697000000000006  0.8775200000000002  0.84113  1.0000
  H   H47       1.0  0.10021  0.83418  0.04772  1.0000
  H   H48       1.0  0.22341  0.88228  0.98539  1.0000
  H   H49       1.0  0.09523  0.83019  0.13244  1.0000
  H   H50       1.0  0.94089  0.83806  0.6541  1.0000
  H   H51       1.0  0.8341300000000001  0.96354  0.68264  1.0000
  H   H52       1.0  0.17109  0.060440000000000015  0.73629  1.0000
  H   H53       1.0  0.2758  0.93255  0.71176  1.0000
  H   H54       1.0  0.42519  0.69254  0.52914  1.0000
  H   H55       1.0  0.12801  0.8536900000000002  0.59312  1.0000
  H   H56       1.0  0.42067  0.68947  0.44431  1.0000
  H   H57       1.0  0.78215  0.51534  0.57727  1.0000
  H   H58       1.0  0.84802  0.4018400000000001  0.62816  1.0000
  H   H59       1.0  0.9985500000000002  0.5811  0.72188  1.0000
  H   H60       1.0  0.93519  0.6958  0.67074  1.0000
  H   H61       1.0  0.57458  0.80672  0.46482  1.0000
  H   H62       1.0  0.84005  0.63207  0.52713  1.0000
  H   H63       1.0  0.57456  0.80568  0.37979  1.0000
  H   H64       1.0  0.41822  0.54935  0.94059  1.0000
  H   H65       1.0  0.44323  0.4152800000000001  0.89944  1.0000
  H   H66       1.0  0.17845  0.48849  0.80059  1.0000
  H   H67       1.0  0.15304  0.62227  0.84111  1.0000
  H   H68       1.0  0.39958  0.66598  0.04786  1.0000
  H   H69       1.0  0.27654  0.61778  0.98542  1.0000
  H   H70       1.0  0.40378000000000003  0.66987  0.13256  1.0000
  H   H71       1.0  0.55818  0.6623300000000002  0.65405  1.0000
  H   H72       1.0  0.6654  0.53717  0.68266  1.0000
  H   H73       1.0  0.32814  0.44  0.73619  1.0000
  H   H74       1.0  0.22387000000000004  0.5678  0.7116  1.0000
  H   H75       1.0  0.07424  0.80763  0.52939  1.0000
  H   H76       1.0  0.37154  0.6467  0.59317  1.0000
  H   H77       1.0  0.07817  0.8110100000000002  0.44453  1.0000
  H   H78       1.0  0.71782  0.9847600000000002  0.57722  1.0000
  H   H79       1.0  0.65204  0.09825  0.62824  1.0000
  H   H80       1.0  0.50142  0.91898  0.72188  1.0000
  H   H81       1.0  0.5648  0.80424  0.67072  1.0000
  H   H82       1.0  0.92541  0.69326  0.4649  1.0000
  H   H83       1.0  0.6599  0.86803  0.52715  1.0000
  H   H84       1.0  0.9256000000000001  0.69431  0.37985  1.0000
  H   H85       1.0  0.75009  0.25003  0.14185  1.0000
  H   H86       1.0  0.75034  0.24983999999999998  0.28017  1.0000
  H   H87       1.0  0.24992  0.7499700000000002  0.85815  1.0000
  H   H88       1.0  0.24964  0.75017  0.71982  1.0000
  H   H89       1.0  0.24997  0.24994  0.34593999999999997  1.0000
  H   H90       1.0  0.75005  0.75005  0.65406  1.0000
  C   C1        1.0  0.78358  0.09585  0.10617  1.0000
  C   C2        1.0  0.86468  0.03593  0.08994  1.0000
  C   C3        1.0  0.87899  0.96091  0.11279  1.0000
  C   C4        1.0  0.81196  0.943  0.15231  1.0000
  C   C5        1.0  0.73056  0.0021  0.16882  1.0000
  C   C6        1.0  0.71757  0.07769  0.14612  1.0000
  C   C7        1.0  0.7673  0.17495  0.08114999999999999  1.0000
  C   C8        1.0  0.82801  0.8624  0.17649  1.0000
  C   C9        1.0  0.8338699999999999  0.2023  0.9336999999999999  1.0000
  C   C10       1.0  0.7677600000000001  0.17591  0.03324  1.0000
  C   C11       1.0  0.83629  0.2037  0.8862499999999999  1.0000
  C   C12       1.0  0.88473  0.12323  0.31883  1.0000
  C   C13       1.0  0.00979  0.11425  0.32674  1.0000
  C   C14       1.0  0.0695  0.0443  0.31113  1.0000
  C   C15       1.0  0.003769999999999995  0.98088  0.28881  1.0000
  C   C16       1.0  0.87952  0.99007  0.27997  1.0000
  C   C17       1.0  0.8212000000000002  0.06163  0.29405  1.0000
  C   C18       1.0  0.8183300000000001  0.19115  0.34128  1.0000
  C   C19       1.0  0.06341  0.90107  0.27808  1.0000
  C   C20       1.0  0.65268  0.2831200000000001  0.48886  1.0000
  C   C21       1.0  0.81959  0.19287  0.38905999999999996  1.0000
  C   C22       1.0  0.65352  0.28423  0.53628  1.0000
  C   C23       1.0  0.14818  0.386  0.37927  1.0000
  C   C24       1.0  0.16828  0.46974  0.39157  1.0000
  C   C25       1.0  0.1314  0.53382  0.36294  1.0000
  C   C26       1.0  0.0726  0.51572  0.32151  1.0000
  C   C27       1.0  0.04791000000000001  0.43243  0.31002  1.0000
  C   C28       1.0  0.08493  0.36848  0.33851999999999993  1.0000
  C   C29       1.0  0.19833  0.3169300000000001  0.40634  1.0000
  C   C30       1.0  0.03973  0.58322  0.28906  1.0000
  C   C31       1.0  0.348  0.21723  0.55365  1.0000
  C   C32       1.0  0.19902000000000003  0.31633  0.4542  1.0000
  C   C33       1.0  0.34857  0.21773  0.60111  1.0000
  C   C34       1.0  0.71645  0.40419  0.10609  1.0000
  C   C35       1.0  0.63518  0.4639700000000001  0.08983  1.0000
  C   C36       1.0  0.62041  0.53886  0.11271999999999997  1.0000
  C   C37       1.0  0.68722  0.55693  0.15228  1.0000
  C   C38       1.0  0.76886  0.49799  0.16883  1.0000
  C   C39       1.0  0.78233  0.42248  0.14611  1.0000
  C   C40       1.0  0.7327400000000001  0.32511  0.08111  1.0000
  C   C41       1.0  0.66998  0.63761  0.17644  1.0000
  C   C42       1.0  0.66664  0.29765  0.93365  1.0000
  C   C43       1.0  0.73231  0.32399  0.0332  1.0000
  C   C44       1.0  0.66467  0.29629  0.8862  1.0000
  C   C45       1.0  0.6159  0.37639  0.31882  1.0000
  C   C46       1.0  0.49084000000000005  0.3854  0.32672  1.0000
  C   C47       1.0  0.43103  0.45528  0.31106  1.0000
  C   C48       1.0  0.49615  0.5189300000000002  0.2887  1.0000
  C   C49       1.0  0.62071  0.5097  0.27999  1.0000
  C   C50       1.0  0.67913  0.43814  0.2941  1.0000
  C   C51       1.0  0.68227  0.30843  0.34125999999999995  1.0000
  C   C52       1.0  0.43588  0.59872  0.27809  1.0000
  C   C53       1.0  0.84795  0.21647  0.48876  1.0000
  C   C54       1.0  0.68088  0.30669  0.38904  1.0000
  C   C55       1.0  0.84748  0.21536000000000005  0.53618  1.0000
  C   C56       1.0  0.35196  0.11392  0.37931  1.0000
  C   C57       1.0  0.33179  0.03019  0.39163  1.0000
  C   C58       1.0  0.36833  0.9661500000000001  0.3629299999999999  1.0000
  C   C59       1.0  0.42686  0.98426  0.32146  1.0000
  C   C60       1.0  0.45194  0.06753  0.3099899999999999  1.0000
  C   C61       1.0  0.41516000000000003  0.13147  0.33855  1.0000
  C   C62       1.0  0.30165  0.18294  0.40636  1.0000
  C   C63       1.0  0.45904  0.91666  0.28906  1.0000
  C   C64       1.0  0.15196  0.28288  0.55359  1.0000
  C   C65       1.0  0.30099  0.18359  0.45422  1.0000
  C   C66       1.0  0.15109  0.2823  0.60104  1.0000
  C   C67       1.0  0.21642000000000003  0.90413  0.89382  1.0000
  C   C68       1.0  0.13533  0.96405  0.91006  1.0000
  C   C69       1.0  0.12104000000000001  0.03909  0.88721  1.0000
  C   C70       1.0  0.18807  0.057  0.8476899999999998  1.0000
  C   C71       1.0  0.26947  0.9978800000000001  0.83118  1.0000
  C   C72       1.0  0.28248  0.9223  0.85388  1.0000
  C   C73       1.0  0.23272  0.8250400000000002  0.9188499999999997  1.0000
  C   C74       1.0  0.17214  0.13761  0.8234999999999998  1.0000
  C   C75       1.0  0.16615  0.7977  0.0663  1.0000
  C   C76       1.0  0.23225  0.82408  0.96677  1.0000
  C   C77       1.0  0.16373  0.79629  0.11375  1.0000
  C   C78       1.0  0.11527  0.87677  0.68117  1.0000
  C   C79       1.0  0.99021  0.88576  0.67326  1.0000
  C   C80       1.0  0.9305  0.9557100000000002  0.68887  1.0000
  C   C81       1.0  0.99621  0.01912  0.71118  1.0000
  C   C82       1.0  0.12047  0.00993  0.72002  1.0000
  C   C83       1.0  0.17878  0.93838  0.70595  1.0000
  C   C84       1.0  0.18167  0.80885  0.65872  1.0000
  C   C85       1.0  0.9366  0.09894  0.72193  1.0000
  C   C86       1.0  0.3473  0.71689  0.51113  1.0000
  C   C87       1.0  0.1804  0.80713  0.61094  1.0000
  C   C88       1.0  0.34647000000000006  0.71577  0.46371  1.0000
  C   C89       1.0  0.85182  0.61398  0.62073  1.0000
  C   C90       1.0  0.8317500000000001  0.53025  0.60842  1.0000
  C   C91       1.0  0.8685900000000001  0.46615  0.63704  1.0000
  C   C92       1.0  0.9273500000000001  0.48424  0.67849  1.0000
  C   C93       1.0  0.95206  0.56752  0.68997  1.0000
  C   C94       1.0  0.9150800000000001  0.63149  0.66148  1.0000
  C   C95       1.0  0.8016700000000001  0.68306  0.59367  1.0000
  C   C96       1.0  0.95992  0.41677  0.71101  1.0000
  C   C97       1.0  0.65197  0.7827800000000003  0.44636  1.0000
  C   C98       1.0  0.80102  0.68366  0.54581  1.0000
  C   C99       1.0  0.65136  0.78228  0.3989  1.0000
  C   C100      1.0  0.28352  0.59578  0.89392  1.0000
  C   C101      1.0  0.36482  0.53602  0.91017  1.0000
  C   C102      1.0  0.37959  0.46113  0.88728  1.0000
  C   C103      1.0  0.31276  0.44304  0.84773  1.0000
  C   C104      1.0  0.23114  0.502  0.83117  1.0000
  C   C105      1.0  0.21767000000000003  0.57753  0.85388  1.0000
  C   C106      1.0  0.26726  0.67488  0.9188799999999999  1.0000
  C   C107      1.0  0.33002  0.36236  0.82354  1.0000
  C   C108      1.0  0.33337  0.70237  0.06635  1.0000
  C   C109      1.0  0.26771  0.676  0.9667999999999999  1.0000
  C   C110      1.0  0.33536  0.7037100000000002  0.1138  1.0000
  C   C111      1.0  0.38413  0.6236  0.68118  1.0000
  C   C112      1.0  0.50915  0.61462  0.67328  1.0000
  C   C113      1.0  0.56904  0.54475  0.68893  1.0000
  C   C114      1.0  0.50392  0.48109  0.71131  1.0000
  C   C115      1.0  0.37939  0.4902700000000001  0.72  1.0000
  C   C116      1.0  0.3209  0.56181  0.70589  1.0000
  C   C117      1.0  0.31770000000000004  0.69155  0.65874  1.0000
  C   C118      1.0  0.5644000000000001  0.4013400000000001  0.72191  1.0000
  C   C119      1.0  0.15204  0.78353  0.51122  1.0000
  C   C120      1.0  0.31912  0.69329  0.61095  1.0000
  C   C121      1.0  0.15253  0.78464  0.46381  1.0000
  C   C122      1.0  0.64806  0.88608  0.6206799999999999  1.0000
  C   C123      1.0  0.6682200000000001  0.9698  0.60834  1.0000
  C   C124      1.0  0.63172  0.033860000000000015  0.63705  1.0000
  C   C125      1.0  0.57318  0.01576  0.67851  1.0000
  C   C126      1.0  0.54807  0.9325  0.68999  1.0000
  C   C127      1.0  0.58488  0.8685400000000002  0.66145  1.0000
  C   C128      1.0  0.6983600000000001  0.81705  0.59365  1.0000
  C   C129      1.0  0.54095  0.08333  0.71089  1.0000
  C   C130      1.0  0.84797  0.71711  0.44641  1.0000
  C   C131      1.0  0.69902  0.8164100000000001  0.54579  1.0000
  C   C132      1.0  0.84888  0.71776  0.39896  1.0000
  C   C133      1.0  0.75006  0.25002  0.10471  1.0000
  C   C134      1.0  0.75007  0.24997000000000003  0.008749999999999999  1.0000
  C   C135      1.0  0.75017  0.24993  0.9583299999999998  1.0000
  C   C136      1.0  0.75044  0.24998  0.86216  1.0000
  C   C137      1.0  0.75033  0.25001  0.81146  1.0000
  C   C138      1.0  0.75034  0.24977999999999997  0.3172999999999999  1.0000
  C   C139      1.0  0.7502200000000001  0.24981  0.41373  1.0000
  C   C140      1.0  0.7502600000000001  0.24981  0.4641  1.0000
  C   C141      1.0  0.7505700000000001  0.24983000000000002  0.56016  1.0000
  C   C142      1.0  0.75095  0.24997000000000003  0.61069  1.0000
  C   C143      1.0  0.24997  0.74996  0.89529  1.0000
  C   C144      1.0  0.24993000000000004  0.75004  0.99125  1.0000
  C   C145      1.0  0.24984  0.75005  0.04166  1.0000
  C   C146      1.0  0.24955  0.75002  0.13782999999999995  1.0000
  C   C147      1.0  0.2497  0.74998  0.18853999999999999  1.0000
  C   C148      1.0  0.24965000000000004  0.7502000000000002  0.68269  1.0000
  C   C149      1.0  0.24977  0.7502000000000002  0.58626  1.0000
  C   C150      1.0  0.24975  0.7502000000000002  0.53589  1.0000
  C   C151      1.0  0.24942  0.75018  0.43983  1.0000
  C   C152      1.0  0.24904  0.75004  0.3893  1.0000
  C   C153      1.0  0.24998  0.24993  0.38307  1.0000
  C   C154      1.0  0.25005  0.24997000000000003  0.47859  1.0000
  C   C155      1.0  0.25003  0.25003  0.52901  1.0000
  C   C156      1.0  0.24971  0.24993  0.6251  1.0000
  C   C157      1.0  0.2497  0.24993  0.67592  1.0000
  C   C158      1.0  0.75006  0.75008  0.61693  1.0000
  C   C159      1.0  0.7500000000000001  0.75004  0.52142  1.0000
  C   C160      1.0  0.7499400000000002  0.74994  0.47099  1.0000
  C   C161      1.0  0.7502200000000001  0.7501  0.3749  1.0000
  C   C162      1.0  0.75033  0.7502000000000002  0.32408  1.0000
  O   O1        1.0  0.91581  0.81592  0.16627  1.0000
  O   O2        1.0  0.75307  0.84228  0.20845  1.0000
  O   O3        1.0  0.65085  0.2372  0.78964  1.0000
  O   O4        1.0  0.17774  0.8958300000000002  0.27781  1.0000
  O   O5        1.0  0.9940100000000001  0.83712  0.27125  1.0000
  O   O6        1.0  0.6715900000000001  0.2919  0.63221  1.0000
  O   O7        1.0  0.97912  0.5668  0.2532  1.0000
  O   O8        1.0  0.0726  0.65878  0.29855  1.0000
  O   O9        1.0  0.18029  0.29975  0.69655  1.0000
  O   O10       1.0  0.58193  0.68368  0.16633  1.0000
  O   O11       1.0  0.74453  0.65772  0.20851  1.0000
  O   O12       1.0  0.84913  0.26291  0.78956  1.0000
  O   O13       1.0  0.32128  0.60383  0.27792  1.0000
  O   O14       1.0  0.50462  0.66282  0.27134  1.0000
  O   O15       1.0  0.83051  0.20829  0.63212  1.0000
  O   O16       1.0  0.5204  0.93302  0.25327  1.0000
  O   O17       1.0  0.42531  0.84125  0.29844  1.0000
  O   O18       1.0  0.3198  0.2001  0.69651  1.0000
  O   O19       1.0  0.08428  0.18408  0.83367  1.0000
  O   O20       1.0  0.2473  0.15773  0.79161  1.0000
  O   O21       1.0  0.34915  0.76279  0.21034  1.0000
  O   O22       1.0  0.82226  0.10417  0.72219  1.0000
  O   O23       1.0  0.00604  0.16286  0.72876  1.0000
  O   O24       1.0  0.32841  0.70809  0.36779  1.0000
  O   O25       1.0  0.01969  0.43321  0.7470699999999998  1.0000
  O   O26       1.0  0.92746  0.34118  0.70142  1.0000
  O   O27       1.0  0.82005  0.70049  0.30343  1.0000
  O   O28       1.0  0.41811000000000004  0.31633  0.8336  1.0000
  O   O29       1.0  0.2554  0.34229  0.79148  1.0000
  O   O30       1.0  0.15088  0.73709  0.21043  1.0000
  O   O31       1.0  0.67893  0.39624  0.72206  1.0000
  O   O32       1.0  0.49583000000000005  0.33714  0.72865  1.0000
  O   O33       1.0  0.16949  0.79172  0.36786  1.0000
  O   O34       1.0  0.47945000000000004  0.06693  0.74665  1.0000
  O   O35       1.0  0.57469  0.15876  0.70157  1.0000
  O   O36       1.0  0.6802  0.79994  0.30353  1.0000
