data_image0
_chemical_formula_structural       Dy4H84C138O36
_chemical_formula_sum              "Dy4 H84 C138 O36"
_cell_length_a       14.97153
_cell_length_b       17.21969
_cell_length_c       26.06219
_cell_angle_alpha    78.34266
_cell_angle_beta     73.31452
_cell_angle_gamma    64.24695

_symmetry_space_group_name_H-M    'P 1'
_symmetry_Int_Tables_number       1

loop_
  _symmetry_equiv_pos_as_xyz
  'x,y,z'

loop_
  _atom_site_type_symbol
  _atom_site_label
  _atom_site_symmetry_multiplicity
  _atom_site_fract_x
  _atom_site_fract_y
  _atom_site_fract_z
  _atom_site_occupancy
  Dy  Dy1       1.0  0.37138000000000015  0.05605  0.48577  1.0000
  Dy  Dy2       1.0  0.9159100000000004  0.44332  0.014329999999999997  1.0000
  Dy  Dy3       1.0  0.6287900000000001  0.94426  0.51503  1.0000
  Dy  Dy4       1.0  0.09093999999999998  0.55666  0.9860499999999999  1.0000
  H   H1        1.0  0.13637000000000027  0.8229999999999997  0.9329099999999999  1.0000
  H   H2        1.0  0.20983999999999992  0.9326000000000001  0.71407  1.0000
  H   H3        1.0  0.181  0.07019999999999998  0.74256  1.0000
  H   H4        1.0  0.13679000000000016  0.09259000000000002  0.8398499999999998  1.0000
  H   H5        1.0  0.18952000000000016  0.61241  0.8387699999999998  1.0000
  H   H6        1.0  0.12143000000000002  0.28276  0.71991  1.0000
  H   H7        1.0  0.53117  0.022489999999999996  0.64813  1.0000
  H   H8        1.0  0.26077  0.18012  0.83049  1.0000
  H   H9        1.0  0.4021  0.10030999999999998  0.87556  1.0000
  H   H10       1.0  0.57455  0.008490000000000004  0.82446  1.0000
  H   H11       1.0  0.22732  0.18914  0.60998  1.0000
  H   H12       1.0  0.35208000000000017  0.62906  0.76759  1.0000
  H   H13       1.0  0.6793599999999999  0.51772  0.73515  1.0000
  H   H14       1.0  0.6847400000000005  0.62915  0.65846  1.0000
  H   H15       1.0  0.5109000000000001  0.51756  0.78776  1.0000
  H   H16       1.0  0.5980700000000001  0.75009  0.59966  1.0000
  H   H17       1.0  0.27431000000000044  0.9160299999999998  0.59526  1.0000
  H   H18       1.0  0.16921  0.82317  0.70105  1.0000
  H   H19       1.0  0.21870000000000003  0.7114699999999999  0.72046  1.0000
  H   H20       1.0  0.12233000000000005  0.97342  0.90897  1.0000
  H   H21       1.0  0.6000000000000002  0.9922400000000001  0.7286199999999998  1.0000
  H   H22       1.0  0.8888000000000003  0.67978  0.56785  1.0000
  H   H23       1.0  0.8584100000000003  0.56714  0.78602  1.0000
  H   H24       1.0  0.99515  0.4301900000000001  0.75617  1.0000
  H   H25       1.0  0.0684700000000001  0.4094699999999999  0.65855  1.0000
  H   H26       1.0  0.6348199999999999  0.8868  0.66396  1.0000
  H   H27       1.0  0.12295000000000009  0.21868000000000004  0.7811799999999999  1.0000
  H   H28       1.0  0.20364000000000004  0.47845000000000004  0.8516699999999998  1.0000
  H   H29       1.0  0.27074000000000004  0.32047  0.6699299999999999  1.0000
  H   H30       1.0  0.37786  0.39961  0.62452  1.0000
  H   H31       1.0  0.4085200000000004  0.49127999999999994  0.6752099999999998  1.0000
  H   H32       1.0  0.026039999999999945  0.31339  0.89064  1.0000
  H   H33       1.0  0.7486900000000001  0.87025  0.73361  1.0000
  H   H34       1.0  0.9327099999999998  0.9824  0.76482  1.0000
  H   H35       1.0  0.9739299999999997  0.87104  0.84147  1.0000
  H   H36       1.0  0.8161000000000006  0.9819599999999996  0.71281  1.0000
  H   H37       1.0  0.9503500000000001  0.7504799999999998  0.90036  1.0000
  H   H38       1.0  0.7869699999999997  0.58463  0.90655  1.0000
  H   H39       1.0  0.6951800000000004  0.67529  0.80053  1.0000
  H   H40       1.0  0.6502300000000004  0.78723  0.7821299999999999  1.0000
  H   H41       1.0  0.0018400000000001811  0.5302799999999998  0.59042  1.0000
  H   H42       1.0  0.32241000000000003  0.50793  0.7711599999999998  1.0000
  H   H43       1.0  0.8663700000000002  0.1777  0.06681  1.0000
  H   H44       1.0  0.7888300000000005  0.06863999999999996  0.28549  1.0000
  H   H45       1.0  0.8182300000000003  0.9309599999999998  0.25674  1.0000
  H   H46       1.0  0.8630600000000004  0.90867  0.15935  1.0000
  H   H47       1.0  0.8124300000000004  0.38776  0.16145  1.0000
  H   H48       1.0  0.87813  0.71779  0.28063  1.0000
  H   H49       1.0  0.46828000000000036  0.97799  0.3520699999999999  1.0000
  H   H50       1.0  0.73875  0.8203899999999997  0.16984  1.0000
  H   H51       1.0  0.5973699999999996  0.90008  0.12483  1.0000
  H   H52       1.0  0.4249400000000002  0.99198  0.17589  1.0000
  H   H53       1.0  0.7712700000000003  0.8113099999999998  0.39085  1.0000
  H   H54       1.0  0.6475000000000004  0.37098  0.23225999999999997  1.0000
  H   H55       1.0  0.3199100000000001  0.48232  0.26471  1.0000
  H   H56       1.0  0.31467  0.37103  0.34158  1.0000
  H   H57       1.0  0.48845000000000005  0.48234  0.21191  1.0000
  H   H58       1.0  0.4017500000000003  0.24998  0.40052999999999994  1.0000
  H   H59       1.0  0.7256000000000001  0.08533  0.40493999999999997  1.0000
  H   H60       1.0  0.8302700000000002  0.17687999999999998  0.29879  1.0000
  H   H61       1.0  0.7814800000000003  0.28873  0.27977  1.0000
  H   H62       1.0  0.8779100000000002  0.02818  0.09041  1.0000
  H   H63       1.0  0.39947999999999995  0.007999999999999998  0.2718  1.0000
  H   H64       1.0  0.1092800000000001  0.32224  0.43347  1.0000
  H   H65       1.0  0.14291999999999996  0.43222  0.21472  1.0000
  H   H66       1.0  0.005390000000000033  0.56931  0.24364999999999995  1.0000
  H   H67       1.0  0.9306200000000007  0.5914099999999998  0.34101  1.0000
  H   H68       1.0  0.3618700000000001  0.11256  0.33884  1.0000
  H   H69       1.0  0.8768300000000004  0.78226  0.21943  1.0000
  H   H70       1.0  0.7988900000000004  0.5216  0.14785  1.0000
  H   H71       1.0  0.7292400000000001  0.67996  0.32999  1.0000
  H   H72       1.0  0.6224  0.60045  0.37517  1.0000
  H   H73       1.0  0.5920200000000002  0.50891  0.32425  1.0000
  H   H74       1.0  0.9761800000000004  0.68653  0.10993  1.0000
  H   H75       1.0  0.2513100000000001  0.12898  0.26772  1.0000
  H   H76       1.0  0.06701  0.018600000000000012  0.23478999999999994  1.0000
  H   H77       1.0  0.027550000000000005  0.13036  0.15808  1.0000
  H   H78       1.0  0.18335  0.0176  0.28753  1.0000
  H   H79       1.0  0.05408  0.25012  0.09915  1.0000
  H   H80       1.0  0.21583000000000002  0.41581  0.09559  1.0000
  H   H81       1.0  0.3070200000000002  0.32319  0.20149999999999998  1.0000
  H   H82       1.0  0.35024  0.21137  0.22046  1.0000
  H   H83       1.0  0.9962000000000005  0.4717799999999999  0.40981999999999996  1.0000
  H   H84       1.0  0.67854  0.49227999999999994  0.22839  1.0000
  C   C1        1.0  0.16860000000000006  0.7363  0.87546  1.0000
  C   C2        1.0  0.18876  0.72511  0.8196199999999999  1.0000
  C   C3        1.0  0.18613999999999994  0.86964  0.79498  1.0000
  C   C4        1.0  0.15367999999999987  0.81497  0.89032  1.0000
  C   C5        1.0  0.20143000000000014  0.7890499999999998  0.77954  1.0000
  C   C6        1.0  0.16053999999999988  0.88302  0.85124  1.0000
  C   C7        1.0  0.19241000000000003  0.9399  0.75667  1.0000
  C   C8        1.0  0.17510000000000003  0.017840000000000012  0.7728  1.0000
  C   C9        1.0  0.15016999999999994  0.030680000000000013  0.82801  1.0000
  C   C10       1.0  0.2821600000000003  0.16724  0.6712699999999999  1.0000
  C   C11       1.0  0.3911700000000002  0.08705  0.58913  1.0000
  C   C12       1.0  0.3475500000000001  0.13549  0.75185  1.0000
  C   C13       1.0  0.26764000000000004  0.18314000000000002  0.72409  1.0000
  C   C14       1.0  0.3781100000000001  0.10689999999999994  0.64362  1.0000
  C   C15       1.0  0.45810999999999996  0.06601999999999995  0.66976  1.0000
  C   C16       1.0  0.44542000000000004  0.07857000000000001  0.7235399999999998  1.0000
  C   C17       1.0  0.3347399999999999  0.14079000000000003  0.80746  1.0000
  C   C18       1.0  0.41455000000000003  0.09562000000000001  0.83284  1.0000
  C   C19       1.0  0.5119900000000002  0.04300000000000002  0.8041999999999999  1.0000
  C   C20       1.0  0.42305999999999994  0.69766  0.70144  1.0000
  C   C21       1.0  0.42354000000000025  0.6313899999999996  0.74414  1.0000
  C   C22       1.0  0.6092700000000001  0.5672499999999998  0.72532  1.0000
  C   C23       1.0  0.5208900000000001  0.69394  0.66972  1.0000
  C   C24       1.0  0.6123700000000005  0.62913  0.6829599999999999  1.0000
  C   C25       1.0  0.5136299999999999  0.56809  0.75536  1.0000
  C   C26       1.0  0.43652000000000013  0.8157399999999998  0.60992  1.0000
  C   C27       1.0  0.3391200000000003  0.82129  0.64251  1.0000
  C   C28       1.0  0.3315000000000002  0.76428  0.6883699999999999  1.0000
  C   C29       1.0  0.5248  0.75341  0.62457  1.0000
  C   C30       1.0  0.2265  0.77175  0.72112  1.0000
  C   C31       1.0  0.4481100000000002  0.87464  0.56197  1.0000
  C   C32       1.0  0.16274000000000002  0.66621  0.91694  1.0000
  C   C33       1.0  0.14262000000000025  0.9644999999999997  0.86635  1.0000
  C   C34       1.0  0.5265300000000003  0.034469999999999994  0.75066  1.0000
  C   C35       1.0  0.77614  0.76501  0.62596  1.0000
  C   C36       1.0  0.73016  0.77513  0.68212  1.0000
  C   C37       1.0  0.8499500000000002  0.6312399999999998  0.70557  1.0000
  C   C38       1.0  0.8556000000000005  0.6871  0.61054  1.0000
  C   C39       1.0  0.7688200000000001  0.71124  0.7217499999999999  1.0000
  C   C40       1.0  0.8928200000000001  0.61876  0.64915  1.0000
  C   C41       1.0  0.8897  0.56054  0.74327  1.0000
  C   C42       1.0  0.96632  0.48303  0.72637  1.0000
  C   C43       1.0  0.008239999999999978  0.47108999999999995  0.67099  1.0000
  C   C44       1.0  0.12121000000000015  0.33387999999999995  0.8293599999999998  1.0000
  C   C45       1.0  0.06959999999999998  0.41484  0.91106  1.0000
  C   C46       1.0  0.23491000000000023  0.36529  0.74842  1.0000
  C   C47       1.0  0.17476000000000005  0.31779999999999997  0.7765  1.0000
  C   C48       1.0  0.13021  0.3940699999999999  0.85668  1.0000
  C   C49       1.0  0.1954800000000002  0.4348  0.83024  1.0000
  C   C50       1.0  0.24830999999999998  0.42218000000000006  0.77642  1.0000
  C   C51       1.0  0.2826300000000002  0.35983  0.69279  1.0000
  C   C52       1.0  0.34292999999999985  0.40469  0.6672  1.0000
  C   C53       1.0  0.3597700000000001  0.4572300000000001  0.6955799999999998  1.0000
  C   C54       1.0  0.82297  0.80214  0.79944  1.0000
  C   C55       1.0  0.7993899999999999  0.8682  0.75673  1.0000
  C   C56       1.0  0.9024399999999999  0.93277  0.7748899999999999  1.0000
  C   C57       1.0  0.8857500000000003  0.80616  0.83081  1.0000
  C   C58       1.0  0.92561  0.87104  0.81724  1.0000
  C   C59       1.0  0.8372400000000001  0.93164  0.74524  1.0000
  C   C60       1.0  0.8640400000000001  0.6845  0.8910799999999999  1.0000
  C   C61       1.0  0.8042400000000001  0.67888  0.85881  1.0000
  C   C62       1.0  0.7850600000000003  0.73546  0.81283  1.0000
  C   C63       1.0  0.9046400000000003  0.7468800000000001  0.87596  1.0000
  C   C64       1.0  0.7197800000000003  0.7275  0.7805  1.0000
  C   C65       1.0  0.8876100000000001  0.62558  0.93899  1.0000
  C   C66       1.0  0.74062  0.8357299999999998  0.58497  1.0000
  C   C67       1.0  0.9717000000000003  0.53791  0.63323  1.0000
  C   C68       1.0  0.31255000000000027  0.46607000000000004  0.7491099999999998  1.0000
  C   C69       1.0  0.8338000000000002  0.26417  0.12447  1.0000
  C   C70       1.0  0.8118900000000004  0.27567  0.18045  1.0000
  C   C71       1.0  0.8136500000000002  0.13144  0.20468  1.0000
  C   C72       1.0  0.8482300000000003  0.18579  0.10943999999999997  1.0000
  C   C73       1.0  0.7982700000000003  0.21189  0.22035  1.0000
  C   C74       1.0  0.8399399999999999  0.11805  0.14839  1.0000
  C   C75       1.0  0.8068500000000002  0.06121  0.24286  1.0000
  C   C76       1.0  0.8243000000000004  0.9833399999999999  0.22656  1.0000
  C   C77       1.0  0.8496  0.97056  0.1713  1.0000
  C   C78       1.0  0.7172000000000001  0.83312  0.32924  1.0000
  C   C79       1.0  0.6082600000000001  0.91386  0.41113999999999995  1.0000
  C   C80       1.0  0.6521100000000001  0.86489  0.24852  1.0000
  C   C81       1.0  0.7319800000000001  0.81728  0.27637  1.0000
  C   C82       1.0  0.6213400000000003  0.89369  0.35674  1.0000
  C   C83       1.0  0.5414100000000002  0.93448  0.33053  1.0000
  C   C84       1.0  0.5541600000000002  0.9217599999999998  0.27681  1.0000
  C   C85       1.0  0.6648000000000004  0.85966  0.1929  1.0000
  C   C86       1.0  0.58496  0.90484  0.16753999999999997  1.0000
  C   C87       1.0  0.48749000000000003  0.95744  0.19616999999999998  1.0000
  C   C88       1.0  0.5763800000000001  0.30299  0.29872  1.0000
  C   C89       1.0  0.5759000000000001  0.36901  0.25584  1.0000
  C   C90       1.0  0.39006  0.43303  0.27471  1.0000
  C   C91       1.0  0.47861999999999993  0.30654  0.33055  1.0000
  C   C92       1.0  0.3870500000000002  0.37122999999999995  0.31719  1.0000
  C   C93       1.0  0.48574000000000017  0.43217  0.24458  1.0000
  C   C94       1.0  0.5635  0.18483999999999998  0.39048  1.0000
  C   C95       1.0  0.6606600000000002  0.17968  0.35768999999999995  1.0000
  C   C96       1.0  0.66805  0.23653  0.31172  1.0000
  C   C97       1.0  0.47502  0.24692999999999998  0.37574  1.0000
  C   C98       1.0  0.7731200000000004  0.22878999999999997  0.27886  1.0000
  C   C99       1.0  0.55265  0.12565999999999994  0.43857  1.0000
  C   C100      1.0  0.8422300000000001  0.3337699999999999  0.08321  1.0000
  C   C101      1.0  0.8575500000000003  0.03679  0.13309  1.0000
  C   C102      1.0  0.47298999999999997  0.96585  0.24972  1.0000
  C   C103      1.0  0.22196  0.23626000000000003  0.37602  1.0000
  C   C104      1.0  0.26826999999999995  0.2249  0.32005  1.0000
  C   C105      1.0  0.14995000000000008  0.36903  0.29554  1.0000
  C   C106      1.0  0.1426300000000001  0.31454  0.39086  1.0000
  C   C107      1.0  0.23104000000000005  0.2886  0.28003  1.0000
  C   C108      1.0  0.10608000000000001  0.38227  0.3518  1.0000
  C   C109      1.0  0.11095000000000001  0.43926  0.25738  1.0000
  C   C110      1.0  0.03391999999999998  0.51694  0.27375  1.0000
  C   C111      1.0  0.9911  0.52966  0.32898  1.0000
  C   C112      1.0  0.8800300000000001  0.66652  0.17082  1.0000
  C   C113      1.0  0.9340500000000002  0.58473  0.08931  1.0000
  C   C114      1.0  0.7655600000000006  0.6351899999999998  0.25139  1.0000
  C   C115      1.0  0.82573  0.68278  0.22357  1.0000
  C   C116      1.0  0.8722300000000001  0.60575  0.14344  1.0000
  C   C117      1.0  0.8065300000000003  0.56524  0.16952999999999996  1.0000
  C   C118      1.0  0.7525800000000004  0.57822  0.22319999999999998  1.0000
  C   C119      1.0  0.71752  0.64063  0.307  1.0000
  C   C120      1.0  0.6573300000000001  0.59563  0.33246  1.0000
  C   C121      1.0  0.64068  0.54311  0.30393  1.0000
  C   C122      1.0  0.1784300000000001  0.19767  0.20145  1.0000
  C   C123      1.0  0.20111  0.13134  0.24415  1.0000
  C   C124      1.0  0.09787000000000007  0.06784  0.22502999999999995  1.0000
  C   C125      1.0  0.11613999999999995  0.19426000000000002  0.16954  1.0000
  C   C126      1.0  0.07564000000000001  0.12980999999999998  0.18266  1.0000
  C   C127      1.0  0.16278  0.06824999999999999  0.25516  1.0000
  C   C128      1.0  0.14009000000000002  0.31545  0.1096  1.0000
  C   C129      1.0  0.19799  0.32135  0.14282  1.0000
  C   C130      1.0  0.21652000000000002  0.26422999999999996  0.18865999999999997  1.0000
  C   C131      1.0  0.09891  0.25346000000000013  0.12418999999999998  1.0000
  C   C132      1.0  0.28132  0.27158  0.2215  1.0000
  C   C133      1.0  0.11907  0.37343  0.06101  1.0000
  C   C134      1.0  0.25719000000000003  0.16657  0.41751999999999995  1.0000
  C   C135      1.0  0.027059999999999983  0.46338  0.36714  1.0000
  C   C136      1.0  0.6881099999999999  0.53439  0.2504  1.0000
  C   C137      1.0  0.16679000000000016  0.25052999999999986  0.75043  1.0000
  C   C138      1.0  0.8330600000000001  0.75009  0.24997  1.0000
  O   O1        1.0  0.1960400000000001  0.65084  0.8048099999999999  1.0000
  O   O2        1.0  0.20382000000000008  0.21182  0.6460699999999999  1.0000
  O   O3        1.0  0.31446  0.12126  0.56656  1.0000
  O   O4        1.0  0.25227  0.8833199999999999  0.62882  1.0000
  O   O5        1.0  0.18126000000000012  0.5904699999999999  0.90281  1.0000
  O   O6        1.0  0.13605999999999993  0.67564  0.96729  1.0000
  O   O7        1.0  0.36927000000000004  0.9338  0.54523  1.0000
  O   O8        1.0  0.53882  0.86654  0.53728  1.0000
  O   O9        1.0  0.47711000000000015  0.03422  0.56326  1.0000
  O   O10       1.0  0.6472600000000003  0.84828  0.69774  1.0000
  O   O11       1.0  0.06222000000000002  0.28935  0.85502  1.0000
  O   O12       1.0  0.0014500000000000448  0.38320000000000004  0.9330199999999998  1.0000
  O   O13       1.0  0.76577  0.61681  0.87291  1.0000
  O   O14       1.0  0.66923  0.91062  0.59969  1.0000
  O   O15       1.0  0.77321  0.82752  0.53427  1.0000
  O   O16       1.0  0.8519600000000002  0.56582  0.9557999999999999  1.0000
  O   O17       1.0  0.9453100000000003  0.63414  0.9635299999999999  1.0000
  O   O18       1.0  0.07989000000000002  0.46506  0.9373599999999999  1.0000
  O   O19       1.0  0.8037900000000002  0.34998  0.19556  1.0000
  O   O20       1.0  0.7949900000000001  0.78827  0.35484999999999994  1.0000
  O   O21       1.0  0.6850100000000001  0.87968  0.43378  1.0000
  O   O22       1.0  0.74772  0.11785999999999999  0.37129  1.0000
  O   O23       1.0  0.8244900000000002  0.40877  0.09788  1.0000
  O   O24       1.0  0.8705800000000002  0.32453  0.03275  1.0000
  O   O25       1.0  0.6322200000000002  0.06612  0.45472  1.0000
  O   O26       1.0  0.46231  0.13382000000000002  0.46385999999999994  1.0000
  O   O27       1.0  0.5224000000000002  0.9667299999999998  0.4368699999999999  1.0000
  O   O28       1.0  0.35028000000000015  0.15087  0.30492  1.0000
  O   O29       1.0  0.93889  0.71114  0.14531  1.0000
  O   O30       1.0  0.0013400000000000193  0.61708  0.06722  1.0000
  O   O31       1.0  0.23548000000000002  0.38409  0.12967  1.0000
  O   O32       1.0  0.3271899999999999  0.09068000000000002  0.4030599999999999  1.0000
  O   O33       1.0  0.22665999999999997  0.17599999999999996  0.46792  1.0000
  O   O34       1.0  0.15495  0.43323  0.04437  1.0000
  O   O35       1.0  0.06305  0.36362  0.03597  1.0000
  O   O36       1.0  0.9253900000000005  0.53334  0.06311  1.0000
