data_image0
_chemical_formula_structural       Cu12H72C114O60
_chemical_formula_sum              "Cu12 H72 C114 O60"
_cell_length_a       18.73486
_cell_length_b       18.73494
_cell_length_c       23.04742
_cell_angle_alpha    90.0
_cell_angle_beta     90.0
_cell_angle_gamma    120.03754

_space_group_name_H-M_alt    "P 1"
_space_group_IT_number       1

loop_
  _space_group_symop_operation_xyz
  'x, y, z'

loop_
  _atom_site_type_symbol
  _atom_site_label
  _atom_site_symmetry_multiplicity
  _atom_site_fract_x
  _atom_site_fract_y
  _atom_site_fract_z
  _atom_site_occupancy
  Cu  Cu1       1.0  0.9585099999999999  0.4998000000000001  0.45575  1.0000
  Cu  Cu2       1.0  0.5002  0.4587  0.45575  1.0000
  Cu  Cu3       1.0  0.5412999999999999  0.0415  0.45575  1.0000
  Cu  Cu4       1.0  0.0414999999999999  0.5001999999999998  0.9557500000000001  1.0000
  Cu  Cu5       1.0  0.4998099999999999  0.5413  0.9557500000000001  1.0000
  Cu  Cu6       1.0  0.4586999999999999  0.9584999999999998  0.9557500000000001  1.0000
  Cu  Cu7       1.0  0.49979999999999986  0.9584999999999998  0.54425  1.0000
  Cu  Cu8       1.0  0.45870999999999995  0.50019  0.54425  1.0000
  Cu  Cu9       1.0  0.041500000000000016  0.5413  0.54425  1.0000
  Cu  Cu10      1.0  0.5002  0.0415  0.04425  1.0000
  Cu  Cu11      1.0  0.5412999999999999  0.49981  0.04425  1.0000
  Cu  Cu12      1.0  0.9585099999999999  0.4587  0.04425  1.0000
  H   H1        1.0  0.31257  0.95732  0.36692  1.0000
  H   H2        1.0  0.2522400000000001  0.76604  0.49366000000000004  1.0000
  H   H3        1.0  0.06788  0.74416  0.37224  1.0000
  H   H4        1.0  0.046339999999999854  0.8571299999999997  0.33559  1.0000
  H   H5        1.0  0.0661399999999999  0.7956999999999997  0.28595  1.0000
  H   H6        1.0  0.1118199999999999  0.97556  0.2647  1.0000
  H   H7        1.0  0.042699999999999995  0.35524  0.36692  1.0000
  H   H8        1.0  0.23396999999999998  0.48621  0.49367000000000005  1.0000
  H   H9        1.0  0.2558099999999999  0.32373  0.37224  1.0000
  H   H10       1.0  0.14285999999999993  0.18920999999999996  0.33559  1.0000
  H   H11       1.0  0.2043  0.27046  0.28595  1.0000
  H   H12       1.0  0.024429999999999997  0.13623  0.26471  1.0000
  H   H13       1.0  0.64475  0.68747  0.36693  1.0000
  H   H14       1.0  0.5137899999999997  0.7477399999999997  0.49366000000000004  1.0000
  H   H15       1.0  0.6762899999999997  0.93211  0.37223  1.0000
  H   H16       1.0  0.8108099999999997  0.95368  0.33559  1.0000
  H   H17       1.0  0.72958  0.93384  0.28595  1.0000
  H   H18       1.0  0.8637399999999998  0.8881999999999998  0.2647  1.0000
  H   H19       1.0  0.6874299999999998  0.04268  0.86692  1.0000
  H   H20       1.0  0.74776  0.23396  0.99366  1.0000
  H   H21       1.0  0.93212  0.25584  0.87224  1.0000
  H   H22       1.0  0.9536699999999999  0.14287  0.83559  1.0000
  H   H23       1.0  0.9338699999999999  0.2043  0.78595  1.0000
  H   H24       1.0  0.88818  0.024439999999999996  0.7647  1.0000
  H   H25       1.0  0.9572999999999999  0.64476  0.86692  1.0000
  H   H26       1.0  0.76603  0.51379  0.9936700000000002  1.0000
  H   H27       1.0  0.7441999999999998  0.67627  0.87224  1.0000
  H   H28       1.0  0.8571499999999999  0.8108  0.83559  1.0000
  H   H29       1.0  0.7957  0.72955  0.78595  1.0000
  H   H30       1.0  0.97558  0.86377  0.76471  1.0000
  H   H31       1.0  0.35524999999999995  0.31252999999999986  0.86693  1.0000
  H   H32       1.0  0.48620999999999986  0.2522599999999999  0.9936700000000002  1.0000
  H   H33       1.0  0.32371  0.0679  0.8722300000000001  1.0000
  H   H34       1.0  0.18919  0.04632  0.83559  1.0000
  H   H35       1.0  0.2704299999999999  0.06615999999999997  0.78595  1.0000
  H   H36       1.0  0.13625999999999996  0.11179999999999997  0.7647  1.0000
  H   H37       1.0  0.9573299999999999  0.3125699999999999  0.63308  1.0000
  H   H38       1.0  0.7660499999999999  0.25224  0.50634  1.0000
  H   H39       1.0  0.74416  0.06788  0.62776  1.0000
  H   H40       1.0  0.8571299999999998  0.04634  0.66441  1.0000
  H   H41       1.0  0.79571  0.06613  0.7140500000000001  1.0000
  H   H42       1.0  0.9755599999999999  0.11181999999999997  0.7353000000000001  1.0000
  H   H43       1.0  0.35524  0.0427  0.63309  1.0000
  H   H44       1.0  0.48620999999999986  0.23397  0.50634  1.0000
  H   H45       1.0  0.32374  0.2558  0.62776  1.0000
  H   H46       1.0  0.18921  0.14286  0.66442  1.0000
  H   H47       1.0  0.27046  0.2043  0.7140500000000001  1.0000
  H   H48       1.0  0.13622999999999996  0.024429999999999993  0.7353000000000001  1.0000
  H   H49       1.0  0.68747  0.64475  0.63307  1.0000
  H   H50       1.0  0.7477499999999998  0.51379  0.50634  1.0000
  H   H51       1.0  0.9321099999999996  0.6762899999999997  0.62777  1.0000
  H   H52       1.0  0.95368  0.81081  0.66442  1.0000
  H   H53       1.0  0.93385  0.72958  0.7140500000000001  1.0000
  H   H54       1.0  0.88821  0.8637399999999997  0.7353000000000001  1.0000
  H   H55       1.0  0.042679999999999906  0.6874299999999998  0.13308  1.0000
  H   H56       1.0  0.23396000000000003  0.74776  0.006340000000000001  1.0000
  H   H57       1.0  0.25584  0.93212  0.12776  1.0000
  H   H58       1.0  0.14288000000000006  0.95367  0.16441  1.0000
  H   H59       1.0  0.2042999999999999  0.9338699999999998  0.21405  1.0000
  H   H60       1.0  0.024449999999999913  0.88818  0.23530000000000004  1.0000
  H   H61       1.0  0.6447699999999998  0.9573  0.13308  1.0000
  H   H62       1.0  0.5138  0.7660299999999998  0.006340000000000001  1.0000
  H   H63       1.0  0.6762699999999998  0.7441999999999998  0.12776  1.0000
  H   H64       1.0  0.8107999999999999  0.85714  0.16441  1.0000
  H   H65       1.0  0.7295499999999998  0.7956999999999997  0.21405  1.0000
  H   H66       1.0  0.86377  0.9755699999999998  0.23530000000000004  1.0000
  H   H67       1.0  0.31253  0.3552499999999999  0.13307  1.0000
  H   H68       1.0  0.25225999999999993  0.48621  0.006340000000000001  1.0000
  H   H69       1.0  0.06790000000000003  0.32371  0.12777  1.0000
  H   H70       1.0  0.04632999999999998  0.18918999999999994  0.16441  1.0000
  H   H71       1.0  0.06616  0.27043  0.21405  1.0000
  H   H72       1.0  0.11179999999999995  0.13625999999999994  0.23530000000000004  1.0000
  C   C1        1.0  0.3774199999999999  0.91283  0.45559  1.0000
  C   C2        1.0  0.09608000000000001  0.66395  0.45885000000000004  1.0000
  C   C3        1.0  0.26843999999999996  0.89874  0.3863  1.0000
  C   C4        1.0  0.2915799999999998  0.8662099999999998  0.43238000000000004  1.0000
  C   C5        1.0  0.23444999999999996  0.79074  0.45739  1.0000
  C   C6        1.0  0.15484999999999988  0.7469899999999998  0.4344799999999999  1.0000
  C   C7        1.0  0.13046  0.77957  0.38855999999999996  1.0000
  C   C8        1.0  0.18725999999999987  0.8565399999999997  0.36546000000000006  1.0000
  C   C9        1.0  0.0873300000000001  0.85902  0.30063  1.0000
  C   C10       1.0  0.08717999999999995  0.46459  0.45559  1.0000
  C   C11       1.0  0.3360399999999999  0.43213  0.45885000000000004  1.0000
  C   C12       1.0  0.10126999999999993  0.3696799999999999  0.3863  1.0000
  C   C13       1.0  0.1337999999999999  0.4253699999999999  0.43239000000000005  1.0000
  C   C14       1.0  0.20925999999999997  0.4437099999999999  0.45739  1.0000
  C   C15       1.0  0.25301  0.40788  0.43449  1.0000
  C   C16       1.0  0.22041  0.35089  0.38854999999999995  1.0000
  C   C17       1.0  0.1434599999999999  0.3307199999999999  0.36546000000000006  1.0000
  C   C18       1.0  0.14096999999999998  0.22831  0.30063  1.0000
  C   C19       1.0  0.53541  0.62258  0.45559  1.0000
  C   C20       1.0  0.5678799999999998  0.9039099999999998  0.45885000000000004  1.0000
  C   C21       1.0  0.63031  0.73158  0.38631  1.0000
  C   C22       1.0  0.57463  0.7084299999999998  0.43239000000000005  1.0000
  C   C23       1.0  0.5562999999999998  0.7655399999999998  0.45739  1.0000
  C   C24       1.0  0.5921299999999998  0.84514  0.4344799999999999  1.0000
  C   C25       1.0  0.6491299999999998  0.8695399999999998  0.38854999999999995  1.0000
  C   C26       1.0  0.66928  0.81276  0.36546000000000006  1.0000
  C   C27       1.0  0.7717099999999998  0.91268  0.30062  1.0000
  C   C28       1.0  0.62258  0.08717  0.9555900000000002  1.0000
  C   C29       1.0  0.9039299999999999  0.3360499999999999  0.9588600000000002  1.0000
  C   C30       1.0  0.73157  0.10126  0.8862999999999999  1.0000
  C   C31       1.0  0.7084299999999998  0.13378999999999994  0.93238  1.0000
  C   C32       1.0  0.7655599999999998  0.20926  0.95739  1.0000
  C   C33       1.0  0.8451499999999997  0.25301  0.93448  1.0000
  C   C34       1.0  0.8695499999999999  0.22043  0.88856  1.0000
  C   C35       1.0  0.8127499999999999  0.14346999999999993  0.86546  1.0000
  C   C36       1.0  0.91268  0.14098  0.80063  1.0000
  C   C37       1.0  0.9128199999999997  0.53541  0.9555900000000002  1.0000
  C   C38       1.0  0.6639599999999999  0.56787  0.9588600000000002  1.0000
  C   C39       1.0  0.89873  0.6303199999999998  0.8862999999999999  1.0000
  C   C40       1.0  0.8662  0.5746299999999998  0.93239  1.0000
  C   C41       1.0  0.7907399999999998  0.5562899999999997  0.95739  1.0000
  C   C42       1.0  0.747  0.59212  0.9344900000000002  1.0000
  C   C43       1.0  0.7795999999999998  0.64911  0.88856  1.0000
  C   C44       1.0  0.85654  0.6692799999999998  0.86546  1.0000
  C   C45       1.0  0.8590299999999998  0.7716899999999998  0.80063  1.0000
  C   C46       1.0  0.46458999999999995  0.37742  0.9555900000000002  1.0000
  C   C47       1.0  0.43213  0.09609  0.95885  1.0000
  C   C48       1.0  0.3697  0.26842  0.88631  1.0000
  C   C49       1.0  0.4253799999999999  0.2915699999999999  0.93239  1.0000
  C   C50       1.0  0.44370999999999994  0.23446  0.95739  1.0000
  C   C51       1.0  0.40786999999999995  0.15486  0.93448  1.0000
  C   C52       1.0  0.3508799999999999  0.13045999999999994  0.88855  1.0000
  C   C53       1.0  0.33073  0.18724  0.86546  1.0000
  C   C54       1.0  0.2283  0.08732  0.80062  1.0000
  C   C55       1.0  0.91284  0.37742  0.54441  1.0000
  C   C56       1.0  0.6639499999999999  0.09608  0.54115  1.0000
  C   C57       1.0  0.8987499999999999  0.2684399999999999  0.6137  1.0000
  C   C58       1.0  0.8662199999999999  0.2915699999999999  0.56762  1.0000
  C   C59       1.0  0.7907499999999998  0.23445  0.54262  1.0000
  C   C60       1.0  0.74699  0.15485  0.56552  1.0000
  C   C61       1.0  0.77957  0.13045  0.61144  1.0000
  C   C62       1.0  0.85654  0.18724999999999994  0.63454  1.0000
  C   C63       1.0  0.8590199999999998  0.08733  0.6993700000000002  1.0000
  C   C64       1.0  0.46458999999999995  0.08718  0.54441  1.0000
  C   C65       1.0  0.43213  0.33604  0.54115  1.0000
  C   C66       1.0  0.36968  0.10127  0.61371  1.0000
  C   C67       1.0  0.42537  0.1338  0.56762  1.0000
  C   C68       1.0  0.44370999999999994  0.20926  0.54262  1.0000
  C   C69       1.0  0.40788  0.25301  0.56552  1.0000
  C   C70       1.0  0.35089000000000004  0.22041  0.61145  1.0000
  C   C71       1.0  0.33071999999999985  0.14346  0.63455  1.0000
  C   C72       1.0  0.22831  0.14097  0.6993700000000002  1.0000
  C   C73       1.0  0.62259  0.53541  0.54441  1.0000
  C   C74       1.0  0.9039199999999997  0.56787  0.54115  1.0000
  C   C75       1.0  0.7315799999999999  0.6303  0.6137  1.0000
  C   C76       1.0  0.7084399999999997  0.57462  0.56761  1.0000
  C   C77       1.0  0.7655499999999997  0.5562899999999997  0.54262  1.0000
  C   C78       1.0  0.8451399999999998  0.59213  0.56552  1.0000
  C   C79       1.0  0.8695399999999999  0.64912  0.61145  1.0000
  C   C80       1.0  0.8127599999999997  0.6692799999999998  0.63454  1.0000
  C   C81       1.0  0.91268  0.7717  0.6993800000000001  1.0000
  C   C82       1.0  0.08717000000000004  0.62258  0.044410000000000005  1.0000
  C   C83       1.0  0.33605000000000007  0.90393  0.04115  1.0000
  C   C84       1.0  0.10125999999999998  0.73156  0.1137  1.0000
  C   C85       1.0  0.13378999999999985  0.7084299999999998  0.06762  1.0000
  C   C86       1.0  0.20926  0.76555  0.04262  1.0000
  C   C87       1.0  0.2530199999999999  0.84515  0.06552  1.0000
  C   C88       1.0  0.2204299999999999  0.86955  0.11144  1.0000
  C   C89       1.0  0.1434699999999999  0.8127499999999998  0.13454  1.0000
  C   C90       1.0  0.14098000000000008  0.91267  0.19937  1.0000
  C   C91       1.0  0.5354199999999999  0.9128199999999997  0.044410000000000005  1.0000
  C   C92       1.0  0.5678699999999999  0.66396  0.04115  1.0000
  C   C93       1.0  0.63032  0.89873  0.11371000000000002  1.0000
  C   C94       1.0  0.57463  0.8662  0.06761  1.0000
  C   C95       1.0  0.5563  0.79074  0.04262  1.0000
  C   C96       1.0  0.5921199999999999  0.7469899999999998  0.06551  1.0000
  C   C97       1.0  0.6491199999999997  0.7795899999999998  0.11145  1.0000
  C   C98       1.0  0.66929  0.8565399999999997  0.13454  1.0000
  C   C99       1.0  0.7716899999999999  0.85903  0.19937  1.0000
  C   C100      1.0  0.37741999999999987  0.46459  0.044410000000000005  1.0000
  C   C101      1.0  0.09608999999999998  0.43213  0.04115  1.0000
  C   C102      1.0  0.26842  0.3697  0.11369  1.0000
  C   C103      1.0  0.29157  0.42538  0.06761  1.0000
  C   C104      1.0  0.23445999999999995  0.4437099999999999  0.04262  1.0000
  C   C105      1.0  0.15485999999999994  0.40787  0.06552  1.0000
  C   C106      1.0  0.13046  0.35088  0.11145  1.0000
  C   C107      1.0  0.1872399999999999  0.3307199999999999  0.13454  1.0000
  C   C108      1.0  0.08732999999999996  0.22829999999999995  0.19938000000000003  1.0000
  C   C109      1.0  0.08820999999999989  0.91179  0.25  1.0000
  C   C110      1.0  0.08818999999999999  0.1764  0.25  1.0000
  C   C111      1.0  0.82361  0.91181  0.25  1.0000
  C   C112      1.0  0.9117899999999999  0.08821  0.75  1.0000
  C   C113      1.0  0.9118099999999998  0.8236  0.75  1.0000
  C   C114      1.0  0.17639999999999995  0.08819  0.75  1.0000
  O   O1        1.0  0.03292999999999999  0.61549  0.4285  1.0000
  O   O2        1.0  0.11464999999999989  0.6476099999999998  0.50878  1.0000
  O   O3        1.0  0.4322299999999999  0.9683499999999998  0.42269  1.0000
  O   O4        1.0  0.38930999999999993  0.8944299999999997  0.50678  1.0000
  O   O5        1.0  0.17068999999999987  0.8964199999999998  0.32217  1.0000
  O   O6        1.0  0.38446  0.41743  0.42851  1.0000
  O   O7        1.0  0.35241  0.46704  0.50879  1.0000
  O   O8        1.0  0.03166999999999999  0.46386  0.42269  1.0000
  O   O9        1.0  0.10557999999999997  0.49487999999999993  0.50678  1.0000
  O   O10       1.0  0.10359  0.27425  0.32216  1.0000
  O   O11       1.0  0.5825699999999999  0.96704  0.4285  1.0000
  O   O12       1.0  0.5329599999999999  0.8853499999999997  0.50878  1.0000
  O   O13       1.0  0.53614  0.5678  0.4227  1.0000
  O   O14       1.0  0.50513  0.61068  0.50679  1.0000
  O   O15       1.0  0.7257299999999998  0.82933  0.32217  1.0000
  O   O16       1.0  0.9670699999999999  0.38451  0.9285  1.0000
  O   O17       1.0  0.88536  0.3524  0.00878  1.0000
  O   O18       1.0  0.56778  0.031649999999999984  0.92269  1.0000
  O   O19       1.0  0.6107  0.10558  0.00678  1.0000
  O   O20       1.0  0.82932  0.10357999999999998  0.8221800000000001  1.0000
  O   O21       1.0  0.61554  0.58257  0.9285100000000001  1.0000
  O   O22       1.0  0.6475999999999998  0.5329599999999998  0.00878  1.0000
  O   O23       1.0  0.96833  0.53614  0.92269  1.0000
  O   O24       1.0  0.8944299999999998  0.50512  0.00678  1.0000
  O   O25       1.0  0.89642  0.72576  0.8221600000000001  1.0000
  O   O26       1.0  0.4174299999999999  0.03296  0.9285  1.0000
  O   O27       1.0  0.46704999999999997  0.11464999999999997  0.00878  1.0000
  O   O28       1.0  0.4638699999999999  0.4322  0.9227  1.0000
  O   O29       1.0  0.49487999999999993  0.38932  0.00679  1.0000
  O   O30       1.0  0.27426999999999996  0.17066999999999993  0.82217  1.0000
  O   O31       1.0  0.61549  0.03293  0.5715  1.0000
  O   O32       1.0  0.64761  0.11463999999999998  0.49122  1.0000
  O   O33       1.0  0.9683599999999998  0.4322299999999999  0.57732  1.0000
  O   O34       1.0  0.8944299999999998  0.3893  0.49322  1.0000
  O   O35       1.0  0.89642  0.17068999999999995  0.67783  1.0000
  O   O36       1.0  0.41742999999999986  0.38446  0.57149  1.0000
  O   O37       1.0  0.46704  0.35241  0.49122  1.0000
  O   O38       1.0  0.4638699999999999  0.03167  0.57731  1.0000
  O   O39       1.0  0.49489  0.10558  0.49322  1.0000
  O   O40       1.0  0.27425  0.10358999999999999  0.67784  1.0000
  O   O41       1.0  0.9670499999999999  0.58257  0.5715  1.0000
  O   O42       1.0  0.88536  0.5329599999999998  0.49122  1.0000
  O   O43       1.0  0.56781  0.53614  0.5773  1.0000
  O   O44       1.0  0.61069  0.50512  0.49321  1.0000
  O   O45       1.0  0.8293299999999999  0.72573  0.67783  1.0000
  O   O46       1.0  0.3845099999999999  0.96707  0.0715  1.0000
  O   O47       1.0  0.35239999999999994  0.88536  0.9912200000000001  1.0000
  O   O48       1.0  0.03164999999999991  0.56777  0.07732  1.0000
  O   O49       1.0  0.10558  0.6107  0.99322  1.0000
  O   O50       1.0  0.10358  0.82931  0.17783  1.0000
  O   O51       1.0  0.5825799999999998  0.61554  0.07149  1.0000
  O   O52       1.0  0.5329699999999999  0.64759  0.9912200000000001  1.0000
  O   O53       1.0  0.53614  0.96833  0.07731  1.0000
  O   O54       1.0  0.50512  0.89442  0.99322  1.0000
  O   O55       1.0  0.7257600000000001  0.89641  0.17784  1.0000
  O   O56       1.0  0.032959999999999996  0.41743  0.0715  1.0000
  O   O57       1.0  0.11464999999999995  0.46704  0.9912200000000001  1.0000
  O   O58       1.0  0.4321999999999999  0.46386  0.0773  1.0000
  O   O59       1.0  0.38932  0.49487999999999993  0.99321  1.0000
  O   O60       1.0  0.17067  0.27427  0.17783  1.0000
