data_image0
_chemical_formula_structural       Cu8H128C224O40
_chemical_formula_sum              "Cu8 H128 C224 O40"
_cell_length_a       31.44329
_cell_length_b       31.439239999999998
_cell_length_c       46.36514
_cell_angle_alpha    109.78316000000001
_cell_angle_beta     109.77191
_cell_angle_gamma    90.06109999999998

_symmetry_space_group_name_H-M    'P 1'
_symmetry_Int_Tables_number       1

loop_
  _symmetry_equiv_pos_as_xyz
  'x,y,z'

loop_
  _atom_site_type_symbol
  _atom_site_label
  _atom_site_symmetry_multiplicity
  _atom_site_fract_x
  _atom_site_fract_y
  _atom_site_fract_z
  _atom_site_occupancy
  Cu  Cu1       1.0  0.9179699999999998  0.4189499999999999  0.78216  1.0000
  Cu  Cu2       1.0  0.86431  0.3629499999999999  0.78204  1.0000
  Cu  Cu3       1.0  0.16882999999999995  0.11449000000000002  0.28185  1.0000
  Cu  Cu4       1.0  0.11284999999999998  0.16815  0.28177  1.0000
  Cu  Cu5       1.0  0.83186  0.8871400000000002  0.71823  1.0000
  Cu  Cu6       1.0  0.8854999999999996  0.8311499999999998  0.71814  1.0000
  Cu  Cu7       1.0  0.5810399999999998  0.08193999999999997  0.21784  1.0000
  Cu  Cu8       1.0  0.63711  0.13575  0.21796  1.0000
  H   H1        1.0  0.8800999999999997  0.6080599999999997  0.8880299999999999  1.0000
  H   H2        1.0  0.90323  0.54519  0.84944  1.0000
  H   H3        1.0  0.81047  0.44821999999999995  0.85265  1.0000
  H   H4        1.0  0.7868200000000001  0.5108900000000001  0.8916200000000001  1.0000
  H   H5        1.0  0.8496699999999999  0.7618400000000001  0.8327600000000001  1.0000
  H   H6        1.0  0.8668799999999999  0.7756599999999998  0.78813  1.0000
  H   H7        1.0  0.79097  0.8896499999999998  0.7972  1.0000
  H   H8        1.0  0.7738600000000001  0.8771399999999999  0.8425500000000001  1.0000
  H   H9        1.0  0.80553  0.6441  0.97479  1.0000
  H   H10       1.0  0.8159299999999998  0.7053  0.89473  1.0000
  H   H11       1.0  0.78055  0.84134  0.92625  1.0000
  H   H12       1.0  0.7695399999999998  0.82953  0.9730299999999998  1.0000
  H   H13       1.0  0.84257  0.6566399999999999  0.90941  1.0000
  H   H14       1.0  0.7937299999999998  0.58796  0.92524  1.0000
  H   H15       1.0  0.82186  0.74933  0.86596  1.0000
  H   H16       1.0  0.7837  0.8410999999999997  0.8802  1.0000
  H   H17       1.0  0.007670000000000044  0.27976000000000006  0.8880200000000001  1.0000
  H   H18       1.0  0.9461200000000001  0.30459  0.84967  1.0000
  H   H19       1.0  0.04249000000000004  0.40451000000000004  0.8530300000000001  1.0000
  H   H20       1.0  0.10497999999999998  0.38022  0.89175  1.0000
  H   H21       1.0  0.98256  0.07042999999999998  0.8324  1.0000
  H   H22       1.0  0.9207100000000001  0.012060000000000059  0.7876200000000001  1.0000
  H   H23       1.0  0.005469999999999986  0.9070199999999996  0.79669  1.0000
  H   H24       1.0  0.06791000000000001  0.9647899999999997  0.84213  1.0000
  H   H25       1.0  0.16995000000000002  0.3296200000000001  0.9740300000000001  1.0000
  H   H26       1.0  0.07814000000000004  0.18900999999999993  0.89439  1.0000
  H   H27       1.0  0.1444499999999999  0.08387000000000001  0.92545  1.0000
  H   H28       1.0  0.20316000000000004  0.14212000000000002  0.9718600000000001  1.0000
  H   H29       1.0  0.06680999999999998  0.2520599999999999  0.90904  1.0000
  H   H30       1.0  0.13149  0.3365299999999999  0.92482  1.0000
  H   H31       1.0  0.04299999999999991  0.11595999999999997  0.8655699999999998  1.0000
  H   H32       1.0  0.09579000000000003  0.03861000000000003  0.8797800000000001  1.0000
  H   H33       1.0  0.35795  0.25773  0.38787  1.0000
  H   H34       1.0  0.29488  0.19616  0.34924  1.0000
  H   H35       1.0  0.19833  0.29232  0.35274  1.0000
  H   H36       1.0  0.26123  0.35482  0.3917  1.0000
  H   H37       1.0  0.51186  0.2326  0.33245  1.0000
  H   H38       1.0  0.52558  0.17074  0.28788  1.0000
  H   H39       1.0  0.63974  0.25576  0.29693  1.0000
  H   H40       1.0  0.6272299999999997  0.3181299999999999  0.34219  1.0000
  H   H41       1.0  0.3940099999999999  0.4198599999999999  0.47401  1.0000
  H   H42       1.0  0.4554999999999999  0.32843  0.39452  1.0000
  H   H43       1.0  0.5916799999999998  0.3950899999999999  0.42596  1.0000
  H   H44       1.0  0.5797999999999998  0.45330000000000004  0.47250000000000003  1.0000
  H   H45       1.0  0.4068800000000001  0.3165899999999999  0.40936000000000006  1.0000
  H   H46       1.0  0.33829  0.38145000000000007  0.42495000000000005  1.0000
  H   H47       1.0  0.4994899999999998  0.2935799999999999  0.36578  1.0000
  H   H48       1.0  0.5912199999999997  0.34601  0.37987  1.0000
  H   H49       1.0  0.03017000000000001  0.13032  0.38805  1.0000
  H   H50       1.0  0.05483000000000002  0.15349999999999994  0.34961  1.0000
  H   H51       1.0  0.15468999999999997  0.06053999999999997  0.3529  1.0000
  H   H52       1.0  0.13047000000000003  0.03674999999999999  0.39164  1.0000
  H   H53       1.0  0.8205999999999998  0.10006999999999998  0.33235  1.0000
  H   H54       1.0  0.7622899999999999  0.11711  0.2876  1.0000
  H   H55       1.0  0.6572  0.04128999999999998  0.29667  1.0000
  H   H56       1.0  0.7148500000000001  0.024330000000000015  0.34212  1.0000
  H   H57       1.0  0.07973000000000002  0.054649999999999976  0.47431000000000006  1.0000
  H   H58       1.0  0.9390899999999996  0.06614999999999996  0.39436  1.0000
  H   H59       1.0  0.8339599999999997  0.030789999999999977  0.42552999999999996  1.0000
  H   H60       1.0  0.89229  0.01943999999999999  0.47229  1.0000
  H   H61       1.0  0.002359999999999976  0.09218  0.40898  1.0000
  H   H62       1.0  0.08682999999999998  0.04361999999999998  0.4251  1.0000
  H   H63       1.0  0.86618  0.07233000000000003  0.36551  1.0000
  H   H64       1.0  0.78859  0.034039999999999994  0.37973  1.0000
  H   H65       1.0  0.86968  0.9698299999999999  0.61195  1.0000
  H   H66       1.0  0.8464899999999997  0.9451599999999997  0.65039  1.0000
  H   H67       1.0  0.93946  0.8452999999999998  0.64711  1.0000
  H   H68       1.0  0.96325  0.8695200000000001  0.60836  1.0000
  H   H69       1.0  0.89994  0.17937000000000006  0.66764  1.0000
  H   H70       1.0  0.8828999999999998  0.23769999999999994  0.7124  1.0000
  H   H71       1.0  0.95871  0.34281  0.70334  1.0000
  H   H72       1.0  0.9756799999999998  0.28515  0.65788  1.0000
  H   H73       1.0  0.94535  0.9202399999999997  0.52568  1.0000
  H   H74       1.0  0.9338399999999996  0.060909999999999985  0.60564  1.0000
  H   H75       1.0  0.96921  0.16606  0.57448  1.0000
  H   H76       1.0  0.98057  0.10772  0.52771  1.0000
  H   H77       1.0  0.9078099999999998  0.9976399999999996  0.59102  1.0000
  H   H78       1.0  0.9563899999999999  0.9131699999999999  0.5749  1.0000
  H   H79       1.0  0.9276599999999998  0.13381000000000007  0.63449  1.0000
  H   H80       1.0  0.9659599999999998  0.21141000000000004  0.62027  1.0000
  H   H81       1.0  0.74225  0.6420299999999998  0.61211  1.0000
  H   H82       1.0  0.80381  0.7050999999999997  0.65075  1.0000
  H   H83       1.0  0.7076999999999998  0.8017  0.64728  1.0000
  H   H84       1.0  0.6452  0.7387899999999997  0.60832  1.0000
  H   H85       1.0  0.7673399999999998  0.48810999999999993  0.66752  1.0000
  H   H86       1.0  0.8291699999999997  0.47442  0.71209  1.0000
  H   H87       1.0  0.74415  0.36024  0.70304  1.0000
  H   H88       1.0  0.6818099999999998  0.37274  0.65778  1.0000
  H   H89       1.0  0.58017  0.6060699999999999  0.52601  1.0000
  H   H90       1.0  0.67152  0.5445199999999998  0.60545  1.0000
  H   H91       1.0  0.60484  0.40834  0.57399  1.0000
  H   H92       1.0  0.54667  0.42022  0.52746  1.0000
  H   H93       1.0  0.6834  0.59313  0.59061  1.0000
  H   H94       1.0  0.61857  0.6617399999999998  0.57505  1.0000
  H   H95       1.0  0.70636  0.50051  0.63418  1.0000
  H   H96       1.0  0.65394  0.40876  0.62009  1.0000
  H   H97       1.0  0.39201  0.11981999999999998  0.11203000000000002  1.0000
  H   H98       1.0  0.45488999999999996  0.0967  0.15059  1.0000
  H   H99       1.0  0.55179  0.18952  0.14736  1.0000
  H   H100      1.0  0.4891099999999999  0.21314  0.10841  1.0000
  H   H101      1.0  0.23817000000000002  0.15034000000000003  0.16725000000000004  1.0000
  H   H102      1.0  0.22433  0.13313  0.21188  1.0000
  H   H103      1.0  0.11034999999999999  0.20904999999999999  0.20279999999999998  1.0000
  H   H104      1.0  0.12289999999999997  0.22615000000000002  0.15746  1.0000
  H   H105      1.0  0.35631  0.19559999999999994  0.025690000000000004  1.0000
  H   H106      1.0  0.29471  0.18404  0.10528  1.0000
  H   H107      1.0  0.15863  0.21923  0.07369  1.0000
  H   H108      1.0  0.17041999999999993  0.23014999999999994  0.026879999999999998  1.0000
  H   H109      1.0  0.34328  0.15719  0.09045  1.0000
  H   H110      1.0  0.4120499999999999  0.20632  0.07488  1.0000
  H   H111      1.0  0.25071  0.17816  0.13408  1.0000
  H   H112      1.0  0.15891  0.21622000000000002  0.11977000000000002  1.0000
  H   H113      1.0  0.72019  0.99232  0.11198  1.0000
  H   H114      1.0  0.6953699999999998  0.05389000000000001  0.15032  1.0000
  H   H115      1.0  0.59546  0.95753  0.14699  1.0000
  H   H116      1.0  0.61975  0.89501  0.10826000000000001  1.0000
  H   H117      1.0  0.92957  0.017430000000000022  0.16760000000000003  1.0000
  H   H118      1.0  0.9879200000000001  0.07929  0.21238  1.0000
  H   H119      1.0  0.09296  0.9945299999999998  0.2033  1.0000
  H   H120      1.0  0.03519999999999999  0.93208  0.15784  1.0000
  H   H121      1.0  0.67031  0.83073  0.025560000000000003  1.0000
  H   H122      1.0  0.81103  0.9218999999999998  0.10567  1.0000
  H   H123      1.0  0.91608  0.8553599999999998  0.07462  1.0000
  H   H124      1.0  0.8578  0.7966599999999998  0.02822  1.0000
  H   H125      1.0  0.7479999999999998  0.93316  0.09116  1.0000
  H   H126      1.0  0.6634  0.86851  0.07511  1.0000
  H   H127      1.0  0.88405  0.9570099999999998  0.13442  1.0000
  H   H128      1.0  0.96138  0.90414  0.12024  1.0000
  C   C1        1.0  0.8311099999999998  0.5643399999999997  0.89252  1.0000
  C   C2        1.0  0.86432  0.5732799999999998  0.88031  1.0000
  C   C3        1.0  0.87767  0.5382  0.85878  1.0000
  C   C4        1.0  0.8582499999999998  0.4928099999999999  0.84864  1.0000
  C   C5        1.0  0.8253999999999999  0.48334999999999995  0.8606700000000002  1.0000
  C   C6        1.0  0.8123500000000001  0.51856  0.8824200000000001  1.0000
  C   C7        1.0  0.8721  0.45535  0.82519  1.0000
  C   C8        1.0  0.8100899999999998  0.8184300000000001  0.8411300000000002  1.0000
  C   C9        1.0  0.83632  0.78978  0.82514  1.0000
  C   C10       1.0  0.8461599999999998  0.79724  0.80007  1.0000
  C   C11       1.0  0.8297300000000001  0.8332900000000001  0.7897900000000001  1.0000
  C   C12       1.0  0.8034099999999997  0.8618199999999998  0.80524  1.0000
  C   C13       1.0  0.7940599999999998  0.8546299999999998  0.83058  1.0000
  C   C14       1.0  0.84028  0.8416  0.76301  1.0000
  C   C15       1.0  0.78002  0.75436  0.98849  1.0000
  C   C16       1.0  0.7857900000000001  0.7107399999999999  0.9933100000000001  1.0000
  C   C17       1.0  0.79962  0.6754299999999998  0.96978  1.0000
  C   C18       1.0  0.80726  0.6810899999999998  0.94377  1.0000
  C   C19       1.0  0.8003200000000001  0.7244200000000001  0.9387900000000001  1.0000
  C   C20       1.0  0.78658  0.76052  0.96154  1.0000
  C   C21       1.0  0.8061999999999999  0.73223  0.9123800000000001  1.0000
  C   C22       1.0  0.79954  0.77362  0.90689  1.0000
  C   C23       1.0  0.78586  0.80884  0.9295  1.0000
  C   C24       1.0  0.7797799999999998  0.8023899999999998  0.95579  1.0000
  C   C25       1.0  0.82311  0.64537  0.92154  1.0000
  C   C26       1.0  0.8151300000000001  0.5999700000000001  0.9146000000000001  1.0000
  C   C27       1.0  0.80786  0.77797  0.87915  1.0000
  C   C28       1.0  0.79976  0.8133800000000001  0.8681700000000001  1.0000
  C   C29       1.0  0.061350000000000036  0.32775000000000004  0.8924500000000001  1.0000
  C   C30       1.0  0.015889999999999977  0.3068099999999999  0.88034  1.0000
  C   C31       1.0  0.98111  0.32061  0.85893  1.0000
  C   C32       1.0  0.99057  0.3558399999999999  0.84883  1.0000
  C   C33       1.0  0.03546999999999999  0.37727  0.86089  1.0000
  C   C34       1.0  0.07017999999999991  0.3635499999999999  0.88251  1.0000
  C   C35       1.0  0.9534  0.3698600000000001  0.8253100000000001  1.0000
  C   C36       1.0  0.03033000000000003  0.022109999999999994  0.84071  1.0000
  C   C37       1.0  0.98819  0.03485000000000001  0.8247  1.0000
  C   C38       1.0  0.9533099999999998  0.0023900000000000392  0.7996100000000002  1.0000
  C   C39       1.0  0.9594099999999998  0.95607  0.78939  1.0000
  C   C40       1.0  0.0011399999999999627  0.94291  0.8047899999999999  1.0000
  C   C41       1.0  0.035809999999999974  0.9753799999999998  0.83013  1.0000
  C   C42       1.0  0.92193  0.9210799999999998  0.76285  1.0000
  C   C43       1.0  0.20876999999999998  0.23267000000000004  0.9873400000000001  1.0000
  C   C44       1.0  0.20818999999999996  0.28110000000000007  0.99216  1.0000
  C   C45       1.0  0.17066000000000003  0.2932599999999999  0.9689900000000001  1.0000
  C   C46       1.0  0.13656000000000001  0.2618099999999999  0.94321  1.0000
  C   C47       1.0  0.13811000000000007  0.21346000000000004  0.9382200000000002  1.0000
  C   C48       1.0  0.1746199999999999  0.19981999999999991  0.96075  1.0000
  C   C49       1.0  0.10546000000000001  0.17946999999999988  0.91193  1.0000
  C   C50       1.0  0.10635999999999998  0.13258000000000003  0.90641  1.0000
  C   C51       1.0  0.14264  0.11968999999999999  0.92883  1.0000
  C   C52       1.0  0.17541000000000007  0.15219000000000002  0.9549300000000001  1.0000
  C   C53       1.0  0.09841000000000001  0.27545  0.92117  1.0000
  C   C54       1.0  0.09941999999999988  0.31397  0.9143  1.0000
  C   C55       1.0  0.07028000000000006  0.10053000000000002  0.8787200000000001  1.0000
  C   C56       1.0  0.06760000000000001  0.054209999999999994  0.86775  1.0000
  C   C57       1.0  0.31445000000000006  0.3113000000000001  0.3924500000000001  1.0000
  C   C58       1.0  0.32323  0.26586  0.3802  1.0000
  C   C59       1.0  0.28804999999999986  0.23108  0.35867  1.0000
  C   C60       1.0  0.24272999999999997  0.24050000000000002  0.3486  1.0000
  C   C61       1.0  0.23342  0.2853599999999999  0.36073  1.0000
  C   C62       1.0  0.26874  0.32007  0.38245  1.0000
  C   C63       1.0  0.20519999999999988  0.20333999999999994  0.32501  1.0000
  C   C64       1.0  0.56848  0.28051  0.34082  1.0000
  C   C65       1.0  0.53982  0.23826999999999993  0.32481  1.0000
  C   C66       1.0  0.54727  0.20335999999999993  0.29976  1.0000
  C   C67       1.0  0.58334  0.20949999999999994  0.28947000000000006  1.0000
  C   C68       1.0  0.6119  0.2513  0.30496  1.0000
  C   C69       1.0  0.60468  0.28597  0.33026  1.0000
  C   C70       1.0  0.59169  0.17215000000000003  0.2627  1.0000
  C   C71       1.0  0.5044999999999997  0.4586599999999999  0.48787  1.0000
  C   C72       1.0  0.4606899999999999  0.4580299999999999  0.49249  1.0000
  C   C73       1.0  0.42547  0.42049  0.46912  1.0000
  C   C74       1.0  0.4312899999999999  0.3864099999999999  0.44342000000000004  1.0000
  C   C75       1.0  0.47476  0.38809999999999995  0.43857000000000007  1.0000
  C   C76       1.0  0.5108899999999997  0.4246099999999999  0.46125  1.0000
  C   C77       1.0  0.48254  0.35571  0.4122  1.0000
  C   C78       1.0  0.5239399999999997  0.35679999999999995  0.40671000000000007  1.0000
  C   C79       1.0  0.55921  0.3930699999999998  0.42927999999999994  1.0000
  C   C80       1.0  0.5527399999999998  0.4256099999999999  0.45547  1.0000
  C   C81       1.0  0.39556  0.34823  0.42134  1.0000
  C   C82       1.0  0.3502  0.34932  0.41441  1.0000
  C   C83       1.0  0.52818  0.32075  0.37892  1.0000
  C   C84       1.0  0.5635  0.31788  0.36787  1.0000
  C   C85       1.0  0.07805  0.08109  0.39246  1.0000
  C   C86       1.0  0.05717000000000001  0.11444  0.38033  1.0000
  C   C87       1.0  0.07092999999999998  0.1278  0.35886  1.0000
  C   C88       1.0  0.10610000000000003  0.10826  0.3487  1.0000
  C   C89       1.0  0.1275  0.07544999999999998  0.3608  1.0000
  C   C90       1.0  0.11379  0.06233999999999998  0.38246  1.0000
  C   C91       1.0  0.11991999999999997  0.12186  0.32502  1.0000
  C   C92       1.0  0.77228  0.06044000000000002  0.34066  1.0000
  C   C93       1.0  0.7850499999999998  0.08661999999999997  0.32465  1.0000
  C   C94       1.0  0.75262  0.0964  0.29956  1.0000
  C   C95       1.0  0.70631  0.08004000000000003  0.28932  1.0000
  C   C96       1.0  0.6930999999999997  0.05369000000000002  0.30474  1.0000
  C   C97       1.0  0.72553  0.04439000000000002  0.33009  1.0000
  C   C98       1.0  0.67134  0.09095000000000002  0.26275  1.0000
  C   C99       1.0  0.9828  0.02991  0.48791  1.0000
  C   C100      1.0  0.031240000000000025  0.035240000000000014  0.49276  1.0000
  C   C101      1.0  0.04338000000000003  0.04902000000000003  0.4693300000000001  1.0000
  C   C102      1.0  0.011960000000000054  0.057010000000000026  0.44339000000000006  1.0000
  C   C103      1.0  0.96358  0.05051000000000001  0.43839000000000006  1.0000
  C   C104      1.0  0.94994  0.03691000000000001  0.46109  1.0000
  C   C105      1.0  0.9295599999999997  0.05651000000000002  0.41197000000000006  1.0000
  C   C106      1.0  0.88265  0.049990000000000014  0.40644  1.0000
  C   C107      1.0  0.86976  0.03624000000000002  0.42894  1.0000
  C   C108      1.0  0.9023099999999998  0.030029999999999973  0.45521999999999996  1.0000
  C   C109      1.0  0.025709999999999993  0.07284999999999998  0.42123  1.0000
  C   C110      1.0  0.06427  0.06499000000000002  0.41441  1.0000
  C   C111      1.0  0.85066  0.058309999999999994  0.37868  1.0000
  C   C112      1.0  0.8043099999999997  0.050170000000000006  0.36772  1.0000
  C   C113      1.0  0.9189099999999998  0.92194  0.60754  1.0000
  C   C114      1.0  0.8855599999999998  0.9428199999999999  0.61967  1.0000
  C   C115      1.0  0.8721899999999997  0.92907  0.64114  1.0000
  C   C116      1.0  0.8917299999999996  0.8938900000000001  0.6513  1.0000
  C   C117      1.0  0.9245400000000001  0.8724899999999998  0.6392  1.0000
  C   C118      1.0  0.9376599999999998  0.8862  0.61755  1.0000
  C   C119      1.0  0.8781300000000001  0.8800799999999998  0.67498  1.0000
  C   C120      1.0  0.9395700000000001  0.22770999999999994  0.65933  1.0000
  C   C121      1.0  0.91338  0.21493  0.67534  1.0000
  C   C122      1.0  0.9036  0.2473599999999999  0.70043  1.0000
  C   C123      1.0  0.91996  0.29369000000000006  0.71066  1.0000
  C   C124      1.0  0.9463099999999999  0.3068999999999999  0.69525  1.0000
  C   C125      1.0  0.95562  0.27448  0.6699  1.0000
  C   C126      1.0  0.90904  0.32864  0.73721  1.0000
  C   C127      1.0  0.97008  0.017189999999999945  0.51208  1.0000
  C   C128      1.0  0.96476  0.96875  0.50723  1.0000
  C   C129      1.0  0.95098  0.9566  0.53067  1.0000
  C   C130      1.0  0.9429899999999996  0.98803  0.55661  1.0000
  C   C131      1.0  0.94949  0.036409999999999956  0.56161  1.0000
  C   C132      1.0  0.9630999999999997  0.050060000000000056  0.53891  1.0000
  C   C133      1.0  0.94348  0.07043999999999995  0.58803  1.0000
  C   C134      1.0  0.9500100000000001  0.11735  0.59356  1.0000
  C   C135      1.0  0.96377  0.13026000000000004  0.57106  1.0000
  C   C136      1.0  0.9699799999999997  0.09769999999999994  0.54478  1.0000
  C   C137      1.0  0.92715  0.9742799999999996  0.57877  1.0000
  C   C138      1.0  0.9350099999999996  0.93573  0.58559  1.0000
  C   C139      1.0  0.9416799999999996  0.14934  0.62131  1.0000
  C   C140      1.0  0.94982  0.19569  0.63228  1.0000
  C   C141      1.0  0.6887  0.6855599999999997  0.60755  1.0000
  C   C142      1.0  0.73413  0.67677  0.61979  1.0000
  C   C143      1.0  0.7689  0.7119499999999997  0.64133  1.0000
  C   C144      1.0  0.7595  0.75727  0.6514  1.0000
  C   C145      1.0  0.7146499999999998  0.7665999999999997  0.63929  1.0000
  C   C146      1.0  0.67994  0.7312799999999998  0.61756  1.0000
  C   C147      1.0  0.7966599999999998  0.7948000000000001  0.6749900000000001  1.0000
  C   C148      1.0  0.71943  0.4315099999999999  0.65915  1.0000
  C   C149      1.0  0.76166  0.4601599999999999  0.67515  1.0000
  C   C150      1.0  0.79656  0.45271  0.70021  1.0000
  C   C151      1.0  0.79041  0.41665  0.7105  1.0000
  C   C152      1.0  0.74862  0.38809  0.69501  1.0000
  C   C153      1.0  0.71396  0.39529  0.66971  1.0000
  C   C154      1.0  0.8277499999999998  0.4083099999999999  0.73726  1.0000
  C   C155      1.0  0.54137  0.4955299999999998  0.51208  1.0000
  C   C156      1.0  0.5419699999999997  0.53937  0.5075  1.0000
  C   C157      1.0  0.57952  0.57459  0.53087  1.0000
  C   C158      1.0  0.61359  0.56874  0.55656  1.0000
  C   C159      1.0  0.61188  0.52525  0.5614  1.0000
  C   C160      1.0  0.57538  0.48913  0.53871  1.0000
  C   C161      1.0  0.64425  0.51747  0.58777  1.0000
  C   C162      1.0  0.64316  0.47607000000000005  0.59325  1.0000
  C   C163      1.0  0.60688  0.4408000000000001  0.57068  1.0000
  C   C164      1.0  0.5743599999999998  0.44727  0.54448  1.0000
  C   C165      1.0  0.6517699999999997  0.60445  0.57864  1.0000
  C   C166      1.0  0.65069  0.64983  0.58559  1.0000
  C   C167      1.0  0.67919  0.47180999999999995  0.62104  1.0000
  C   C168      1.0  0.6820699999999997  0.43648999999999993  0.63209  1.0000
  C   C169      1.0  0.4356699999999999  0.16882999999999995  0.10751999999999999  1.0000
  C   C170      1.0  0.42677  0.13560999999999995  0.11973  1.0000
  C   C171      1.0  0.4618599999999999  0.12226  0.14124  1.0000
  C   C172      1.0  0.50724  0.14169999999999994  0.15138  1.0000
  C   C173      1.0  0.5166699999999997  0.17455  0.13935  1.0000
  C   C174      1.0  0.4814499999999999  0.1876  0.1176  1.0000
  C   C175      1.0  0.54471  0.12786  0.17486  1.0000
  C   C176      1.0  0.1816  0.18991999999999995  0.15888  1.0000
  C   C177      1.0  0.21024  0.16369999999999996  0.17488  1.0000
  C   C178      1.0  0.20276  0.15386  0.19994  1.0000
  C   C179      1.0  0.1667  0.17026999999999995  0.21021  1.0000
  C   C180      1.0  0.13819000000000004  0.19660000000000002  0.19476000000000002  1.0000
  C   C181      1.0  0.1454  0.20595999999999995  0.16943  1.0000
  C   C182      1.0  0.15838  0.15972  0.23699  1.0000
  C   C183      1.0  0.24565  0.22003999999999996  0.01155  1.0000
  C   C184      1.0  0.2895  0.21501  0.007010000000000001  1.0000
  C   C185      1.0  0.3248  0.20107999999999995  0.03049  1.0000
  C   C186      1.0  0.31895  0.19279  0.056240000000000005  1.0000
  C   C187      1.0  0.27547  0.19931  0.06107  1.0000
  C   C188      1.0  0.23931  0.21287  0.03827  1.0000
  C   C189      1.0  0.2677  0.19352999999999995  0.08753  1.0000
  C   C190      1.0  0.2263  0.20016  0.093  1.0000
  C   C191      1.0  0.19105  0.21373  0.07036  1.0000
  C   C192      1.0  0.19747999999999993  0.21973  0.04404  1.0000
  C   C193      1.0  0.35461  0.1767999999999999  0.07842  1.0000
  C   C194      1.0  0.40003  0.18482999999999994  0.08546  1.0000
  C   C195      1.0  0.22203  0.19205  0.12084  1.0000
  C   C196      1.0  0.18663  0.20018999999999995  0.13182  1.0000
  C   C197      1.0  0.67222  0.93864  0.10757  1.0000
  C   C198      1.0  0.69315  0.9841  0.11966000000000002  1.0000
  C   C199      1.0  0.6793499999999998  0.0189  0.14107  1.0000
  C   C200      1.0  0.64413  0.00945000000000001  0.15118  1.0000
  C   C201      1.0  0.62271  0.96455  0.13913  1.0000
  C   C202      1.0  0.63642  0.92982  0.11751  1.0000
  C   C203      1.0  0.6301499999999998  0.046660000000000014  0.17473  1.0000
  C   C204      1.0  0.9778799999999997  0.96966  0.15927000000000002  1.0000
  C   C205      1.0  0.96514  0.01181  0.17528  1.0000
  C   C206      1.0  0.99759  0.04669  0.20038  1.0000
  C   C207      1.0  0.04389999999999999  0.04059000000000001  0.21061  1.0000
  C   C208      1.0  0.057069999999999996  0.9988499999999998  0.19519  1.0000
  C   C209      1.0  0.02462  0.96419  0.16984000000000002  1.0000
  C   C210      1.0  0.07887999999999999  0.07808  0.23715  1.0000
  C   C211      1.0  0.76728  0.79132  0.012649999999999998  1.0000
  C   C212      1.0  0.71882  0.7922  0.00754  1.0000
  C   C213      1.0  0.7066699999999999  0.82975  0.03072  1.0000
  C   C214      1.0  0.73817  0.86351  0.056780000000000004  1.0000
  C   C215      1.0  0.7865299999999997  0.8617399999999997  0.061950000000000005  1.0000
  C   C216      1.0  0.80015  0.8251199999999997  0.03947  1.0000
  C   C217      1.0  0.8205299999999998  0.89444  0.0882  1.0000
  C   C218      1.0  0.86741  0.8934799999999998  0.0937  1.0000
  C   C219      1.0  0.8802899999999998  0.85712  0.07131  1.0000
  C   C220      1.0  0.84778  0.8243199999999998  0.04525  1.0000
  C   C221      1.0  0.7245599999999998  0.9015999999999997  0.0789  1.0000
  C   C222      1.0  0.68599  0.90057  0.08569  1.0000
  C   C223      1.0  0.89946  0.9296599999999998  0.12131  1.0000
  C   C224      1.0  0.94579  0.9323599999999997  0.13226  1.0000
  O   O1        1.0  0.90455  0.4661399999999999  0.817  1.0000
  O   O2        1.0  0.85047  0.41528000000000004  0.8147100000000002  1.0000
  O   O3        1.0  0.8208099999999999  0.87275  0.75333  1.0000
  O   O4        1.0  0.86789  0.8174  0.75179  1.0000
  O   O5        1.0  0.78054  0.7046  0.01738  1.0000
  O   O6        1.0  0.9127900000000001  0.35039999999999993  0.8166500000000001  1.0000
  O   O7        1.0  0.9646  0.3999400000000001  0.8152500000000001  1.0000
  O   O8        1.0  0.9314999999999998  0.8801899999999998  0.75325  1.0000
  O   O9        1.0  0.88312  0.9342  0.75178  1.0000
  O   O10       1.0  0.23773999999999995  0.31091999999999986  0.01632  1.0000
  O   O11       1.0  0.21613  0.16282  0.31626  1.0000
  O   O12       1.0  0.16503  0.21442  0.31499  1.0000
  O   O13       1.0  0.62368  0.18162  0.25366  1.0000
  O   O14       1.0  0.56671  0.13363  0.25096  1.0000
  O   O15       1.0  0.45454999999999995  0.4874199999999999  0.51651  1.0000
  O   O16       1.0  0.10025  0.15363  0.31625  1.0000
  O   O17       1.0  0.14994  0.10068000000000002  0.31489  1.0000
  O   O18       1.0  0.63037  0.07212  0.2535  1.0000
  O   O19       1.0  0.68461  0.11823  0.25138  1.0000
  O   O20       1.0  0.061009999999999995  0.03003  0.51701  1.0000
  O   O21       1.0  0.8463599999999998  0.89976  0.68375  1.0000
  O   O22       1.0  0.8993  0.8500499999999998  0.68511  1.0000
  O   O23       1.0  0.9277899999999997  0.3696599999999999  0.74648  1.0000
  O   O24       1.0  0.8817899999999997  0.31539999999999985  0.74863  1.0000
  O   O25       1.0  0.96999  0.9389699999999999  0.4829800000000001  1.0000
  O   O26       1.0  0.8371599999999998  0.7838599999999998  0.68374  1.0000
  O   O27       1.0  0.78558  0.8349799999999998  0.68501  1.0000
  O   O28       1.0  0.8183399999999997  0.3763199999999999  0.74634  1.0000
  O   O29       1.0  0.8663000000000001  0.43327000000000004  0.7490500000000001  1.0000
  O   O30       1.0  0.51255  0.54552  0.48350000000000004  1.0000
  O   O31       1.0  0.5338599999999998  0.09542  0.18303  1.0000
  O   O32       1.0  0.5847399999999998  0.14954999999999993  0.18532  1.0000
  O   O33       1.0  0.12723  0.1792  0.24667  1.0000
  O   O34       1.0  0.18258  0.13211  0.24821  1.0000
  O   O35       1.0  0.29556000000000004  0.22049000000000002  0.9829800000000001  1.0000
  O   O36       1.0  0.6496199999999998  0.08724  0.18336  1.0000
  O   O37       1.0  0.6001199999999998  0.03539000000000001  0.18479  1.0000
  O   O38       1.0  0.11976000000000002  0.0685  0.24674000000000001  1.0000
  O   O39       1.0  0.06575999999999996  0.11688999999999995  0.24821999999999997  1.0000
  O   O40       1.0  0.6890600000000001  0.7625199999999998  0.9833900000000001  1.0000
