data_image0
_chemical_formula_structural       Mn12H96C204S24O48
_chemical_formula_sum              "Mn12 H96 C204 S24 O48"
_cell_length_a       19.67541
_cell_length_b       19.67723
_cell_length_c       19.91668
_cell_angle_alpha    89.95698
_cell_angle_beta     89.97016
_cell_angle_gamma    120.0136

_space_group_name_H-M_alt    "P 1"
_space_group_IT_number       1

loop_
  _space_group_symop_operation_xyz
  'x, y, z'

loop_
  _atom_site_type_symbol
  _atom_site_label
  _atom_site_symmetry_multiplicity
  _atom_site_fract_x
  _atom_site_fract_y
  _atom_site_fract_z
  _atom_site_occupancy
  Mn  Mn1       1.0  0.239  0.63049  0.0244  1.0000
  Mn  Mn2       1.0  0.29021  0.73328  0.19034  1.0000
  Mn  Mn3       1.0  0.36938  0.60866  0.69094  1.0000
  Mn  Mn4       1.0  0.71023  0.26703  0.69143  1.0000
  Mn  Mn5       1.0  0.7619300000000002  0.36969  0.52433  1.0000
  Mn  Mn6       1.0  0.73309  0.44326  0.35765  1.0000
  Mn  Mn7       1.0  0.26685  0.55696  0.8569899999999999  1.0000
  Mn  Mn8       1.0  0.39153  0.7612  0.35771  1.0000
  Mn  Mn9       1.0  0.55657  0.2898  0.02443  1.0000
  Mn  Mn10      1.0  0.44309000000000004  0.70969  0.52376  1.0000
  Mn  Mn11      1.0  0.60891  0.23909  0.8573500000000001  1.0000
  Mn  Mn12      1.0  0.63106  0.39107  0.19013  1.0000
  H   H1        1.0  0.65202  0.87387  0.74436  1.0000
  H   H2        1.0  0.04417999999999999  0.29746  0.47866999999999993  1.0000
  H   H3        1.0  0.47501  0.3481  0.407  1.0000
  H   H4        1.0  0.26626  0.80786  0.95686  1.0000
  H   H5        1.0  0.32896  0.26307  0.4042  1.0000
  H   H6        1.0  0.8534399999999999  0.07264  0.74272  1.0000
  H   H7        1.0  0.5986499999999999  0.6278999999999999  0.71871  1.0000
  H   H8        1.0  0.8257499999999999  0.92302  0.44189  1.0000
  H   H9        1.0  0.19474000000000005  0.8324  0.24015  1.0000
  H   H10       1.0  0.65169  0.12654  0.07399  1.0000
  H   H11       1.0  0.63733  0.80476  0.57347  1.0000
  H   H12       1.0  0.17623  0.86265  0.13417  1.0000
  H   H13       1.0  0.9704900000000001  0.59836  0.55152  1.0000
  H   H14       1.0  0.17550999999999997  0.07803999999999998  0.94242  1.0000
  H   H15       1.0  0.26026  0.3111  0.46040999999999993  1.0000
  H   H16       1.0  0.73409  0.1923  0.45672000000000007  1.0000
  H   H17       1.0  0.93427  0.25777  0.05646  1.0000
  H   H18       1.0  0.09735  0.17442  0.77533  1.0000
  H   H19       1.0  0.80764  0.54128  0.12242  1.0000
  H   H20       1.0  0.6892600000000002  0.94934  0.12761  1.0000
  H   H21       1.0  0.3475899999999999  0.87258  0.5729  1.0000
  H   H22       1.0  0.68652  0.82368  0.46755  1.0000
  H   H23       1.0  0.49499  0.21154999999999996  0.24797  1.0000
  H   H24       1.0  0.28236  0.49279  0.07997  1.0000
  H   H25       1.0  0.10824999999999999  0.31366  0.61485  1.0000
  H   H26       1.0  0.07711  0.90266  0.10855  1.0000
  H   H27       1.0  0.73935  0.6892  0.96029  1.0000
  H   H28       1.0  0.35032  0.12692  0.24507  1.0000
  H   H29       1.0  0.54427  0.88889  0.13745  1.0000
  H   H30       1.0  0.78846  0.28328  0.91479  1.0000
  H   H31       1.0  0.92325  0.09729  0.60953  1.0000
  H   H32       1.0  0.71742  0.50526  0.58093  1.0000
  H   H33       1.0  0.50728  0.78958  0.74669  1.0000
  H   H34       1.0  0.02973  0.40158  0.05201  1.0000
  H   H35       1.0  0.25374  0.95587  0.8122300000000001  1.0000
  H   H36       1.0  0.68593  0.79423  0.2819  1.0000
  H   H37       1.0  0.9498600000000001  0.26137  0.29385  1.0000
  H   H38       1.0  0.12600999999999998  0.77801  0.41145  1.0000
  H   H39       1.0  0.4013  0.37149  0.21910000000000002  1.0000
  H   H40       1.0  0.19202  0.45799  0.6236  1.0000
  H   H41       1.0  0.07176000000000003  0.21896  0.90901  1.0000
  H   H42       1.0  0.8731300000000001  0.2233  0.91188  1.0000
  H   H43       1.0  0.65478  0.54421  0.9699199999999999  1.0000
  H   H44       1.0  0.67726  0.93428  0.89013  1.0000
  H   H45       1.0  0.05107000000000003  0.74043  0.79403  1.0000
  H   H46       1.0  0.21932999999999997  0.14711  0.07563  1.0000
  H   H47       1.0  0.36314  0.19506  0.07372  1.0000
  H   H48       1.0  0.33771  0.39233  0.67192  1.0000
  H   H49       1.0  0.5416  0.7333099999999998  0.29022  1.0000
  H   H50       1.0  0.8910199999999999  0.68553  0.11433  1.0000
  H   H51       1.0  0.13725  0.31352  0.80094  1.0000
  H   H52       1.0  0.45824000000000004  0.26623  0.78989  1.0000
  H   H53       1.0  0.7770999999999999  0.64988  0.57802  1.0000
  H   H54       1.0  0.20591  0.89178  0.94841  1.0000
  H   H55       1.0  0.79434  0.10833  0.44762  1.0000
  H   H56       1.0  0.90236  0.82425  0.2756  1.0000
  H   H57       1.0  0.8319800000000002  0.63731  0.40687  1.0000
  H   H58       1.0  0.31407  0.20577  0.7809  1.0000
  H   H59       1.0  0.31151  0.05035  0.62744  1.0000
  H   H60       1.0  0.7020299999999999  0.7463699999999999  0.14559  1.0000
  H   H61       1.0  0.86231  0.68467  0.30036  1.0000
  H   H62       1.0  0.34517  0.456  0.4707299999999999  1.0000
  H   H63       1.0  0.7812500000000001  0.85318  0.57573  1.0000
  H   H64       1.0  0.9275800000000001  0.78108  0.40923  1.0000
  H   H65       1.0  0.06532  0.74211  0.55621  1.0000
  H   H66       1.0  0.3715899999999999  0.96989  0.38533  1.0000
  H   H67       1.0  0.9341399999999999  0.6712899999999999  0.73769  1.0000
  H   H68       1.0  0.29783  0.25344  0.64527  1.0000
  H   H69       1.0  0.39288000000000006  0.05541000000000001  0.8383  1.0000
  H   H70       1.0  0.8735099999999999  0.52528  0.74043  1.0000
  H   H71       1.0  0.45641999999999994  0.1108  0.63769  1.0000
  H   H72       1.0  0.16763  0.36279  0.9067000000000001  1.0000
  H   H73       1.0  0.60805  0.9455  0.33851  1.0000
  H   H74       1.0  0.66242  0.60721  0.17145  1.0000
  H   H75       1.0  0.11077  0.65535  0.8041  1.0000
  H   H76       1.0  0.8235799999999999  0.13685  0.63502  1.0000
  H   H77       1.0  0.14709999999999993  0.9284499999999999  0.24240999999999996  1.0000
  H   H78       1.0  0.7471  0.04471  0.31197  1.0000
  H   H79       1.0  0.9444  0.33658  0.50523  1.0000
  H   H80       1.0  0.0657  0.3282  0.23767000000000002  1.0000
  H   H81       1.0  0.8048  0.16795  0.74057  1.0000
  H   H82       1.0  0.8896599999999999  0.34599  0.30439  1.0000
  H   H83       1.0  0.22207  0.34817  0.07787  1.0000
  H   H84       1.0  0.21028  0.71762  0.41327  1.0000
  H   H85       1.0  0.31513  0.17748  0.9672199999999999  1.0000
  H   H86       1.0  0.6714899999999999  0.7372099999999999  0.90425  1.0000
  H   H87       1.0  0.054280000000000016  0.66243  0.00524  1.0000
  H   H88       1.0  0.25747  0.32288  0.22309  1.0000
  H   H89       1.0  0.62815  0.029029999999999997  0.88595  1.0000
  H   H90       1.0  0.73684  0.06571  0.07121  1.0000
  H   H91       1.0  0.52541  0.65261  0.90658  1.0000
  H   H92       1.0  0.12688000000000002  0.47415999999999997  0.23986  1.0000
  H   H93       1.0  0.26313  0.93409  0.57099  1.0000
  H   H94       1.0  0.9554199999999999  0.70246  0.97877  1.0000
  H   H95       1.0  0.3235  0.06551  0.38973  1.0000
  H   H96       1.0  0.74251  0.67668  0.72308  1.0000
  C   C1        1.0  0.77729  0.11633  0.77271  1.0000
  C   C2        1.0  0.015139999999999994  0.71917  0.52277  1.0000
  C   C3        1.0  0.67669  0.03705  0.8543400000000001  1.0000
  C   C4        1.0  0.79908  0.94234  0.81868  1.0000
  C   C5        1.0  0.42586  0.21936  0.75394  1.0000
  C   C6        1.0  0.8218299999999998  0.6981399999999999  0.03605  1.0000
  C   C7        1.0  0.7538599999999999  0.6567499999999998  0.99625  1.0000
  C   C8        1.0  0.9030300000000001  0.24665  0.33002  1.0000
  C   C9        1.0  0.30201  0.12382999999999998  0.70297  1.0000
  C   C10       1.0  0.87255  0.17187  0.60158  1.0000
  C   C11       1.0  0.77218  0.32519  0.38769  1.0000
  C   C12       1.0  0.22109  0.7644  0.44822999999999996  1.0000
  C   C13       1.0  0.57582  0.86846  0.16861  1.0000
  C   C14       1.0  0.94157  0.14355  0.9852099999999999  1.0000
  C   C15       1.0  0.80433  0.06318  0.77439  1.0000
  C   C16       1.0  0.87939  0.24014  0.57311  1.0000
  C   C17       1.0  0.17242  0.29976  0.76756  1.0000
  C   C18       1.0  0.79194  0.50608  0.66091  1.0000
  C   C19       1.0  0.20195  0.05845  0.3185  1.0000
  C   C20       1.0  0.19271999999999995  0.7262  0.88085  1.0000
  C   C21       1.0  0.0721799999999999  0.85001  0.08603  1.0000
  C   C22       1.0  0.7194  0.70375  0.68954  1.0000
  C   C23       1.0  0.13798999999999992  0.89546  0.49073  1.0000
  C   C24       1.0  0.55556  0.82105  0.4217000000000001  1.0000
  C   C25       1.0  0.17139  0.12189  0.69626  1.0000
  C   C26       1.0  0.36073  0.32312  0.18745  1.0000
  C   C27       1.0  0.63936  0.67635  0.68709  1.0000
  C   C28       1.0  0.71311  0.1034  0.81244  1.0000
  C   C29       1.0  0.11299000000000001  0.36454  0.20313000000000003  1.0000
  C   C30       1.0  0.32335000000000014  0.96253  0.35371  1.0000
  C   C31       1.0  0.057869999999999984  0.85664  0.48544  1.0000
  C   C32       1.0  0.44504999999999995  0.17893  0.9209899999999999  1.0000
  C   C33       1.0  0.46699000000000007  0.19309  0.71381  1.0000
  C   C34       1.0  0.7589600000000001  0.41999  0.66144  1.0000
  C   C35       1.0  0.65615  0.9419  0.36175  1.0000
  C   C36       1.0  0.196  0.93741  0.27409  1.0000
  C   C37       1.0  0.22311  0.07309  0.9195700000000001  1.0000
  C   C38       1.0  0.54335  0.77882  0.7816  1.0000
  C   C39       1.0  0.25905  0.19593999999999998  0.10745  1.0000
  C   C40       1.0  0.24345000000000003  0.13859  0.32349  1.0000
  C   C41       1.0  0.89985  0.99545  0.9952599999999999  1.0000
  C   C42       1.0  0.14724999999999996  0.4458999999999999  0.20471  1.0000
  C   C43       1.0  0.57415  0.7803899999999999  0.25439  1.0000
  C   C44       1.0  0.14008999999999996  0.32800999999999997  0.15815  1.0000
  C   C45       1.0  0.12427  0.82258  0.87012  1.0000
  C   C46       1.0  0.0048400000000000136  0.90457  0.66177  1.0000
  C   C47       1.0  0.08735999999999991  0.87126  0.8622  1.0000
  C   C48       1.0  0.23549999999999996  0.45671  0.11493999999999999  1.0000
  C   C49       1.0  0.47566  0.31462  0.14555  1.0000
  C   C50       1.0  0.32937  0.18881  0.32468  1.0000
  C   C51       1.0  0.99656  0.26305  0.51353  1.0000
  C   C52       1.0  0.7340299999999998  0.55464  0.25396  1.0000
  C   C53       1.0  0.2409  0.3614  0.73939  1.0000
  C   C54       1.0  0.76452  0.5417  0.61547  1.0000
  C   C55       1.0  0.7957100000000001  0.9916299999999999  0.37637  1.0000
  C   C56       1.0  0.83963  0.52452  0.47742999999999997  1.0000
  C   C57       1.0  0.28591  0.34414  0.69506  1.0000
  C   C58       1.0  0.8532  0.55342  0.70508  1.0000
  C   C59       1.0  0.24589  0.34326  0.49677  1.0000
  C   C60       1.0  0.34481  0.18539  0.74875  1.0000
  C   C61       1.0  0.11599  0.33891  0.93877  1.0000
  C   C62       1.0  0.86142  0.1048  0.9903999999999998  1.0000
  C   C63       1.0  0.32534  0.55278  0.55406  1.0000
  C   C64       1.0  0.93688  0.74135  0.44091  1.0000
  C   C65       1.0  0.42473000000000005  0.13135  0.66855  1.0000
  C   C66       1.0  0.27392  0.46653  0.54749  1.0000
  C   C67       1.0  0.20164  0.37557  0.11376  1.0000
  C   C68       1.0  0.22753  0.67472  0.88743  1.0000
  C   C69       1.0  0.29623  0.01538  0.35621  1.0000
  C   C70       1.0  0.87036  0.7838599999999999  0.02844  1.0000
  C   C71       1.0  0.8402500000000002  0.65499  0.0818  1.0000
  C   C72       1.0  0.68503  0.16029  0.81232  1.0000
  C   C73       1.0  0.85668  0.79823  0.65176  1.0000
  C   C74       1.0  0.16038999999999998  0.47546  0.97754  1.0000
  C   C75       1.0  0.12262  0.9514  0.8634500000000002  1.0000
  C   C76       1.0  0.89535  0.75677  0.65677  1.0000
  C   C77       1.0  0.70682  0.57564  0.00102  1.0000
  C   C78       1.0  0.42084000000000005  0.66373  0.8270599999999999  1.0000
  C   C79       1.0  0.72595  0.53305  0.0463  1.0000
  C   C80       1.0  0.91358  0.12989  0.3616  1.0000
  C   C81       1.0  0.10327999999999998  0.39045  0.9782099999999999  1.0000
  C   C82       1.0  0.82736  0.699  0.26724  1.0000
  C   C83       1.0  0.1739  0.79832  0.44722999999999996  1.0000
  C   C84       1.0  0.60971  0.71271  0.64495  1.0000
  C   C85       1.0  0.008500000000000014  0.80416  0.04307  1.0000
  C   C86       1.0  0.58023  0.33866  0.32783  1.0000
  C   C87       1.0  0.7779400000000001  0.9279  0.41939  1.0000
  C   C88       1.0  0.69823  0.87577  0.20346999999999998  1.0000
  C   C89       1.0  0.73633  0.73278  0.18015  1.0000
  C   C90       1.0  0.24279  0.57916  0.16041  1.0000
  C   C91       1.0  0.65522  0.81431  0.24938999999999997  1.0000
  C   C92       1.0  0.62451  0.82605  0.7803  1.0000
  C   C93       1.0  0.28386  0.79082  0.49373  1.0000
  C   C94       1.0  0.82512  0.20239  0.94769  1.0000
  C   C95       1.0  0.39064  0.28673  0.1456  1.0000
  C   C96       1.0  0.36193  0.12098  0.9056499999999998  1.0000
  C   C97       1.0  0.8212299999999999  0.26504  0.58867  1.0000
  C   C98       1.0  0.67424  0.44679  0.05269  1.0000
  C   C99       1.0  0.33924  0.22273999999999997  0.10583  1.0000
  C   C100      1.0  0.79796  0.62285  0.61393  1.0000
  C   C101      1.0  0.26353  0.26677  0.68005  1.0000
  C   C102      1.0  0.82865  0.87732  0.19683  1.0000
  C   C103      1.0  0.99541  0.09434999999999999  0.1617  1.0000
  C   C104      1.0  0.49415  0.28558  0.32758  1.0000
  C   C105      1.0  0.7003599999999999  0.87271  0.43422  1.0000
  C   C106      1.0  0.17788  0.3017  0.53663  1.0000
  C   C107      1.0  0.9021  0.92815  0.00502  1.0000
  C   C108      1.0  0.33564  0.75629  0.49372000000000005  1.0000
  C   C109      1.0  0.9278300000000002  0.14967  0.58671  1.0000
  C   C110      1.0  0.7041800000000001  0.9844900000000001  0.8565800000000001  1.0000
  C   C111      1.0  0.8764300000000002  0.17837  0.36956  1.0000
  C   C112      1.0  0.09979  0.0048  0.49501000000000006  1.0000
  C   C113      1.0  0.07214999999999988  0.9741199999999999  0.67152  1.0000
  C   C114      1.0  0.8111600000000002  0.14044  0.9916000000000001  1.0000
  C   C115      1.0  0.12936  0.21612  0.52864  1.0000
  C   C116      1.0  0.09569  0.10039  0.32853  1.0000
  C   C117      1.0  0.23262  0.00415  0.31575  1.0000
  C   C118      1.0  0.7589499999999999  0.63781  0.23881  1.0000
  C   C119      1.0  0.8836200000000001  0.66117  0.43891  1.0000
  C   C120      1.0  0.85965  0.67083  0.65795  1.0000
  C   C121      1.0  0.18561999999999992  0.8409  0.91601  1.0000
  C   C122      1.0  0.03726  0.36081  0.0204  1.0000
  C   C123      1.0  0.74147  0.8040799999999999  0.6074  1.0000
  C   C124      1.0  0.26718000000000003  0.0036600000000000005  0.8468199999999999  1.0000
  C   C125      1.0  0.66127  0.24144999999999997  0.9949100000000001  1.0000
  C   C126      1.0  0.003080000000000021  0.73663  0.013510000000000001  1.0000
  C   C127      1.0  0.89648  0.6095699999999998  0.47816  1.0000
  C   C128      1.0  0.09765000000000001  0.75465  0.8302800000000001  1.0000
  C   C129      1.0  0.8783800000000002  0.04973  0.3629  1.0000
  C   C130      1.0  0.65689  0.90242  0.16366  1.0000
  C   C131      1.0  0.86901  0.2937  0.33528  1.0000
  C   C132      1.0  0.20878  0.49285  0.16047  1.0000
  C   C133      1.0  0.17880999999999994  0.7344  0.0884  1.0000
  C   C134      1.0  0.71435  0.20842  0.9945500000000002  1.0000
  C   C135      1.0  0.19597  0.20454  0.70968  1.0000
  C   C136      1.0  0.63527  0.74828  0.86972  1.0000
  C   C137      1.0  0.13134000000000004  0.70731  0.8352900000000001  1.0000
  C   C138      1.0  0.4471300000000001  0.7724899999999999  0.22071999999999997  1.0000
  C   C139      1.0  0.66128  0.77708  0.60551  1.0000
  C   C140      1.0  0.21931  0.79357  0.9210300000000001  1.0000
  C   C141      1.0  0.04923000000000001  0.17112  0.52985  1.0000
  C   C142      1.0  0.9913  0.1957  0.54342  1.0000
  C   C143      1.0  0.55389  0.70126  0.87141  1.0000
  C   C144      1.0  0.9626099999999999  0.63913  0.52013  1.0000
  C   C145      1.0  0.71404  0.65535  0.19471  1.0000
  C   C146      1.0  0.20527  0.00934  0.8766300000000001  1.0000
  C   C147      1.0  0.21639000000000003  0.08674  0.695  1.0000
  C   C148      1.0  0.14999  0.22222  0.75272  1.0000
  C   C149      1.0  0.74757  0.11301  0.03676  1.0000
  C   C150      1.0  0.06263  0.25876  0.94072  1.0000
  C   C151      1.0  0.80386  0.79461  0.21000000000000002  1.0000
  C   C152      1.0  0.55332  0.22813  0.71996  1.0000
  C   C153      1.0  0.63874  0.8795  0.40602  1.0000
  C   C154      1.0  0.34455  0.05866999999999999  0.86151  1.0000
  C   C155      1.0  0.22269999999999998  0.88398  0.27217  1.0000
  C   C156      1.0  0.95054  0.82887  0.02966  1.0000
  C   C157      1.0  0.12039999999999995  0.7591099999999998  0.07271  1.0000
  C   C158      1.0  0.28698  0.89659  0.31155  1.0000
  C   C159      1.0  0.92818  0.02479  0.17171  1.0000
  C   C160      1.0  0.80733  0.2741  0.38076  1.0000
  C   C161      1.0  0.05805000000000002  0.7142  0.02846  1.0000
  C   C162      1.0  0.99588  0.22852  0.9825099999999999  1.0000
  C   C163      1.0  0.81485  0.1595  0.41545  1.0000
  C   C164      1.0  0.20644  0.42554  0.58764  1.0000
  C   C165      1.0  0.44681999999999994  0.29967999999999995  0.3717  1.0000
  C   C166      1.0  0.0976  0.0721  0.50479  1.0000
  C   C167      1.0  0.02613  0.09814  0.33824  1.0000
  C   C168      1.0  0.73356  0.9969799999999999  0.34676  1.0000
  C   C169      1.0  0.36553  0.25234  0.36977  1.0000
  C   C170      1.0  0.29305  0.4243  0.50183  1.0000
  C   C171      1.0  0.77757  0.23596999999999999  0.94926  1.0000
  C   C172      1.0  0.9751700000000001  0.90329  0.83839  1.0000
  C   C173      1.0  0.28068  0.29583  0.18966  1.0000
  C   C174      1.0  0.7680599999999999  0.9963399999999999  0.8161100000000001  1.0000
  C   C175      1.0  0.7002  0.14693  0.03867  1.0000
  C   C176      1.0  0.52471  0.68499  0.64433  1.0000
  C   C177      1.0  0.18810000000000007  0.85977  0.49166000000000004  1.0000
  C   C178      1.0  0.29888  0.85243  0.53789  1.0000
  C   C179      1.0  0.78386  0.91268  0.19561  1.0000
  C   C180      1.0  0.75783  0.8622  0.8237699999999999  1.0000
  C   C181      1.0  0.12728000000000003  0.82754  0.10085  1.0000
  C   C182      1.0  0.67195  0.81193  0.8246499999999999  1.0000
  C   C183      1.0  0.84979  0.77664  0.25283  1.0000
  C   C184      1.0  0.78097  0.2066  0.42078  1.0000
  C   C185      1.0  0.9413900000000001  0.28511  0.52852  1.0000
  C   C186      1.0  0.14344  0.20101  0.15196  1.0000
  C   C187      1.0  0.10446000000000003  0.24215000000000003  0.1572  1.0000
  C   C188      1.0  0.3149999999999999  0.83959  0.31091  1.0000
  C   C189      1.0  0.53336  0.80697  0.21418  1.0000
  C   C190      1.0  0.50712  0.71593  0.82713  1.0000
  C   C191      1.0  0.77171  0.76757  0.64913  1.0000
  C   C192      1.0  0.9055900000000001  0.9008599999999999  0.82843  1.0000
  C   C193      1.0  0.26558  0.44444  0.75509  1.0000
  C   C194      1.0  0.0036199999999999835  0.77163  0.48262  1.0000
  C   C195      1.0  0.30073  0.12822  0.9341  1.0000
  C   C196      1.0  0.98448  0.28081  0.02293  1.0000
  C   C197      1.0  0.37739  0.17487  0.28082  1.0000
  C   C198      1.0  0.34365  0.09722  0.66347  1.0000
  C   C199      1.0  0.22850999999999996  0.23209  0.14926  1.0000
  C   C200      1.0  0.45853999999999995  0.22242  0.28239  1.0000
  C   C201      1.0  0.25188  0.88678  0.53645  1.0000
  C   C202      1.0  0.88701  0.6347  0.70318  1.0000
  C   C203      1.0  0.15927  0.3445  0.58256  1.0000
  C   C204      1.0  0.7932200000000001  0.57389  0.0866  1.0000
  S   S1        1.0  0.81881  0.83431  0.01212  1.0000
  S   S2        1.0  0.9147800000000001  0.90088  0.64806  1.0000
  S   S3        1.0  0.06416999999999995  0.9927399999999998  0.8438299999999999  1.0000
  S   S4        1.0  0.09929  0.01399  0.31476  1.0000
  S   S5        1.0  0.08555  0.09836  0.14766  1.0000
  S   S6        1.0  0.18588999999999997  0.99886  0.49229  1.0000
  S   S7        1.0  0.9988499999999998  0.81247  0.65871  1.0000
  S   S8        1.0  0.07156  0.06307  0.67678  1.0000
  S   S9        1.0  0.01563  0.18143  0.3453  1.0000
  S   S10       1.0  0.8136199999999999  0.81456  0.82531  1.0000
  S   S11       1.0  0.9017299999999999  0.98709  0.81457  1.0000
  S   S12       1.0  0.18787  0.18645  0.32559  1.0000
  S   S13       1.0  0.013449999999999986  0.91481  0.48108  1.0000
  S   S14       1.0  0.98617  0.08552  0.98134  1.0000
  S   S15       1.0  0.99164  0.92878  0.01036  1.0000
  S   S16       1.0  0.008079999999999997  0.07146  0.51009  1.0000
  S   S17       1.0  0.81369  0.00134  0.9924300000000001  1.0000
  S   S18       1.0  0.9854400000000001  0.8199  0.8456900000000002  1.0000
  S   S19       1.0  0.93713  0.00862  0.34358  1.0000
  S   S20       1.0  0.18094  0.16581  0.51207  1.0000
  S   S21       1.0  0.0010399999999999977  0.18629  0.15871  1.0000
  S   S22       1.0  0.9284999999999999  0.93573  0.17716  1.0000
  S   S23       1.0  0.8345500000000001  0.01465  0.17907  1.0000
  S   S24       1.0  0.16599000000000005  0.9847300000000001  0.67866  1.0000
  O   O1        1.0  0.20882  0.61943  0.8449399999999999  1.0000
  O   O2        1.0  0.37741  0.8564  0.34346  1.0000
  O   O3        1.0  0.6739300000000001  0.50255  0.22271  1.0000
  O   O4        1.0  0.38073  0.58934  0.51153  1.0000
  O   O5        1.0  0.23284  0.77416  0.13148  1.0000
  O   O6        1.0  0.41104  0.72449  0.26965  1.0000
  O   O7        1.0  0.49957000000000007  0.7254  0.61299  1.0000
  O   O8        1.0  0.774  0.38745  0.71006  1.0000
  O   O9        1.0  0.68634  0.41059  0.10147000000000002  1.0000
  O   O10       1.0  0.71484  0.3779  0.61189  1.0000
  O   O11       1.0  0.17102  0.67396  0.05782  1.0000
  O   O12       1.0  0.61271  0.38659  0.37627  1.0000
  O   O13       1.0  0.50291  0.82892  0.39117  1.0000
  O   O14       1.0  0.38723  0.61624  0.87554  1.0000
  O   O15       1.0  0.47877  0.62263  0.67687  1.0000
  O   O16       1.0  0.32602  0.49721999999999994  0.72443  1.0000
  O   O17       1.0  0.2867  0.62023  0.11035999999999999  1.0000
  O   O18       1.0  0.50155  0.27459  0.11462  1.0000
  O   O19       1.0  0.22581000000000004  0.45862  0.79832  1.0000
  O   O20       1.0  0.62267  0.14322  0.84522  1.0000
  O   O21       1.0  0.58934  0.27566  0.76916  1.0000
  O   O22       1.0  0.7683  0.22678  0.63312  1.0000
  O   O23       1.0  0.79032  0.38022  0.34498  1.0000
  O   O24       1.0  0.66355  0.28588  0.94543  1.0000
  O   O25       1.0  0.27486  0.77391  0.27974  1.0000
  O   O26       1.0  0.7245  0.3129  0.43705000000000005  1.0000
  O   O27       1.0  0.33301  0.71286  0.44347000000000003  1.0000
  O   O28       1.0  0.54123  0.76693  0.4647800000000001  1.0000
  O   O29       1.0  0.61335  0.22606  0.04336  1.0000
  O   O30       1.0  0.62236  0.3363  0.27843  1.0000
  O   O31       1.0  0.22613  0.50086  0.9463800000000001  1.0000
  O   O32       1.0  0.3828  0.7698  0.54231  1.0000
  O   O33       1.0  0.85761  0.47881  0.50853  1.0000
  O   O34       1.0  0.49714  0.17093  0.88965  1.0000
  O   O35       1.0  0.72479  0.22627  0.78132  1.0000
  O   O36       1.0  0.3799  0.66658  0.77699  1.0000
  O   O37       1.0  0.58985  0.21019  0.67676  1.0000
  O   O38       1.0  0.14363999999999996  0.5212  0.00994  1.0000
  O   O39       1.0  0.31309  0.5887  0.60289  1.0000
  O   O40       1.0  0.77313  0.49899  0.44765  1.0000
  O   O41       1.0  0.2756099999999999  0.6869799999999999  0.93631  1.0000
  O   O42       1.0  0.52116  0.37694  0.17832  1.0000
  O   O43       1.0  0.45968000000000003  0.23275  0.96443  1.0000
  O   O44       1.0  0.41074  0.79138  0.17812  1.0000
  O   O45       1.0  0.61891  0.41039  0.01023  1.0000
  O   O46       1.0  0.77343  0.53987  0.29707  1.0000
  O   O47       1.0  0.22884  0.61271  0.20883  1.0000
  O   O48       1.0  0.82837  0.32421  0.55636  1.0000
