data_image0
_chemical_formula_structural       Li10H116C84N18
_chemical_formula_sum              "Li10 H116 C84 N18"
_cell_length_a       10.95052
_cell_length_b       16.60117
_cell_length_c       17.01506
_cell_angle_alpha    64.01392
_cell_angle_beta     80.38942000000002
_cell_angle_gamma    85.12846

_space_group_name_H-M_alt    "P 1"
_space_group_IT_number       1

loop_
  _space_group_symop_operation_xyz
  'x, y, z'

loop_
  _atom_site_type_symbol
  _atom_site_label
  _atom_site_symmetry_multiplicity
  _atom_site_fract_x
  _atom_site_fract_y
  _atom_site_fract_z
  _atom_site_occupancy
  Li  Li1       1.0  0.6771000000000003  0.6163800000000001  0.8913799999999998  1.0000
  Li  Li2       1.0  0.8967200000000002  0.66007  0.86067  1.0000
  Li  Li3       1.0  0.9634900000000001  0.64414  0.71626  1.0000
  Li  Li4       1.0  0.9568600000000002  0.8075900000000001  0.60247  1.0000
  Li  Li5       1.0  0.045779999999999994  0.59909  0.59162  1.0000
  Li  Li6       1.0  0.3229  0.38362  0.10862  1.0000
  Li  Li7       1.0  0.10328  0.33994  0.13933  1.0000
  Li  Li8       1.0  0.036499999999999984  0.35587  0.28374  1.0000
  Li  Li9       1.0  0.04313999999999999  0.19241999999999998  0.39753  1.0000
  Li  Li10      1.0  0.9542200000000001  0.40091000000000004  0.40838  1.0000
  H   H1        1.0  0.4522300000000001  0.72595  0.87207  1.0000
  H   H2        1.0  0.4464100000000001  0.6728600000000001  0.80164  1.0000
  H   H3        1.0  0.32334000000000007  0.65795  0.88958  1.0000
  H   H4        1.0  0.48938  0.63585  0.02228  1.0000
  H   H5        1.0  0.36304  0.5644  0.04301  1.0000
  H   H6        1.0  0.3639600000000001  0.49128999999999995  0.93891  1.0000
  H   H7        1.0  0.49043000000000003  0.51533  0.85187  1.0000
  H   H8        1.0  0.11960000000000001  0.7140999999999998  0.90143  1.0000
  H   H9        1.0  0.98574  0.71945  0.97445  1.0000
  H   H10       1.0  0.1175  0.65486  0.01872  1.0000
  H   H11       1.0  0.16259000000000007  0.57794  0.8789999999999999  1.0000
  H   H12       1.0  0.17699  0.52415  0.99388  1.0000
  H   H13       1.0  0.9911300000000001  0.52873  0.10246999999999999  1.0000
  H   H14       1.0  0.85807  0.58657  0.06041  1.0000
  H   H15       1.0  0.7246799999999999  0.88646  0.601  1.0000
  H   H16       1.0  0.71705  0.98214  0.49761  1.0000
  H   H17       1.0  0.76318  0.87555  0.4995  1.0000
  H   H18       1.0  0.85465  0.05812000000000004  0.5405099999999999  1.0000
  H   H19       1.0  0.8681699999999998  0.9624  0.64155  1.0000
  H   H20       1.0  0.9532  0.9375599999999997  0.40329  1.0000
  H   H21       1.0  0.9046900000000002  0.04323000000000001  0.40042999999999995  1.0000
  H   H22       1.0  0.27726999999999996  0.52249  0.56001  1.0000
  H   H23       1.0  0.29236  0.51604  0.45631  1.0000
  H   H24       1.0  0.2615  0.62165  0.46095  1.0000
  H   H25       1.0  0.07531  0.64851  0.3948  1.0000
  H   H26       1.0  0.10431999999999998  0.54691  0.38258  1.0000
  H   H27       1.0  0.12811000000000003  0.40573  0.51544  1.0000
  H   H28       1.0  0.11783000000000003  0.40953  0.61946  1.0000
  H   H29       1.0  0.7613600000000001  0.6926500000000001  0.97909  1.0000
  H   H30       1.0  0.76008  0.83259  0.97448  1.0000
  H   H31       1.0  0.7018  0.9922499999999999  0.89968  1.0000
  H   H32       1.0  0.6155599999999999  0.05189000000000004  0.75718  1.0000
  H   H33       1.0  0.5897  0.9466599999999998  0.69194  1.0000
  H   H34       1.0  0.6460899999999999  0.7870800000000001  0.76726  1.0000
  H   H35       1.0  0.85369  0.50919  0.85576  1.0000
  H   H36       1.0  0.69459  0.70681  0.71196  1.0000
  H   H37       1.0  0.5482  0.6989099999999999  0.61985  1.0000
  H   H38       1.0  0.51081  0.55285  0.6183299999999999  1.0000
  H   H39       1.0  0.6204000000000001  0.41522  0.71353  1.0000
  H   H40       1.0  0.7628  0.42229  0.80837  1.0000
  H   H41       1.0  0.8800100000000001  0.7897700000000001  0.75044  1.0000
  H   H42       1.0  0.9477300000000001  0.8839399999999998  0.79921  1.0000
  H   H43       1.0  0.1241  0.9625400000000001  0.8057  1.0000
  H   H44       1.0  0.3411  0.93052  0.75122  1.0000
  H   H45       1.0  0.3755  0.81969  0.68694  1.0000
  H   H46       1.0  0.1987399999999999  0.74066  0.68009  1.0000
  H   H47       1.0  0.83649  0.69197  0.57853  1.0000
  H   H48       1.0  0.8094400000000003  0.76005  0.42957  1.0000
  H   H49       1.0  0.90369  0.84288  0.27432  1.0000
  H   H50       1.0  0.12761000000000003  0.8845099999999999  0.23669  1.0000
  H   H51       1.0  0.25435  0.83969  0.35818  1.0000
  H   H52       1.0  0.16100999999999996  0.7560000000000001  0.51419  1.0000
  H   H53       1.0  0.19338000000000002  0.61751  0.68555  1.0000
  H   H54       1.0  0.34400000000000003  0.5183  0.75264  1.0000
  H   H55       1.0  0.40417999999999993  0.36112000000000005  0.8382  1.0000
  H   H56       1.0  0.25586000000000003  0.23728000000000002  0.88063  1.0000
  H   H57       1.0  0.044309999999999974  0.27586  0.83596  1.0000
  H   H58       1.0  0.98325  0.43381  0.75107  1.0000
  H   H59       1.0  0.54777  0.27406  0.12793  1.0000
  H   H60       1.0  0.55359  0.32715  0.19836  1.0000
  H   H61       1.0  0.6766600000000003  0.34205  0.11042  1.0000
  H   H62       1.0  0.51062  0.36416  0.97772  1.0000
  H   H63       1.0  0.63696  0.43561000000000005  0.95699  1.0000
  H   H64       1.0  0.63604  0.50872  0.06108  1.0000
  H   H65       1.0  0.50957  0.4846699999999999  0.14813  1.0000
  H   H66       1.0  0.8804  0.2859  0.09857  1.0000
  H   H67       1.0  0.014260000000000002  0.28056  0.02555  1.0000
  H   H68       1.0  0.8825000000000004  0.34513999999999995  0.98128  1.0000
  H   H69       1.0  0.83741  0.42206  0.12098999999999999  1.0000
  H   H70       1.0  0.823  0.47586  0.00611  1.0000
  H   H71       1.0  0.008870000000000017  0.47128  0.89753  1.0000
  H   H72       1.0  0.14193000000000003  0.41344000000000003  0.93959  1.0000
  H   H73       1.0  0.27531  0.11353999999999999  0.399  1.0000
  H   H74       1.0  0.28295  0.01787000000000001  0.50239  1.0000
  H   H75       1.0  0.23681999999999995  0.12446  0.5005  1.0000
  H   H76       1.0  0.14534000000000016  0.94188  0.45949  1.0000
  H   H77       1.0  0.13183  0.037610000000000005  0.35844  1.0000
  H   H78       1.0  0.046799999999999994  0.062449999999999985  0.59671  1.0000
  H   H79       1.0  0.09531000000000002  0.95677  0.59957  1.0000
  H   H80       1.0  0.7227299999999999  0.47751999999999994  0.43999  1.0000
  H   H81       1.0  0.70764  0.48397  0.54368  1.0000
  H   H82       1.0  0.7385  0.3783500000000001  0.53904  1.0000
  H   H83       1.0  0.92469  0.3514900000000001  0.60519  1.0000
  H   H84       1.0  0.8956800000000001  0.45309  0.61742  1.0000
  H   H85       1.0  0.8718899999999998  0.59428  0.48455  1.0000
  H   H86       1.0  0.8821700000000001  0.59048  0.38053  1.0000
  H   H87       1.0  0.23864  0.30736  0.02091  1.0000
  H   H88       1.0  0.23991  0.16742  0.02552  1.0000
  H   H89       1.0  0.2982  0.007760000000000005  0.10032  1.0000
  H   H90       1.0  0.38444  0.9481199999999999  0.24281  1.0000
  H   H91       1.0  0.4103  0.053349999999999995  0.30806  1.0000
  H   H92       1.0  0.3539100000000001  0.21291999999999997  0.23274  1.0000
  H   H93       1.0  0.14631  0.49082000000000003  0.14424  1.0000
  H   H94       1.0  0.3053999999999999  0.2932  0.28804  1.0000
  H   H95       1.0  0.45178999999999997  0.3010999999999999  0.38015000000000004  1.0000
  H   H96       1.0  0.4891900000000001  0.44715999999999995  0.38167  1.0000
  H   H97       1.0  0.37960000000000005  0.58479  0.28647  1.0000
  H   H98       1.0  0.23720000000000002  0.57772  0.19163  1.0000
  H   H99       1.0  0.11999000000000008  0.21022999999999997  0.24956  1.0000
  H   H100      1.0  0.05226999999999996  0.11607  0.20079  1.0000
  H   H101      1.0  0.8759  0.037469999999999996  0.1943  1.0000
  H   H102      1.0  0.6589  0.06949  0.24878  1.0000
  H   H103      1.0  0.62449  0.18032  0.31305999999999995  1.0000
  H   H104      1.0  0.80126  0.25934  0.31991  1.0000
  H   H105      1.0  0.16351  0.30804000000000004  0.42147  1.0000
  H   H106      1.0  0.19056  0.23996000000000003  0.57042  1.0000
  H   H107      1.0  0.09631000000000002  0.15713  0.72567  1.0000
  H   H108      1.0  0.8723900000000001  0.11548999999999998  0.76331  1.0000
  H   H109      1.0  0.7456500000000001  0.1603100000000001  0.6418099999999999  1.0000
  H   H110      1.0  0.83899  0.24401  0.48581  1.0000
  H   H111      1.0  0.80662  0.3825  0.31445  1.0000
  H   H112      1.0  0.6560000000000002  0.48171  0.24736  1.0000
  H   H113      1.0  0.59582  0.63889  0.1618  1.0000
  H   H114      1.0  0.7441300000000001  0.76272  0.11937  1.0000
  H   H115      1.0  0.9556900000000002  0.72415  0.16403  1.0000
  H   H116      1.0  0.01675000000000001  0.5662  0.24892  1.0000
  C   C1        1.0  0.42422999999999994  0.66516  0.86977  1.0000
  C   C2        1.0  0.46365  0.57458  0.01967  1.0000
  C   C3        1.0  0.4643800000000003  0.5050799999999999  0.92076  1.0000
  C   C4        1.0  0.06154  0.67573  0.9643999999999999  1.0000
  C   C5        1.0  0.11181000000000003  0.54053  0.94553  1.0000
  C   C6        1.0  0.936  0.54525  0.04868  1.0000
  C   C7        1.0  0.7684200000000001  0.91939  0.5318599999999999  1.0000
  C   C8        1.0  0.9085700000000002  0.99576  0.57162  1.0000
  C   C9        1.0  0.9574500000000001  0.98163  0.43538999999999994  1.0000
  C   C10       1.0  0.24298999999999998  0.5495400000000001  0.49606  1.0000
  C   C11       1.0  0.057370000000000004  0.57625  0.4271  1.0000
  C   C12       1.0  0.08132000000000002  0.43913  0.55625  1.0000
  C   C13       1.0  0.7093700000000005  0.79565  0.87739  1.0000
  C   C14       1.0  0.72275  0.85764  0.91243  1.0000
  C   C15       1.0  0.69005  0.94778  0.86983  1.0000
  C   C16       1.0  0.6419999999999999  0.9816700000000002  0.78975  1.0000
  C   C17       1.0  0.6278700000000002  0.9224499999999999  0.75362  1.0000
  C   C18       1.0  0.66116  0.8320699999999999  0.7958  1.0000
  C   C19       1.0  0.74045  0.56525  0.76851  1.0000
  C   C20       1.0  0.6769299999999999  0.6425700000000001  0.71328  1.0000
  C   C21       1.0  0.5955100000000002  0.6379799999999999  0.6605  1.0000
  C   C22       1.0  0.5742500000000001  0.55655  0.65934  1.0000
  C   C23       1.0  0.6361600000000002  0.4794  0.71295  1.0000
  C   C24       1.0  0.71708  0.4832599999999999  0.76619  1.0000
  C   C25       1.0  0.058700000000000016  0.8057  0.73909  1.0000
  C   C26       1.0  0.04157  0.8696900000000001  0.77451  1.0000
  C   C27       1.0  0.14163999999999996  0.9137700000000001  0.77828  1.0000
  C   C28       1.0  0.26321000000000006  0.89665  0.74719  1.0000
  C   C29       1.0  0.28195000000000003  0.8340300000000002  0.71174  1.0000
  C   C30       1.0  0.18234000000000006  0.7892099999999999  0.70793  1.0000
  C   C31       1.0  0.97707  0.75067  0.48523  1.0000
  C   C32       1.0  0.9071300000000001  0.7771299999999999  0.41423  1.0000
  C   C33       1.0  0.9607500000000001  0.82371  0.32657  1.0000
  C   C34       1.0  0.08628999999999999  0.84666  0.30493  1.0000
  C   C35       1.0  0.15712999999999996  0.82145  0.37342  1.0000
  C   C36       1.0  0.1044  0.7744900000000001  0.46152  1.0000
  C   C37       1.0  0.15832000000000002  0.4894899999999998  0.74465  1.0000
  C   C38       1.0  0.27772  0.46534000000000003  0.77121  1.0000
  C   C39       1.0  0.31161000000000005  0.37627  0.81941  1.0000
  C   C40       1.0  0.22857  0.30665999999999993  0.84379  1.0000
  C   C41       1.0  0.11040000000000003  0.32870999999999995  0.81808  1.0000
  C   C42       1.0  0.07591000000000006  0.41762  0.76987  1.0000
  C   C43       1.0  0.57577  0.3348499999999999  0.13022  1.0000
  C   C44       1.0  0.53635  0.42543  0.98032  1.0000
  C   C45       1.0  0.5356200000000001  0.4949299999999999  0.07924  1.0000
  C   C46       1.0  0.9384600000000001  0.32428  0.0356  1.0000
  C   C47       1.0  0.88819  0.45947  0.05447  1.0000
  C   C48       1.0  0.06399999999999997  0.45476  0.95132  1.0000
  C   C49       1.0  0.23157  0.08061000000000001  0.46814  1.0000
  C   C50       1.0  0.09143  0.004249999999999997  0.42837  1.0000
  C   C51       1.0  0.04254000000000003  0.018369999999999977  0.56461  1.0000
  C   C52       1.0  0.75701  0.45047000000000004  0.50393  1.0000
  C   C53       1.0  0.94262  0.42376  0.5729  1.0000
  C   C54       1.0  0.91868  0.56088  0.44375  1.0000
  C   C55       1.0  0.29063  0.20436  0.12261  1.0000
  C   C56       1.0  0.27725  0.14237  0.08757  1.0000
  C   C57       1.0  0.30995  0.05222  0.13017  1.0000
  C   C58       1.0  0.3580000000000001  0.01832999999999999  0.21025  1.0000
  C   C59       1.0  0.37213  0.07756  0.24638  1.0000
  C   C60       1.0  0.33884  0.16794000000000003  0.2042  1.0000
  C   C61       1.0  0.25955  0.43476000000000004  0.23149  1.0000
  C   C62       1.0  0.3230700000000001  0.3574399999999999  0.28671  1.0000
  C   C63       1.0  0.40449000000000007  0.36202999999999996  0.3395  1.0000
  C   C64       1.0  0.42575  0.44345  0.34066  1.0000
  C   C65       1.0  0.36383999999999994  0.52061  0.28705  1.0000
  C   C66       1.0  0.28292  0.51675  0.23381  1.0000
  C   C67       1.0  0.9413  0.19431  0.26091  1.0000
  C   C68       1.0  0.9584300000000001  0.13031  0.22549  1.0000
  C   C69       1.0  0.8583600000000001  0.08623999999999998  0.22172  1.0000
  C   C70       1.0  0.73679  0.10336  0.25281  1.0000
  C   C71       1.0  0.71805  0.16597000000000003  0.28825  1.0000
  C   C72       1.0  0.8176600000000002  0.21079999999999996  0.29207  1.0000
  C   C73       1.0  0.02293000000000002  0.24934  0.51477  1.0000
  C   C74       1.0  0.09287000000000002  0.22288000000000008  0.5857699999999999  1.0000
  C   C75       1.0  0.03924999999999999  0.1763  0.67343  1.0000
  C   C76       1.0  0.91371  0.15335  0.69507  1.0000
  C   C77       1.0  0.84287  0.17855999999999997  0.62658  1.0000
  C   C78       1.0  0.8956  0.22551999999999991  0.5384800000000001  1.0000
  C   C79       1.0  0.84168  0.51052  0.25535  1.0000
  C   C80       1.0  0.72228  0.53467  0.22879  1.0000
  C   C81       1.0  0.68839  0.62373  0.18058  1.0000
  C   C82       1.0  0.77143  0.69335  0.15621  1.0000
  C   C83       1.0  0.8896  0.6713  0.18192  1.0000
  C   C84       1.0  0.9240899999999997  0.58239  0.23013  1.0000
  N   N1        1.0  0.4930800000000001  0.58713  0.92713  1.0000
  N   N2        1.0  0.009850000000000008  0.59772  0.96206  1.0000
  N   N3        1.0  0.8995500000000001  0.93615  0.52888  1.0000
  N   N4        1.0  0.10812000000000001  0.53607  0.51166  1.0000
  N   N5        1.0  0.74212  0.70618  0.91752  1.0000
  N   N6        1.0  0.8179100000000001  0.5719800000000002  0.82202  1.0000
  N   N7        1.0  0.96079  0.7608599999999999  0.73325  1.0000
  N   N8        1.0  0.9283100000000001  0.70438  0.57379  1.0000
  N   N9        1.0  0.12075999999999998  0.57663  0.6973  1.0000
  N   N10       1.0  0.50691  0.41287  0.07287  1.0000
  N   N11       1.0  0.99015  0.40229  0.03794  1.0000
  N   N12       1.0  0.10045000000000003  0.06386  0.47112  1.0000
  N   N13       1.0  0.8918799999999999  0.46394  0.48834  1.0000
  N   N14       1.0  0.25788  0.2938200000000001  0.08248  1.0000
  N   N15       1.0  0.1820900000000001  0.42802000000000007  0.17798  1.0000
  N   N16       1.0  0.039200000000000026  0.23915  0.26674  1.0000
  N   N17       1.0  0.07168  0.29562  0.4262099999999999  1.0000
  N   N18       1.0  0.87923  0.42338  0.30269  1.0000
