data_image0
_chemical_formula_structural       Cd8H112C148S16N24O36
_chemical_formula_sum              "Cd8 H112 C148 S16 N24 O36"
_cell_length_a       12.89523
_cell_length_b       16.14621
_cell_length_c       22.26258
_cell_angle_alpha    106.21999
_cell_angle_beta     90.0
_cell_angle_gamma    90.0

_symmetry_space_group_name_H-M    'P 1'
_symmetry_Int_Tables_number       1

loop_
  _symmetry_equiv_pos_as_xyz
  'x,y,z'

loop_
  _atom_site_type_symbol
  _atom_site_label
  _atom_site_symmetry_multiplicity
  _atom_site_fract_x
  _atom_site_fract_y
  _atom_site_fract_z
  _atom_site_occupancy
  Cd  Cd1       1.0  0.64949  0.197  0.13883  1.0000
  Cd  Cd2       1.0  0.56396  0.40221999999999997  0.2039  1.0000
  Cd  Cd3       1.0  0.14949  0.803  0.36117  1.0000
  Cd  Cd4       1.0  0.06396  0.59778  0.2961  1.0000
  Cd  Cd5       1.0  0.35051000000000004  0.803  0.86117  1.0000
  Cd  Cd6       1.0  0.43604  0.5977800000000001  0.7961000000000001  1.0000
  Cd  Cd7       1.0  0.85051  0.19699  0.63883  1.0000
  Cd  Cd8       1.0  0.93604  0.40221  0.7039  1.0000
  H   H1        1.0  0.7074  0.33097999999999994  0.097  1.0000
  H   H2        1.0  0.7759  0.3396700000000001  0.16616  1.0000
  H   H3        1.0  0.33768  0.11082  0.08967  1.0000
  H   H4        1.0  0.15152  0.0649  0.06682  1.0000
  H   H5        1.0  0.23702  0.37314  0.11835  1.0000
  H   H6        1.0  0.99301  0.28095  0.9909799999999999  1.0000
  H   H7        1.0  0.9788800000000002  0.36371000000000003  0.9100800000000001  1.0000
  H   H8        1.0  0.95816  0.12009  0.76909  1.0000
  H   H9        1.0  0.05318  0.33906999999999987  0.24576000000000003  1.0000
  H   H10       1.0  0.1022  0.026340000000000002  0.20591999999999996  1.0000
  H   H11       1.0  0.92894  0.08185  0.18806  1.0000
  H   H12       1.0  0.28101  0.82241  0.21074000000000004  1.0000
  H   H13       1.0  0.27591  0.72674  0.09922000000000002  1.0000
  H   H14       1.0  0.29593  0.95515  0.03748  1.0000
  H   H15       1.0  0.7854800000000001  0.04048  0.08182  1.0000
  H   H16       1.0  0.7934400000000001  0.8804399999999999  0.05773999999999999  1.0000
  H   H17       1.0  0.49043000000000003  0.88854  0.14178  1.0000
  H   H18       1.0  0.49218  0.04754  0.15999  1.0000
  H   H19       1.0  0.6413900000000001  0.75196  0.123  1.0000
  H   H20       1.0  0.71135  0.74823  0.05410000000000001  1.0000
  H   H21       1.0  0.53536  0.76951  0.00305  1.0000
  H   H22       1.0  0.47412  0.75521  0.06985  1.0000
  H   H23       1.0  0.4732100000000001  0.62211  0.98369  1.0000
  H   H24       1.0  0.61068  0.62182  0.97855  1.0000
  H   H25       1.0  0.71769  0.57392  0.05523  1.0000
  H   H26       1.0  0.72129  0.50171  0.14048  1.0000
  H   H27       1.0  0.40312  0.5285  0.16624  1.0000
  H   H28       1.0  0.38695  0.60113  0.08105  1.0000
  H   H29       1.0  0.2074  0.66902  0.4030000000000001  1.0000
  H   H30       1.0  0.2759  0.66033  0.33384  1.0000
  H   H31       1.0  0.8376800000000001  0.88918  0.41033  1.0000
  H   H32       1.0  0.65152  0.93509  0.43317  1.0000
  H   H33       1.0  0.7370200000000001  0.62686  0.38165  1.0000
  H   H34       1.0  0.4930100000000001  0.7190399999999998  0.50901  1.0000
  H   H35       1.0  0.47889  0.63628  0.58992  1.0000
  H   H36       1.0  0.45816000000000007  0.8798999999999998  0.73091  1.0000
  H   H37       1.0  0.55318  0.66093  0.25424  1.0000
  H   H38       1.0  0.6022  0.9736500000000001  0.29408  1.0000
  H   H39       1.0  0.42894  0.91814  0.31194  1.0000
  H   H40       1.0  0.78101  0.17759  0.28926  1.0000
  H   H41       1.0  0.77591  0.27326  0.40077  1.0000
  H   H42       1.0  0.79593  0.044850000000000015  0.46252000000000004  1.0000
  H   H43       1.0  0.28548  0.95951  0.41818  1.0000
  H   H44       1.0  0.29344  0.11955000000000006  0.44226000000000004  1.0000
  H   H45       1.0  0.9904300000000003  0.11145999999999999  0.35822  1.0000
  H   H46       1.0  0.99218  0.95246  0.34001  1.0000
  H   H47       1.0  0.14138  0.24804  0.377  1.0000
  H   H48       1.0  0.21135  0.25177  0.4459  1.0000
  H   H49       1.0  0.03536  0.23048999999999992  0.49694999999999995  1.0000
  H   H50       1.0  0.97412  0.24477999999999991  0.43015000000000003  1.0000
  H   H51       1.0  0.97321  0.37788  0.5163  1.0000
  H   H52       1.0  0.11068  0.37817  0.52144  1.0000
  H   H53       1.0  0.21769000000000002  0.42607  0.44477  1.0000
  H   H54       1.0  0.22129000000000001  0.49829000000000007  0.35951  1.0000
  H   H55       1.0  0.90312  0.47149  0.33375  1.0000
  H   H56       1.0  0.88695  0.39887  0.41895  1.0000
  H   H57       1.0  0.2926  0.66901  0.903  1.0000
  H   H58       1.0  0.22410000000000005  0.66032  0.83384  1.0000
  H   H59       1.0  0.66232  0.88918  0.91033  1.0000
  H   H60       1.0  0.84847  0.93509  0.93317  1.0000
  H   H61       1.0  0.76298  0.62685  0.88165  1.0000
  H   H62       1.0  0.0069900000000000006  0.7190399999999998  0.00901  1.0000
  H   H63       1.0  0.021110000000000004  0.63628  0.08992  1.0000
  H   H64       1.0  0.04183  0.8798999999999998  0.23091  1.0000
  H   H65       1.0  0.94682  0.66093  0.75424  1.0000
  H   H66       1.0  0.8978  0.9736500000000001  0.79408  1.0000
  H   H67       1.0  0.07106  0.91814  0.81194  1.0000
  H   H68       1.0  0.71899  0.17759  0.78926  1.0000
  H   H69       1.0  0.72409  0.27324999999999994  0.9007700000000001  1.0000
  H   H70       1.0  0.70407  0.044850000000000015  0.96252  1.0000
  H   H71       1.0  0.21452  0.95951  0.9181800000000001  1.0000
  H   H72       1.0  0.20656  0.11955000000000002  0.94226  1.0000
  H   H73       1.0  0.50957  0.11145000000000004  0.85821  1.0000
  H   H74       1.0  0.50781  0.95245  0.8400099999999999  1.0000
  H   H75       1.0  0.35861000000000004  0.24803  0.87699  1.0000
  H   H76       1.0  0.28865  0.25176000000000004  0.9459000000000001  1.0000
  H   H77       1.0  0.46464  0.23048000000000002  0.9969500000000001  1.0000
  H   H78       1.0  0.52588  0.24477999999999991  0.93015  1.0000
  H   H79       1.0  0.52679  0.37789  0.0163  1.0000
  H   H80       1.0  0.38932  0.37817  0.02144  1.0000
  H   H81       1.0  0.28231  0.42607000000000006  0.9447700000000001  1.0000
  H   H82       1.0  0.27871  0.49828  0.85951  1.0000
  H   H83       1.0  0.59688  0.47149  0.83375  1.0000
  H   H84       1.0  0.61305  0.3988599999999999  0.91895  1.0000
  H   H85       1.0  0.7926  0.33098  0.59699  1.0000
  H   H86       1.0  0.7241  0.33967  0.66616  1.0000
  H   H87       1.0  0.16232  0.11081  0.58967  1.0000
  H   H88       1.0  0.34848  0.06490000000000001  0.56682  1.0000
  H   H89       1.0  0.26298  0.37314  0.61834  1.0000
  H   H90       1.0  0.50699  0.28095  0.4909800000000001  1.0000
  H   H91       1.0  0.52111  0.36371  0.41008  1.0000
  H   H92       1.0  0.54183  0.12008999999999997  0.26909  1.0000
  H   H93       1.0  0.44682  0.33906  0.74576  1.0000
  H   H94       1.0  0.39780000000000004  0.026340000000000002  0.70591  1.0000
  H   H95       1.0  0.57106  0.08184999999999999  0.68806  1.0000
  H   H96       1.0  0.21899  0.82241  0.71074  1.0000
  H   H97       1.0  0.22409  0.72674  0.59922  1.0000
  H   H98       1.0  0.20407000000000006  0.95514  0.53747  1.0000
  H   H99       1.0  0.71452  0.040480000000000016  0.58182  1.0000
  H   H100      1.0  0.70656  0.8804399999999999  0.55774  1.0000
  H   H101      1.0  0.00957  0.88854  0.64178  1.0000
  H   H102      1.0  0.00781  0.04754  0.65999  1.0000
  H   H103      1.0  0.85861  0.75196  0.623  1.0000
  H   H104      1.0  0.7886500000000001  0.74823  0.55409  1.0000
  H   H105      1.0  0.96464  0.76951  0.50305  1.0000
  H   H106      1.0  0.02588  0.75521  0.56985  1.0000
  H   H107      1.0  0.02679  0.62211  0.4837000000000001  1.0000
  H   H108      1.0  0.8893200000000001  0.62182  0.47856  1.0000
  H   H109      1.0  0.78231  0.57392  0.55522  1.0000
  H   H110      1.0  0.77871  0.50171  0.64048  1.0000
  H   H111      1.0  0.09688  0.5285  0.66624  1.0000
  H   H112      1.0  0.11305000000000001  0.6011199999999998  0.58105  1.0000
  C   C1        1.0  0.40993  0.27607  0.1219  1.0000
  C   C2        1.0  0.30136  0.24547999999999998  0.10455999999999999  1.0000
  C   C3        1.0  0.27723  0.15753  0.08914  1.0000
  C   C4        1.0  0.17467  0.13209  0.07633  1.0000
  C   C5        1.0  0.10105  0.19572999999999996  0.07616  1.0000
  C   C6        1.0  0.22087  0.30416  0.10537000000000002  1.0000
  C   C7        1.0  0.97858  0.15789  0.92055  1.0000
  C   C8        1.0  0.98417  0.24824000000000002  0.94141  1.0000
  C   C9        1.0  0.9763900000000001  0.29349000000000003  0.8966900000000001  1.0000
  C   C10       1.0  0.96468  0.24774  0.83351  1.0000
  C   C11       1.0  0.96509  0.15722000000000003  0.8179500000000001  1.0000
  C   C12       1.0  0.95053  0.28896  0.78207  1.0000
  C   C13       1.0  0.8739  0.24878  0.20306000000000002  1.0000
  C   C14       1.0  0.9766  0.21531  0.21728  1.0000
  C   C15       1.0  0.061510000000000016  0.26985  0.23836000000000002  1.0000
  C   C16       1.0  0.16702  0.15594  0.23959  1.0000
  C   C17       1.0  0.08873000000000002  0.09531  0.21673  1.0000
  C   C18       1.0  0.99206  0.12634  0.20628  1.0000
  C   C19       1.0  0.29013  0.93877  0.18027  1.0000
  C   C20       1.0  0.28463  0.84889  0.17078  1.0000
  C   C21       1.0  0.28196  0.79657  0.10937  1.0000
  C   C22       1.0  0.28541  0.8345  0.05993  1.0000
  C   C23       1.0  0.29214  0.92455  0.07526  1.0000
  C   C24       1.0  0.28423  0.785  0.99209  1.0000
  C   C25       1.0  0.72171  0.00415  0.09412  1.0000
  C   C26       1.0  0.72556  0.9149  0.08107  1.0000
  C   C27       1.0  0.6419400000000001  0.87023  0.09734000000000001  1.0000
  C   C28       1.0  0.55749  0.91932  0.12754  1.0000
  C   C29       1.0  0.55827  0.008359999999999998  0.13838  1.0000
  C   C30       1.0  0.64035  0.7733699999999998  0.08017  1.0000
  C   C31       1.0  0.54368  0.73823  0.04067  1.0000
  C   C32       1.0  0.54496  0.6397799999999998  0.01097  1.0000
  C   C33       1.0  0.55123  0.59307  0.06035000000000001  1.0000
  C   C34       1.0  0.646  0.56515  0.07855  1.0000
  C   C35       1.0  0.64896  0.5256  0.12653  1.0000
  C   C36       1.0  0.47085000000000005  0.5402  0.14065  1.0000
  C   C37       1.0  0.46252  0.58035  0.09324  1.0000
  C   C38       1.0  0.90994  0.72392  0.3781  1.0000
  C   C39       1.0  0.80136  0.75452  0.39544000000000007  1.0000
  C   C40       1.0  0.7772300000000001  0.8424699999999999  0.41086  1.0000
  C   C41       1.0  0.67467  0.86791  0.42367  1.0000
  C   C42       1.0  0.60105  0.80427  0.42384  1.0000
  C   C43       1.0  0.72087  0.69584  0.39463  1.0000
  C   C44       1.0  0.4785800000000001  0.8421000000000001  0.57945  1.0000
  C   C45       1.0  0.48417  0.75175  0.55859  1.0000
  C   C46       1.0  0.47639  0.7065  0.60331  1.0000
  C   C47       1.0  0.46468  0.75226  0.66649  1.0000
  C   C48       1.0  0.46509  0.84277  0.68205  1.0000
  C   C49       1.0  0.45053  0.71103  0.71793  1.0000
  C   C50       1.0  0.3739  0.75121  0.29694  1.0000
  C   C51       1.0  0.4766  0.78468  0.28272  1.0000
  C   C52       1.0  0.56151  0.73015  0.26164  1.0000
  C   C53       1.0  0.66702  0.84406  0.26041  1.0000
  C   C54       1.0  0.58873  0.90468  0.28327  1.0000
  C   C55       1.0  0.49206  0.87365  0.29371  1.0000
  C   C56       1.0  0.79012  0.061230000000000014  0.31973  1.0000
  C   C57       1.0  0.7846300000000002  0.15110999999999997  0.32922  1.0000
  C   C58       1.0  0.78196  0.20342  0.39062  1.0000
  C   C59       1.0  0.78541  0.16549  0.44007  1.0000
  C   C60       1.0  0.7921300000000001  0.07544999999999998  0.42474  1.0000
  C   C61       1.0  0.78423  0.21498999999999996  0.5079  1.0000
  C   C62       1.0  0.22171000000000005  0.99584  0.4058800000000001  1.0000
  C   C63       1.0  0.22556000000000007  0.08509000000000001  0.4189300000000001  1.0000
  C   C64       1.0  0.14194  0.12976999999999997  0.40265999999999996  1.0000
  C   C65       1.0  0.05749  0.08067  0.37246  1.0000
  C   C66       1.0  0.05827  0.9916299999999999  0.36161  1.0000
  C   C67       1.0  0.14035  0.22663  0.41983  1.0000
  C   C68       1.0  0.04368  0.26177  0.45933  1.0000
  C   C69       1.0  0.04496  0.36021  0.48903  1.0000
  C   C70       1.0  0.051230000000000005  0.40692000000000006  0.43965000000000004  1.0000
  C   C71       1.0  0.14599  0.43484  0.42144000000000004  1.0000
  C   C72       1.0  0.14896  0.47439999999999993  0.37347  1.0000
  C   C73       1.0  0.97085  0.4598  0.35934  1.0000
  C   C74       1.0  0.96252  0.41964000000000007  0.40676000000000007  1.0000
  C   C75       1.0  0.59006  0.72392  0.8781  1.0000
  C   C76       1.0  0.69864  0.75451  0.89544  1.0000
  C   C77       1.0  0.72277  0.84247  0.91086  1.0000
  C   C78       1.0  0.8253300000000001  0.86791  0.92367  1.0000
  C   C79       1.0  0.8989500000000002  0.80426  0.92383  1.0000
  C   C80       1.0  0.77913  0.69583  0.89463  1.0000
  C   C81       1.0  0.02142  0.8421  0.07945  1.0000
  C   C82       1.0  0.01583  0.75175  0.05859000000000001  1.0000
  C   C83       1.0  0.02361  0.7065  0.10331  1.0000
  C   C84       1.0  0.03532  0.75226  0.16649  1.0000
  C   C85       1.0  0.0349  0.84277  0.18205  1.0000
  C   C86       1.0  0.04947  0.7110299999999999  0.21793  1.0000
  C   C87       1.0  0.1261  0.75121  0.79694  1.0000
  C   C88       1.0  0.0234  0.7846800000000002  0.7827200000000001  1.0000
  C   C89       1.0  0.93849  0.7301399999999998  0.76164  1.0000
  C   C90       1.0  0.8329800000000003  0.84406  0.76041  1.0000
  C   C91       1.0  0.91127  0.90468  0.7832699999999999  1.0000
  C   C92       1.0  0.00794  0.87365  0.7937099999999999  1.0000
  C   C93       1.0  0.70987  0.061229999999999986  0.8197199999999999  1.0000
  C   C94       1.0  0.71537  0.15111  0.82921  1.0000
  C   C95       1.0  0.71804  0.20342  0.89062  1.0000
  C   C96       1.0  0.71459  0.16549000000000005  0.9400700000000001  1.0000
  C   C97       1.0  0.7078600000000002  0.07544000000000003  0.92473  1.0000
  C   C98       1.0  0.71577  0.21499  0.0079  1.0000
  C   C99       1.0  0.27829  0.99584  0.90588  1.0000
  C   C100      1.0  0.27444  0.08509000000000004  0.91893  1.0000
  C   C101      1.0  0.35806  0.12977  0.90266  1.0000
  C   C102      1.0  0.44251  0.08067000000000002  0.8724600000000001  1.0000
  C   C103      1.0  0.44173  0.9916299999999999  0.86161  1.0000
  C   C104      1.0  0.35965  0.22663  0.91983  1.0000
  C   C105      1.0  0.45632  0.26177  0.95932  1.0000
  C   C106      1.0  0.45504  0.36021  0.98903  1.0000
  C   C107      1.0  0.44877  0.40692  0.93965  1.0000
  C   C108      1.0  0.354  0.43484  0.92144  1.0000
  C   C109      1.0  0.35103  0.47438999999999987  0.8734699999999999  1.0000
  C   C110      1.0  0.52915  0.45979000000000003  0.85934  1.0000
  C   C111      1.0  0.53748  0.41963999999999996  0.90676  1.0000
  C   C112      1.0  0.09006  0.27607  0.62189  1.0000
  C   C113      1.0  0.19864000000000004  0.24547999999999998  0.60456  1.0000
  C   C114      1.0  0.22277  0.15752000000000002  0.58913  1.0000
  C   C115      1.0  0.32533  0.13207999999999998  0.57632  1.0000
  C   C116      1.0  0.39895  0.19572999999999996  0.57616  1.0000
  C   C117      1.0  0.27913  0.30416  0.60537  1.0000
  C   C118      1.0  0.52142  0.15789000000000003  0.42055000000000003  1.0000
  C   C119      1.0  0.51583  0.24824000000000002  0.44141  1.0000
  C   C120      1.0  0.52361  0.2935  0.39669  1.0000
  C   C121      1.0  0.53532  0.24774  0.33351  1.0000
  C   C122      1.0  0.5349  0.15722  0.31795  1.0000
  C   C123      1.0  0.54947  0.28896  0.28207  1.0000
  C   C124      1.0  0.6261  0.24878  0.70306  1.0000
  C   C125      1.0  0.5234  0.21531  0.71728  1.0000
  C   C126      1.0  0.43849  0.26985  0.73835  1.0000
  C   C127      1.0  0.33298000000000005  0.15593  0.73959  1.0000
  C   C128      1.0  0.4112700000000001  0.09531000000000002  0.71673  1.0000
  C   C129      1.0  0.50794  0.12634  0.70628  1.0000
  C   C130      1.0  0.20988  0.93876  0.68027  1.0000
  C   C131      1.0  0.21537  0.84888  0.67078  1.0000
  C   C132      1.0  0.21804  0.79657  0.60937  1.0000
  C   C133      1.0  0.21459000000000006  0.8345  0.55993  1.0000
  C   C134      1.0  0.20787000000000003  0.92454  0.57526  1.0000
  C   C135      1.0  0.21577  0.7849999999999999  0.49208999999999997  1.0000
  C   C136      1.0  0.7782900000000001  0.00415  0.59411  1.0000
  C   C137      1.0  0.7744400000000001  0.9149  0.58106  1.0000
  C   C138      1.0  0.85806  0.87022  0.59734  1.0000
  C   C139      1.0  0.9425100000000002  0.91932  0.62753  1.0000
  C   C140      1.0  0.94173  0.00835999999999999  0.63838  1.0000
  C   C141      1.0  0.85965  0.77336  0.58016  1.0000
  C   C142      1.0  0.95632  0.7382199999999998  0.54067  1.0000
  C   C143      1.0  0.9550400000000001  0.6397799999999998  0.51096  1.0000
  C   C144      1.0  0.9487700000000001  0.59307  0.56035  1.0000
  C   C145      1.0  0.8540000000000001  0.56515  0.57855  1.0000
  C   C146      1.0  0.85104  0.5256  0.62653  1.0000
  C   C147      1.0  0.02915  0.5402  0.64065  1.0000
  C   C148      1.0  0.03748  0.58035  0.59324  1.0000
  S   S1        1.0  0.97884  0.08777  0.96973  1.0000
  S   S2        1.0  0.96731  0.16829  0.05852  1.0000
  S   S3        1.0  0.28647  0.004749999999999994  0.25964  1.0000
  S   S4        1.0  0.2964  0.1285  0.25478  1.0000
  S   S5        1.0  0.47884  0.91222  0.53026  1.0000
  S   S6        1.0  0.46731000000000006  0.83171  0.44148  1.0000
  S   S7        1.0  0.78647  0.99525  0.24035999999999996  1.0000
  S   S8        1.0  0.7964  0.87149  0.24521  1.0000
  S   S9        1.0  0.02116  0.9122299999999998  0.03027  1.0000
  S   S10       1.0  0.03269  0.83171  0.94148  1.0000
  S   S11       1.0  0.71353  0.99525  0.74035  1.0000
  S   S12       1.0  0.7036  0.87149  0.74521  1.0000
  S   S13       1.0  0.52115  0.08777000000000003  0.46973000000000004  1.0000
  S   S14       1.0  0.53269  0.16829  0.55852  1.0000
  S   S15       1.0  0.21353  0.004740000000000041  0.7596400000000001  1.0000
  S   S16       1.0  0.2036  0.12849999999999995  0.75478  1.0000
  N   N1        1.0  0.12243  0.28039  0.08989  1.0000
  N   N2        1.0  0.97172  0.11255  0.86008  1.0000
  N   N3        1.0  0.15507  0.2416  0.25056  1.0000
  N   N4        1.0  0.29441  0.9763800000000001  0.13393  1.0000
  N   N5        1.0  0.63886  0.050530000000000005  0.12179000000000001  1.0000
  N   N6        1.0  0.56277  0.51231  0.15716  1.0000
  N   N7        1.0  0.62243  0.71961  0.4101099999999999  1.0000
  N   N8        1.0  0.4717200000000001  0.88744  0.63992  1.0000
  N   N9        1.0  0.65507  0.75839  0.24944  1.0000
  N   N10       1.0  0.79441  0.023610000000000003  0.36607  1.0000
  N   N11       1.0  0.13886  0.94947  0.37821  1.0000
  N   N12       1.0  0.06276  0.48767999999999995  0.34284  1.0000
  N   N13       1.0  0.87757  0.7196  0.91011  1.0000
  N   N14       1.0  0.028280000000000003  0.88744  0.13992  1.0000
  N   N15       1.0  0.84493  0.75839  0.74943  1.0000
  N   N16       1.0  0.70559  0.023610000000000072  0.8660700000000001  1.0000
  N   N17       1.0  0.36114  0.94947  0.8782099999999999  1.0000
  N   N18       1.0  0.43723  0.48768  0.84284  1.0000
  N   N19       1.0  0.37757000000000007  0.28039  0.58989  1.0000
  N   N20       1.0  0.52828  0.11255  0.36008  1.0000
  N   N21       1.0  0.34493000000000007  0.24159999999999995  0.75056  1.0000
  N   N22       1.0  0.20559000000000005  0.9763800000000001  0.63393  1.0000
  N   N23       1.0  0.8611400000000001  0.05051999999999999  0.62179  1.0000
  N   N24       1.0  0.9372300000000001  0.51231  0.65716  1.0000
  O   O1        1.0  0.41658000000000006  0.35403  0.15718  1.0000
  O   O2        1.0  0.48389  0.22488  0.10043  1.0000
  O   O3        1.0  0.93735  0.37142  0.79555  1.0000
  O   O4        1.0  0.95286  0.23944  0.72677  1.0000
  O   O5        1.0  0.7973  0.19645  0.19694  1.0000
  O   O6        1.0  0.87013  0.32505999999999996  0.19716  1.0000
  O   O7        1.0  0.27142  0.8319  0.95471  1.0000
  O   O8        1.0  0.29666  0.70367  0.97601  1.0000
  O   O9        1.0  0.70311  0.34536  0.14542  1.0000
  O   O10       1.0  0.91658  0.6459600000000001  0.34282  1.0000
  O   O11       1.0  0.98389  0.77512  0.39957  1.0000
  O   O12       1.0  0.43736  0.62857  0.70444  1.0000
  O   O13       1.0  0.45286  0.76054  0.77323  1.0000
  O   O14       1.0  0.2973  0.8035500000000001  0.30306  1.0000
  O   O15       1.0  0.37013  0.6749299999999998  0.30284  1.0000
  O   O16       1.0  0.77142  0.16809999999999994  0.54529  1.0000
  O   O17       1.0  0.7966600000000001  0.29632  0.52399  1.0000
  O   O18       1.0  0.20311  0.65463  0.35458  1.0000
  O   O19       1.0  0.58342  0.64596  0.84282  1.0000
  O   O20       1.0  0.51611  0.77512  0.89956  1.0000
  O   O21       1.0  0.06264  0.62857  0.20445  1.0000
  O   O22       1.0  0.04714  0.76055  0.27323  1.0000
  O   O23       1.0  0.2027  0.8035400000000001  0.8030600000000001  1.0000
  O   O24       1.0  0.12987  0.6749299999999998  0.80284  1.0000
  O   O25       1.0  0.7285800000000001  0.16809  0.04529  1.0000
  O   O26       1.0  0.70334  0.29632  0.023989999999999997  1.0000
  O   O27       1.0  0.29689  0.65463  0.8545700000000002  1.0000
  O   O28       1.0  0.08342  0.35403  0.65717  1.0000
  O   O29       1.0  0.01611  0.22486999999999996  0.60043  1.0000
  O   O30       1.0  0.56264  0.37143  0.29555  1.0000
  O   O31       1.0  0.54714  0.23944999999999994  0.22676999999999997  1.0000
  O   O32       1.0  0.7027000000000001  0.19645  0.69693  1.0000
  O   O33       1.0  0.62987  0.32506000000000007  0.69716  1.0000
  O   O34       1.0  0.22858  0.8319  0.45470999999999995  1.0000
  O   O35       1.0  0.20334000000000005  0.70367  0.47601  1.0000
  O   O36       1.0  0.79689  0.34536  0.64542  1.0000
