data_image0
_chemical_formula_structural       Co16H88C144N24O56
_chemical_formula_sum              "Co16 H88 C144 N24 O56"
_cell_length_a       14.93135
_cell_length_b       17.08661
_cell_length_c       21.16892
_cell_angle_alpha    90.08031
_cell_angle_beta     90.00406
_cell_angle_gamma    89.99149999999999

_space_group_name_H-M_alt    "P 1"
_space_group_IT_number       1

loop_
  _space_group_symop_operation_xyz
  'x, y, z'

loop_
  _atom_site_type_symbol
  _atom_site_label
  _atom_site_symmetry_multiplicity
  _atom_site_fract_x
  _atom_site_fract_y
  _atom_site_fract_z
  _atom_site_occupancy
  Co  Co1       1.0  0.5876  0.46231  0.4846500000000001  1.0000
  Co  Co2       1.0  0.4434  0.38713  0.38859000000000005  1.0000
  Co  Co3       1.0  0.91203  0.53769  0.9844799999999999  1.0000
  Co  Co4       1.0  0.05637  0.61335  0.8888299999999999  1.0000
  Co  Co5       1.0  0.41203  0.9623  0.01554  1.0000
  Co  Co6       1.0  0.55635  0.88672  0.11109000000000001  1.0000
  Co  Co7       1.0  0.08739  0.0377  0.51529  1.0000
  Co  Co8       1.0  0.94341  0.11294  0.61141  1.0000
  Co  Co9       1.0  0.4124  0.53768  0.51535  1.0000
  Co  Co10      1.0  0.55662  0.61286  0.61142  1.0000
  Co  Co11      1.0  0.08782  0.46226  0.01549  1.0000
  Co  Co12      1.0  0.94362  0.38666  0.11115  1.0000
  Co  Co13      1.0  0.58794  0.03768  0.9844799999999999  1.0000
  Co  Co14      1.0  0.4437  0.11327  0.88892  1.0000
  Co  Co15      1.0  0.91251  0.96227  0.48467  1.0000
  Co  Co16      1.0  0.0566  0.8870799999999999  0.38854  1.0000
  H   H1        1.0  0.44381  0.38722  0.50686  1.0000
  H   H2        1.0  0.74119  0.48236  0.22056  1.0000
  H   H3        1.0  0.76326  0.67789  0.09394  1.0000
  H   H4        1.0  0.58568  0.6924599999999997  0.25367  1.0000
  H   H5        1.0  0.60244  0.68348  0.43082  1.0000
  H   H6        1.0  0.70703  0.79023  0.46209999999999996  1.0000
  H   H7        1.0  0.92028  0.6772  0.36159  1.0000
  H   H8        1.0  0.81809  0.5658199999999998  0.33363  1.0000
  H   H9        1.0  0.52885  0.49319  0.19519999999999998  1.0000
  H   H10       1.0  0.43092  0.47739999999999994  0.2427  1.0000
  H   H11       1.0  0.50852  0.40050999999999987  0.23253  1.0000
  H   H12       1.0  0.0557  0.61223  0.00792  1.0000
  H   H13       1.0  0.75858  0.51801  0.72001  1.0000
  H   H14       1.0  0.73585  0.3223299999999999  0.59334  1.0000
  H   H15       1.0  0.91278  0.30724  0.75349  1.0000
  H   H16       1.0  0.89763  0.31688  0.93045  1.0000
  H   H17       1.0  0.7933500000000001  0.21028  0.96218  1.0000
  H   H18       1.0  0.57936  0.32257  0.86193  1.0000
  H   H19       1.0  0.68141  0.43389999999999995  0.83383  1.0000
  H   H20       1.0  0.97089  0.5070200000000001  0.69523  1.0000
  H   H21       1.0  0.06852  0.52265  0.74316  1.0000
  H   H22       1.0  0.99127  0.59973  0.73279  1.0000
  H   H23       1.0  0.5556899999999999  0.88776  0.99196  1.0000
  H   H24       1.0  0.25856  0.9819799999999999  0.27999  1.0000
  H   H25       1.0  0.23582  0.17772  0.40663000000000005  1.0000
  H   H26       1.0  0.41279  0.19265999999999994  0.24653000000000003  1.0000
  H   H27       1.0  0.3977  0.18305999999999994  0.06957  1.0000
  H   H28       1.0  0.29343  0.28968  0.03776  1.0000
  H   H29       1.0  0.07941  0.17753  0.138  1.0000
  H   H30       1.0  0.18142  0.06616  0.16617  1.0000
  H   H31       1.0  0.47082  0.99305  0.30479  1.0000
  H   H32       1.0  0.56852  0.97733  0.25694  1.0000
  H   H33       1.0  0.49123  0.9002999999999998  0.26728  1.0000
  H   H34       1.0  0.94362  0.11285  0.49304000000000003  1.0000
  H   H35       1.0  0.24126  0.017709999999999993  0.77934  1.0000
  H   H36       1.0  0.26317  0.82224  0.9061400000000001  1.0000
  H   H37       1.0  0.0856  0.80765  0.74647  1.0000
  H   H38       1.0  0.10252000000000001  0.81658  0.5691  1.0000
  H   H39       1.0  0.20703  0.7096999999999998  0.53808  1.0000
  H   H40       1.0  0.42029  0.82282  0.63871  1.0000
  H   H41       1.0  0.31804  0.93423  0.6663  1.0000
  H   H42       1.0  0.02893  0.006829999999999998  0.80476  1.0000
  H   H43       1.0  0.93097  0.022619999999999998  0.7572900000000001  1.0000
  H   H44       1.0  0.00849  0.09952  0.76748  1.0000
  H   H45       1.0  0.55619  0.61277  0.49312  1.0000
  H   H46       1.0  0.25884  0.5176199999999999  0.7794400000000001  1.0000
  H   H47       1.0  0.23672  0.32211  0.90606  1.0000
  H   H48       1.0  0.41431  0.30749  0.74633  1.0000
  H   H49       1.0  0.39753  0.31652  0.56914  1.0000
  H   H50       1.0  0.29295  0.20972  0.53797  1.0000
  H   H51       1.0  0.07972  0.32279  0.63854  1.0000
  H   H52       1.0  0.18189  0.43419  0.66636  1.0000
  H   H53       1.0  0.47116  0.5068  0.8048200000000001  1.0000
  H   H54       1.0  0.56909  0.5225999999999998  0.75733  1.0000
  H   H55       1.0  0.49148  0.59947  0.76748  1.0000
  H   H56       1.0  0.94416  0.38771  0.9920800000000001  1.0000
  H   H57       1.0  0.24142  0.48197999999999996  0.27997  1.0000
  H   H58       1.0  0.26413  0.6776599999999998  0.40665  1.0000
  H   H59       1.0  0.08719  0.69272  0.2465  1.0000
  H   H60       1.0  0.10241  0.68308  0.06949  1.0000
  H   H61       1.0  0.20669  0.7897099999999998  0.03784  1.0000
  H   H62       1.0  0.42063  0.67738  0.13811  1.0000
  H   H63       1.0  0.31858  0.5660299999999999  0.16614  1.0000
  H   H64       1.0  0.02909  0.49297  0.30477  1.0000
  H   H65       1.0  0.93147  0.4773299999999999  0.25685  1.0000
  H   H66       1.0  0.00873  0.4002699999999999  0.2672  1.0000
  H   H67       1.0  0.44419  0.11221999999999997  0.00796  1.0000
  H   H68       1.0  0.7414199999999999  0.01801  0.72008  1.0000
  H   H69       1.0  0.76414  0.82227  0.5934  1.0000
  H   H70       1.0  0.58716  0.80736  0.75351  1.0000
  H   H71       1.0  0.60231  0.81692  0.93046  1.0000
  H   H72       1.0  0.70659  0.71032  0.9622600000000001  1.0000
  H   H73       1.0  0.9205600000000002  0.8224699999999998  0.86196  1.0000
  H   H74       1.0  0.81853  0.9338299999999998  0.83383  1.0000
  H   H75       1.0  0.52907  0.006979999999999998  0.69522  1.0000
  H   H76       1.0  0.43143  0.0227  0.74312  1.0000
  H   H77       1.0  0.50871  0.09971999999999998  0.73275  1.0000
  H   H78       1.0  0.05633  0.88718  0.50703  1.0000
  H   H79       1.0  0.75876  0.9823  0.22061  1.0000
  H   H80       1.0  0.73682  0.17780999999999994  0.0939  1.0000
  H   H81       1.0  0.9144  0.19236  0.25358  1.0000
  H   H82       1.0  0.89749  0.18340999999999996  0.43091  1.0000
  H   H83       1.0  0.79298  0.2902999999999999  0.46191000000000004  1.0000
  H   H84       1.0  0.57973  0.17715999999999996  0.36127  1.0000
  H   H85       1.0  0.68199  0.06574  0.33373  1.0000
  H   H86       1.0  0.97108  0.99315  0.19524  1.0000
  H   H87       1.0  0.06901  0.9773799999999999  0.24276999999999999  1.0000
  H   H88       1.0  0.99154  0.90044  0.23252  1.0000
  C   C1        1.0  0.63998  0.55765  0.35932  1.0000
  C   C2        1.0  0.55082  0.4913699999999999  0.29485  1.0000
  C   C3        1.0  0.65937  0.58371  0.24280999999999997  1.0000
  C   C4        1.0  0.72262  0.5419299999999999  0.20803  1.0000
  C   C5        1.0  0.76203  0.5767599999999998  0.15491  1.0000
  C   C6        1.0  0.73525  0.65182  0.13643  1.0000
  C   C7        1.0  0.6712  0.6929399999999998  0.17162  1.0000
  C   C8        1.0  0.6343  0.65951  0.22613  1.0000
  C   C9        1.0  0.82964  0.53107  0.11717  1.0000
  C   C10       1.0  0.63673  0.7702699999999998  0.14918  1.0000
  C   C11       1.0  0.70378  0.61711  0.38095  1.0000
  C   C12       1.0  0.6728  0.68026  0.41757  1.0000
  C   C13       1.0  0.73043  0.7411399999999998  0.4338  1.0000
  C   C14       1.0  0.81914  0.74028  0.41235  1.0000
  C   C15       1.0  0.85075  0.67653  0.37688  1.0000
  C   C16       1.0  0.79372  0.61511  0.36132  1.0000
  C   C17       1.0  0.88064  0.80783  0.42522  1.0000
  C   C18       1.0  0.50268  0.4643199999999999  0.23752000000000004  1.0000
  C   C19       1.0  0.85953  0.4423499999999999  0.8591000000000001  1.0000
  C   C20       1.0  0.94833  0.509  0.79483  1.0000
  C   C21       1.0  0.83994  0.41634  0.74251  1.0000
  C   C22       1.0  0.77724  0.4583599999999999  0.70754  1.0000
  C   C23       1.0  0.73829  0.42341  0.65426  1.0000
  C   C24       1.0  0.76412  0.34796  0.636  1.0000
  C   C25       1.0  0.82716  0.30633  0.67155  1.0000
  C   C26       1.0  0.86425  0.34016  0.72598  1.0000
  C   C27       1.0  0.67162  0.46904  0.61605  1.0000
  C   C28       1.0  0.86099  0.22852  0.64929  1.0000
  C   C29       1.0  0.79598  0.3827899999999999  0.8807200000000001  1.0000
  C   C30       1.0  0.82723  0.31986  0.91728  1.0000
  C   C31       1.0  0.76977  0.25903  0.9337  1.0000
  C   C32       1.0  0.68094  0.25961  0.91248  1.0000
  C   C33       1.0  0.64901  0.3231899999999999  0.87702  1.0000
  C   C34       1.0  0.70595  0.38457999999999987  0.86129  1.0000
  C   C35       1.0  0.61968  0.19210999999999995  0.926  1.0000
  C   C36       1.0  0.99684  0.5359  0.73768  1.0000
  C   C37       1.0  0.35956  0.05768  0.14094  1.0000
  C   C38       1.0  0.44838  0.9910199999999999  0.2052  1.0000
  C   C39       1.0  0.33990999999999993  0.08361  0.25751  1.0000
  C   C40       1.0  0.27722  0.04161  0.29249  1.0000
  C   C41       1.0  0.23822  0.07658999999999998  0.34576  1.0000
  C   C42       1.0  0.26409  0.15204  0.36399  1.0000
  C   C43       1.0  0.32714  0.19367  0.32843  1.0000
  C   C44       1.0  0.36423  0.15979  0.27403  1.0000
  C   C45       1.0  0.17141  0.030969999999999998  0.38391  1.0000
  C   C46       1.0  0.36097  0.2715  0.3507  1.0000
  C   C47       1.0  0.29601  0.11723999999999998  0.1193  1.0000
  C   C48       1.0  0.32729  0.18013  0.08271  1.0000
  C   C49       1.0  0.26982  0.24093  0.06621  1.0000
  C   C50       1.0  0.18096  0.24033999999999997  0.0874  1.0000
  C   C51       1.0  0.14905  0.17682999999999993  0.12291  1.0000
  C   C52       1.0  0.20598999999999998  0.11545999999999998  0.13871  1.0000
  C   C53       1.0  0.11961  0.3078  0.07391  1.0000
  C   C54       1.0  0.49683  0.9641099999999999  0.26238  1.0000
  C   C55       1.0  0.14004  0.9424899999999999  0.64064  1.0000
  C   C56       1.0  0.05084  0.008729999999999998  0.7051  1.0000
  C   C57       1.0  0.15939999999999996  0.91641  0.7571800000000001  1.0000
  C   C58       1.0  0.22268  0.95816  0.79196  1.0000
  C   C59       1.0  0.26201  0.9233099999999997  0.84512  1.0000
  C   C60       1.0  0.23519  0.84828  0.86362  1.0000
  C   C61       1.0  0.17112  0.80718  0.82845  1.0000
  C   C62       1.0  0.13425  0.84064  0.7739300000000001  1.0000
  C   C63       1.0  0.32962  0.96895  0.88286  1.0000
  C   C64       1.0  0.13673  0.7297999999999998  0.85087  1.0000
  C   C65       1.0  0.20378  0.88292  0.61909  1.0000
  C   C66       1.0  0.17282  0.8197399999999998  0.58252  1.0000
  C   C67       1.0  0.23046  0.75884  0.56632  1.0000
  C   C68       1.0  0.31921  0.75964  0.58773  1.0000
  C   C69       1.0  0.3508  0.82338  0.62325  1.0000
  C   C70       1.0  0.2937  0.88482  0.63876  1.0000
  C   C71       1.0  0.38071  0.69219  0.57452  1.0000
  C   C72       1.0  0.00272  0.03572  0.7624500000000001  1.0000
  C   C73       1.0  0.36  0.44236  0.64068  1.0000
  C   C74       1.0  0.44918  0.5086199999999997  0.70515  1.0000
  C   C75       1.0  0.34065  0.41626  0.75717  1.0000
  C   C76       1.0  0.2774  0.4580399999999999  0.7919500000000002  1.0000
  C   C77       1.0  0.23797  0.42322  0.84507  1.0000
  C   C78       1.0  0.26475  0.34817  0.86356  1.0000
  C   C79       1.0  0.32879  0.30704  0.82838  1.0000
  C   C80       1.0  0.36571  0.34046  0.77386  1.0000
  C   C81       1.0  0.17036  0.46891  0.88282  1.0000
  C   C82       1.0  0.36329  0.22970999999999994  0.8508  1.0000
  C   C83       1.0  0.29621  0.38286  0.6191  1.0000
  C   C84       1.0  0.32719  0.3197  0.58247  1.0000
  C   C85       1.0  0.26953  0.25884  0.56624  1.0000
  C   C86       1.0  0.18081  0.25966999999999996  0.58767  1.0000
  C   C87       1.0  0.14922  0.3234299999999999  0.62316  1.0000
  C   C88       1.0  0.20627  0.38484  0.63873  1.0000
  C   C89       1.0  0.11929  0.19220999999999994  0.57465  1.0000
  C   C90       1.0  0.49732999999999994  0.53566  0.7624900000000001  1.0000
  C   C91       1.0  0.14043  0.55763  0.14088  1.0000
  C   C92       1.0  0.05163  0.49099999999999994  0.20516  1.0000
  C   C93       1.0  0.16007  0.58363  0.25746  1.0000
  C   C94       1.0  0.22275  0.54162  0.29245  1.0000
  C   C95       1.0  0.2617  0.57658  0.34573  1.0000
  C   C96       1.0  0.23587  0.65203  0.36399  1.0000
  C   C97       1.0  0.17281  0.6936499999999999  0.32843  1.0000
  C   C98       1.0  0.13573  0.6598099999999998  0.274  1.0000
  C   C99       1.0  0.32836  0.53096  0.38394  1.0000
  C   C100      1.0  0.13901  0.77148  0.35067  1.0000
  C   C101      1.0  0.20402  0.61718  0.11927  1.0000
  C   C102      1.0  0.17279  0.6801  0.0827  1.0000
  C   C103      1.0  0.23025  0.74097  0.06633  1.0000
  C   C104      1.0  0.31906  0.74039  0.08758  1.0000
  C   C105      1.0  0.35098  0.67679  0.12302  1.0000
  C   C106      1.0  0.29404  0.61536  0.1387  1.0000
  C   C107      1.0  0.38032  0.80788  0.07401  1.0000
  C   C108      1.0  0.00315  0.46409  0.26231  1.0000
  C   C109      1.0  0.64044  0.9423399999999998  0.85909  1.0000
  C   C110      1.0  0.5516  0.008979999999999998  0.7948200000000001  1.0000
  C   C111      1.0  0.6600599999999999  0.9163799999999998  0.74251  1.0000
  C   C112      1.0  0.72277  0.9583799999999999  0.70754  1.0000
  C   C113      1.0  0.7617700000000001  0.92341  0.65427  1.0000
  C   C114      1.0  0.73588  0.84796  0.63605  1.0000
  C   C115      1.0  0.67283  0.80633  0.67161  1.0000
  C   C116      1.0  0.6357400000000001  0.8402  0.72601  1.0000
  C   C117      1.0  0.82861  0.9690199999999999  0.6161  1.0000
  C   C118      1.0  0.63901  0.7284999999999999  0.64934  1.0000
  C   C119      1.0  0.70398  0.88278  0.88073  1.0000
  C   C120      1.0  0.67271  0.81988  0.91731  1.0000
  C   C121      1.0  0.73018  0.7590699999999998  0.9338000000000001  1.0000
  C   C122      1.0  0.8190200000000001  0.75967  0.91259  1.0000
  C   C123      1.0  0.85093  0.82317  0.87708  1.0000
  C   C124      1.0  0.79398  0.8845399999999998  0.86131  1.0000
  C   C125      1.0  0.88035  0.69218  0.9260700000000001  1.0000
  C   C126      1.0  0.50312  0.035909999999999984  0.73766  1.0000
  C   C127      1.0  0.85994  0.057479999999999996  0.35938  1.0000
  C   C128      1.0  0.94912  0.9912399999999999  0.2949  1.0000
  C   C129      1.0  0.8406  0.08361  0.24283  1.0000
  C   C130      1.0  0.77734  0.04186  0.20804  1.0000
  C   C131      1.0  0.7379999999999999  0.0767  0.15488  1.0000
  C   C132      1.0  0.76483  0.15174  0.1364  1.0000
  C   C133      1.0  0.82889  0.19284  0.17158  1.0000
  C   C134      1.0  0.86578  0.15936999999999998  0.22609  1.0000
  C   C135      1.0  0.67037  0.03104  0.11715  1.0000
  C   C136      1.0  0.86329  0.27022  0.14916  1.0000
  C   C137      1.0  0.7962200000000001  0.11707999999999999  0.3809100000000001  1.0000
  C   C138      1.0  0.8272  0.18027  0.41748  1.0000
  C   C139      1.0  0.76955  0.24116  0.43367000000000006  1.0000
  C   C140      1.0  0.6808  0.24036999999999997  0.41227  1.0000
  C   C141      1.0  0.6492  0.17661  0.37675  1.0000
  C   C142      1.0  0.70631  0.11518  0.36124  1.0000
  C   C143      1.0  0.6193  0.30781  0.42549  1.0000
  C   C144      1.0  0.99728  0.9642499999999999  0.23756000000000002  1.0000
  N   N1        1.0  0.61808  0.5464899999999998  0.29645  1.0000
  N   N2        1.0  0.58937  0.5102599999999998  0.39392  1.0000
  N   N3        1.0  0.53393  0.46897999999999995  0.35356  1.0000
  N   N4        1.0  0.88126  0.45365  0.79624  1.0000
  N   N5        1.0  0.91004  0.48981  0.89381  1.0000
  N   N6        1.0  0.9652300000000001  0.53138  0.8536  1.0000
  N   N7        1.0  0.38124  0.04631  0.20379  1.0000
  N   N8        1.0  0.41015  0.01031  0.10620999999999998  1.0000
  N   N9        1.0  0.46536  0.9687399999999999  0.14641  1.0000
  N   N10       1.0  0.11813  0.95363  0.70351  1.0000
  N   N11       1.0  0.08941  0.98989  0.60603  1.0000
  N   N12       1.0  0.03392  0.03112  0.64639  1.0000
  N   N13       1.0  0.38193  0.4534999999999999  0.70354  1.0000
  N   N14       1.0  0.4106  0.4897699999999999  0.60608  1.0000
  N   N15       1.0  0.46607  0.5310199999999998  0.64644  1.0000
  N   N16       1.0  0.11873  0.54632  0.20374  1.0000
  N   N17       1.0  0.08992  0.51019  0.10617  1.0000
  N   N18       1.0  0.03473  0.46862999999999994  0.14638  1.0000
  N   N19       1.0  0.61875  0.9536899999999999  0.79624  1.0000
  N   N20       1.0  0.58986  0.9897199999999999  0.89381  1.0000
  N   N21       1.0  0.53468  0.03131  0.8536100000000001  1.0000
  N   N22       1.0  0.88185  0.04636  0.29651  1.0000
  N   N23       1.0  0.91056  0.01007  0.39397  1.0000
  N   N24       1.0  0.96602  0.96883  0.3536  1.0000
  O   O1        1.0  0.86982  0.56729  0.07285  1.0000
  O   O2        1.0  0.83977  0.4598299999999999  0.13334  1.0000
  O   O3        1.0  0.59261  0.81368  0.18771  1.0000
  O   O4        1.0  0.64809  0.78994  0.09188  1.0000
  O   O5        1.0  0.84822  0.86511  0.45677  1.0000
  O   O6        1.0  0.95971  0.8022  0.40341000000000005  1.0000
  O   O7        1.0  0.45686  0.43147999999999986  0.4796  1.0000
  O   O8        1.0  0.63284  0.43241  0.57128  1.0000
  O   O9        1.0  0.66072  0.5402099999999999  0.63198  1.0000
  O   O10       1.0  0.90223  0.18391  0.68846  1.0000
  O   O11       1.0  0.85222  0.21011  0.59133  1.0000
  O   O12       1.0  0.65329  0.13350999999999996  0.95517  1.0000
  O   O13       1.0  0.5392  0.19872  0.9074900000000001  1.0000
  O   O14       1.0  0.04309  0.5682  0.9801900000000001  1.0000
  O   O15       1.0  0.13229  0.06756  0.42858000000000007  1.0000
  O   O16       1.0  0.1607  0.9597699999999999  0.36801  1.0000
  O   O17       1.0  0.40227  0.31609  0.31155  1.0000
  O   O18       1.0  0.35214  0.28991  0.40864000000000006  1.0000
  O   O19       1.0  0.15314000000000003  0.36636  0.04469  1.0000
  O   O20       1.0  0.03917  0.3012499999999999  0.09248  1.0000
  O   O21       1.0  0.54316  0.9318  0.0197  1.0000
  O   O22       1.0  0.36983  0.93268  0.92719  1.0000
  O   O23       1.0  0.33981  0.04017  0.8667  1.0000
  O   O24       1.0  0.09281999999999999  0.6863  0.81232  1.0000
  O   O25       1.0  0.14811  0.71014  0.9081800000000001  1.0000
  O   O26       1.0  0.34807  0.63483  0.54318  1.0000
  O   O27       1.0  0.46005  0.69791  0.59592  1.0000
  O   O28       1.0  0.95668  0.06866  0.52036  1.0000
  O   O29       1.0  0.13015  0.43269  0.92714  1.0000
  O   O30       1.0  0.16023  0.5401599999999998  0.8666700000000002  1.0000
  O   O31       1.0  0.40746  0.18634  0.8122899999999998  1.0000
  O   O32       1.0  0.35190000000000005  0.21003999999999995  0.90811  1.0000
  O   O33       1.0  0.15177  0.13487  0.54318  1.0000
  O   O34       1.0  0.04013  0.19790999999999995  0.5964  1.0000
  O   O35       1.0  0.54313  0.5685199999999998  0.52039  1.0000
  O   O36       1.0  0.36708  0.5676  0.42873  1.0000
  O   O37       1.0  0.33928  0.45978999999999987  0.36801  1.0000
  O   O38       1.0  0.09787  0.8161399999999998  0.31149  1.0000
  O   O39       1.0  0.1477  0.7898699999999997  0.40864000000000006  1.0000
  O   O40       1.0  0.34665  0.8665  0.04489  1.0000
  O   O41       1.0  0.46081  0.8012799999999998  0.0925  1.0000
  O   O42       1.0  0.95667  0.43178  0.01978  1.0000
  O   O43       1.0  0.86778  0.93243  0.57147  1.0000
  O   O44       1.0  0.83929  0.040239999999999984  0.63199  1.0000
  O   O45       1.0  0.59773  0.68389  0.68847  1.0000
  O   O46       1.0  0.64786  0.71009  0.5914  1.0000
  O   O47       1.0  0.84677  0.6336199999999997  0.95527  1.0000
  O   O48       1.0  0.9608  0.69873  0.9075100000000001  1.0000
  O   O49       1.0  0.45681  0.06816  0.9802799999999999  1.0000
  O   O50       1.0  0.6302  0.06728  0.07281  1.0000
  O   O51       1.0  0.66021  0.95983  0.13333  1.0000
  O   O52       1.0  0.90725  0.31369  0.18769  1.0000
  O   O53       1.0  0.8519  0.28986  0.09185  1.0000
  O   O54       1.0  0.65193  0.3651799999999999  0.45682  1.0000
  O   O55       1.0  0.53993  0.30206  0.40415  1.0000
  O   O56       1.0  0.04315  0.9312799999999999  0.47963000000000006  1.0000
