data_image0
_chemical_formula_structural       Cd4H80C108N16O24
_chemical_formula_sum              "Cd4 H80 C108 N16 O24"
_cell_length_a       9.81396
_cell_length_b       16.63789
_cell_length_c       18.2892
_cell_angle_alpha    90.05834000000002
_cell_angle_beta     93.90253
_cell_angle_gamma    89.93203999999999

_symmetry_space_group_name_H-M    'P 1'
_symmetry_Int_Tables_number       1

loop_
  _symmetry_equiv_pos_as_xyz
  'x,y,z'

loop_
  _atom_site_type_symbol
  _atom_site_label
  _atom_site_symmetry_multiplicity
  _atom_site_fract_x
  _atom_site_fract_y
  _atom_site_fract_z
  _atom_site_occupancy
  Cd  Cd1       1.0  0.09926  0.59114  0.99577  1.0000
  Cd  Cd2       1.0  0.90084  0.5909499999999998  0.5041300000000001  1.0000
  Cd  Cd3       1.0  0.90073  0.4088499999999999  0.00423  1.0000
  Cd  Cd4       1.0  0.09914999999999999  0.40905  0.49587000000000003  1.0000
  H   H1        1.0  0.89473  0.65254  0.13808  1.0000
  H   H2        1.0  0.7944599999999999  0.76866  0.20086  1.0000
  H   H3        1.0  0.46329  0.77555  0.03336  1.0000
  H   H4        1.0  0.56468  0.6578  0.9724900000000001  1.0000
  H   H5        1.0  0.6922  0.9155899999999999  0.19965  1.0000
  H   H6        1.0  0.64962  0.83574  0.25942  1.0000
  H   H7        1.0  0.49541999999999997  0.013029999999999996  0.15615  1.0000
  H   H8        1.0  0.35335999999999995  0.94709  0.15646000000000002  1.0000
  H   H9        1.0  0.10755999999999999  0.27125  0.23195  1.0000
  H   H10       1.0  0.26006  0.16318999999999995  0.2933  1.0000
  H   H11       1.0  0.40823  0.52357  0.93555  1.0000
  H   H12       1.0  0.21994  0.74656  0.88774  1.0000
  H   H13       1.0  0.42686999999999997  0.72336  0.79307  1.0000
  H   H14       1.0  0.62844  0.61071  0.7983600000000002  1.0000
  H   H15       1.0  0.60596  0.53085  0.85911  1.0000
  H   H16       1.0  0.6994700000000001  0.50143  0.7060200000000001  1.0000
  H   H17       1.0  0.5881  0.4211399999999999  0.68261  1.0000
  H   H18       1.0  0.5794299999999999  0.30241999999999997  0.77736  1.0000
  H   H19       1.0  0.8389599999999999  0.50028  0.83289  1.0000
  H   H20       1.0  0.74966  0.26457999999999987  0.89928  1.0000
  H   H21       1.0  0.10728  0.65268  0.36185  1.0000
  H   H22       1.0  0.20667  0.77018  0.30119  1.0000
  H   H23       1.0  0.53669  0.77571  0.46948  1.0000
  H   H24       1.0  0.43558  0.65693  0.52857  1.0000
  H   H25       1.0  0.3068100000000001  0.91612  0.30164000000000013  1.0000
  H   H26       1.0  0.35151  0.8349399999999999  0.24372  1.0000
  H   H27       1.0  0.50525  0.01316  0.34617  1.0000
  H   H28       1.0  0.6471  0.9468899999999998  0.34515  1.0000
  H   H29       1.0  0.89042  0.27093  0.26843  1.0000
  H   H30       1.0  0.73806  0.16223  0.20768  1.0000
  H   H31       1.0  0.59214  0.5227  0.565  1.0000
  H   H32       1.0  0.77953  0.74584  0.61283  1.0000
  H   H33       1.0  0.57171  0.72302  0.70704  1.0000
  H   H34       1.0  0.37122000000000005  0.61098  0.7020000000000002  1.0000
  H   H35       1.0  0.39287  0.5309099999999998  0.6412  1.0000
  H   H36       1.0  0.3000900000000001  0.5013  0.7944800000000002  1.0000
  H   H37       1.0  0.41192999999999996  0.42097  0.81736  1.0000
  H   H38       1.0  0.42038999999999993  0.30245  0.72257  1.0000
  H   H39       1.0  0.16073999999999997  0.50048  0.66716  1.0000
  H   H40       1.0  0.25075  0.2648299999999999  0.6002700000000002  1.0000
  H   H41       1.0  0.10526000000000003  0.34746  0.8619200000000002  1.0000
  H   H42       1.0  0.20553  0.23134  0.79914  1.0000
  H   H43       1.0  0.5367099999999999  0.22445  0.96665  1.0000
  H   H44       1.0  0.43531  0.3422  0.02751  1.0000
  H   H45       1.0  0.30779  0.0844  0.80036  1.0000
  H   H46       1.0  0.35036999999999996  0.16424999999999995  0.74059  1.0000
  H   H47       1.0  0.50457  0.98696  0.84385  1.0000
  H   H48       1.0  0.64663  0.05291  0.84354  1.0000
  H   H49       1.0  0.89243  0.72875  0.76806  1.0000
  H   H50       1.0  0.73994  0.8368099999999998  0.7067100000000002  1.0000
  H   H51       1.0  0.59176  0.47643  0.06445000000000002  1.0000
  H   H52       1.0  0.78005  0.25343  0.11227  1.0000
  H   H53       1.0  0.57312  0.2766299999999999  0.20693000000000006  1.0000
  H   H54       1.0  0.37154999999999994  0.38928  0.20164000000000007  1.0000
  H   H55       1.0  0.39403  0.4691499999999999  0.14089  1.0000
  H   H56       1.0  0.30052  0.49857  0.29398  1.0000
  H   H57       1.0  0.41189  0.5788599999999998  0.3174  1.0000
  H   H58       1.0  0.42056  0.6975699999999998  0.22264000000000003  1.0000
  H   H59       1.0  0.16102999999999998  0.49972  0.16711  1.0000
  H   H60       1.0  0.25033  0.7354099999999998  0.10073  1.0000
  H   H61       1.0  0.89271  0.34732  0.63815  1.0000
  H   H62       1.0  0.7933199999999999  0.22982  0.6988100000000003  1.0000
  H   H63       1.0  0.46329999999999993  0.22429  0.5305200000000002  1.0000
  H   H64       1.0  0.5644099999999999  0.34307  0.4714400000000001  1.0000
  H   H65       1.0  0.6931799999999999  0.08388  0.69836  1.0000
  H   H66       1.0  0.64848  0.16505  0.7562800000000001  1.0000
  H   H67       1.0  0.4947399999999999  0.98683  0.65383  1.0000
  H   H68       1.0  0.35289  0.053109999999999984  0.65486  1.0000
  H   H69       1.0  0.10956999999999999  0.72907  0.7315800000000002  1.0000
  H   H70       1.0  0.26193  0.83776  0.79232  1.0000
  H   H71       1.0  0.40784999999999993  0.4773  0.43501  1.0000
  H   H72       1.0  0.22045999999999996  0.25415  0.38717  1.0000
  H   H73       1.0  0.42828  0.27697  0.2929600000000001  1.0000
  H   H74       1.0  0.62877  0.38902  0.29801  1.0000
  H   H75       1.0  0.60712  0.46908999999999995  0.3588100000000001  1.0000
  H   H76       1.0  0.6999  0.49869  0.20552  1.0000
  H   H77       1.0  0.58806  0.57903  0.18264  1.0000
  H   H78       1.0  0.5796  0.69754  0.27744  1.0000
  H   H79       1.0  0.8392499999999999  0.49951999999999996  0.33284  1.0000
  H   H80       1.0  0.74924  0.7351699999999998  0.39974  1.0000
  C   C1        1.0  0.78022  0.56866  0.02099000000000001  1.0000
  C   C2        1.0  0.73336  0.6455399999999999  0.05290000000000001  1.0000
  C   C3        1.0  0.79941  0.6792499999999999  0.11599  1.0000
  C   C4        1.0  0.7429099999999998  0.74488  0.15107000000000007  1.0000
  C   C5        1.0  0.61837  0.7772  0.12244  1.0000
  C   C6        1.0  0.55642  0.74744  0.05652  1.0000
  C   C7        1.0  0.6134099999999999  0.68219  0.022630000000000008  1.0000
  C   C8        1.0  0.6084  0.87815  0.21745  1.0000
  C   C9        1.0  0.4252799999999999  0.9830099999999999  0.19174000000000005  1.0000
  C   C10       1.0  0.28794  0.10198  0.18743000000000007  1.0000
  C   C11       1.0  0.34523  0.12236  0.10632  1.0000
  C   C12       1.0  0.23186999999999997  0.17607999999999993  0.07982  1.0000
  C   C13       1.0  0.12479  0.21892  0.11996  1.0000
  C   C14       1.0  0.15074  0.22167999999999993  0.20237  1.0000
  C   C15       1.0  0.23283  0.16611  0.23476000000000002  1.0000
  C   C16       1.0  0.05503  0.2918599999999999  0.08451  1.0000
  C   C17       1.0  0.38059  0.57981  0.9088100000000001  1.0000
  C   C18       1.0  0.28868  0.69624  0.88251  1.0000
  C   C19       1.0  0.39015000000000005  0.6852099999999998  0.8351800000000003  1.0000
  C   C20       1.0  0.55318  0.56735  0.8161  1.0000
  C   C21       1.0  0.6214699999999999  0.46232  0.72719  1.0000
  C   C22       1.0  0.65668  0.33751  0.8071700000000003  1.0000
  C   C23       1.0  0.79352  0.4408699999999999  0.8344000000000003  1.0000
  C   C24       1.0  0.74231  0.31919  0.86713  1.0000
  C   C25       1.0  0.7877799999999999  0.08733  0.38587  1.0000
  C   C26       1.0  0.8969  0.13611  0.4243  1.0000
  C   C27       1.0  0.2204  0.56851  0.47939000000000004  1.0000
  C   C28       1.0  0.2679  0.64512  0.44751  1.0000
  C   C29       1.0  0.20217  0.67928  0.3845700000000001  1.0000
  C   C30       1.0  0.25819  0.7456599999999998  0.35065000000000013  1.0000
  C   C31       1.0  0.38197999999999993  0.77806  0.38010000000000005  1.0000
  C   C32       1.0  0.4440199999999999  0.7476  0.4457100000000001  1.0000
  C   C33       1.0  0.38734  0.68169  0.47850000000000004  1.0000
  C   C34       1.0  0.3915  0.87846  0.28501  1.0000
  C   C35       1.0  0.57483  0.98299  0.31022  1.0000
  C   C36       1.0  0.71198  0.1017  0.3139200000000001  1.0000
  C   C37       1.0  0.65599  0.12175999999999998  0.39525  1.0000
  C   C38       1.0  0.7688299999999998  0.17585999999999993  0.42129  1.0000
  C   C39       1.0  0.8745999999999999  0.21880999999999995  0.38052  1.0000
  C   C40       1.0  0.8476699999999999  0.22149999999999997  0.29819  1.0000
  C   C41       1.0  0.7657  0.16568999999999995  0.26616  1.0000
  C   C42       1.0  0.94309  0.29213  0.4155600000000001  1.0000
  C   C43       1.0  0.6195  0.57904  0.59167  1.0000
  C   C44       1.0  0.7109  0.69556  0.6179800000000002  1.0000
  C   C45       1.0  0.609  0.68477  0.6650600000000001  1.0000
  C   C46       1.0  0.4461  0.5673  0.68415  1.0000
  C   C47       1.0  0.37811  0.4622799999999999  0.77301  1.0000
  C   C48       1.0  0.34322  0.33758  0.6927100000000002  1.0000
  C   C49       1.0  0.20618  0.44101  0.66565  1.0000
  C   C50       1.0  0.25786  0.31935  0.63262  1.0000
  C   C51       1.0  0.21372  0.08753999999999998  0.11513  1.0000
  C   C52       1.0  0.10442999999999998  0.13589  0.07611  1.0000
  C   C53       1.0  0.21976999999999997  0.43134  0.9790200000000001  1.0000
  C   C54       1.0  0.26663  0.35445  0.9471000000000002  1.0000
  C   C55       1.0  0.20058  0.32075  0.88401  1.0000
  C   C56       1.0  0.25708000000000003  0.25511  0.8489300000000002  1.0000
  C   C57       1.0  0.38162  0.22279999999999994  0.87756  1.0000
  C   C58       1.0  0.44356999999999996  0.25255  0.94349  1.0000
  C   C59       1.0  0.38658  0.31781  0.97738  1.0000
  C   C60       1.0  0.39159  0.12184999999999999  0.78255  1.0000
  C   C61       1.0  0.57471  0.01699  0.8082600000000002  1.0000
  C   C62       1.0  0.71205  0.89801  0.81257  1.0000
  C   C63       1.0  0.6547699999999997  0.87764  0.89369  1.0000
  C   C64       1.0  0.76812  0.8239199999999998  0.92018  1.0000
  C   C65       1.0  0.8751999999999999  0.78107  0.8800400000000002  1.0000
  C   C66       1.0  0.84925  0.77831  0.7976300000000001  1.0000
  C   C67       1.0  0.7671699999999998  0.83389  0.76524  1.0000
  C   C68       1.0  0.94496  0.70814  0.91549  1.0000
  C   C69       1.0  0.6194  0.42018  0.09119  1.0000
  C   C70       1.0  0.71132  0.30375  0.1175  1.0000
  C   C71       1.0  0.60984  0.31479  0.16483  1.0000
  C   C72       1.0  0.44680999999999993  0.43263999999999997  0.1839  1.0000
  C   C73       1.0  0.37852  0.53767  0.27281  1.0000
  C   C74       1.0  0.34331  0.66248  0.19283000000000006  1.0000
  C   C75       1.0  0.20648  0.5591299999999998  0.16560000000000002  1.0000
  C   C76       1.0  0.25768  0.6808  0.13287000000000004  1.0000
  C   C77       1.0  0.21220999999999998  0.91267  0.61413  1.0000
  C   C78       1.0  0.10309  0.8638899999999998  0.5757  1.0000
  C   C79       1.0  0.7795899999999999  0.43148  0.5206200000000001  1.0000
  C   C80       1.0  0.73209  0.35488  0.55249  1.0000
  C   C81       1.0  0.7978199999999998  0.32070999999999994  0.61543  1.0000
  C   C82       1.0  0.7417999999999999  0.2543399999999999  0.64936  1.0000
  C   C83       1.0  0.61801  0.22194  0.6199000000000002  1.0000
  C   C84       1.0  0.55597  0.25239  0.55429  1.0000
  C   C85       1.0  0.61265  0.31831  0.5215  1.0000
  C   C86       1.0  0.6084899999999999  0.12152999999999999  0.71499  1.0000
  C   C87       1.0  0.42517  0.017  0.68978  1.0000
  C   C88       1.0  0.28801000000000004  0.8983  0.6860800000000002  1.0000
  C   C89       1.0  0.344  0.8782299999999997  0.60475  1.0000
  C   C90       1.0  0.23115999999999998  0.82413  0.5787200000000002  1.0000
  C   C91       1.0  0.12538999999999997  0.78118  0.61948  1.0000
  C   C92       1.0  0.15231999999999998  0.7784999999999997  0.7018200000000002  1.0000
  C   C93       1.0  0.23429000000000005  0.8343099999999998  0.7338400000000003  1.0000
  C   C94       1.0  0.0569  0.70786  0.58445  1.0000
  C   C95       1.0  0.38049  0.4209499999999999  0.40833  1.0000
  C   C96       1.0  0.28909  0.30443  0.3820200000000001  1.0000
  C   C97       1.0  0.39099  0.31522  0.3349500000000001  1.0000
  C   C98       1.0  0.5538899999999999  0.4326899999999999  0.31585  1.0000
  C   C99       1.0  0.62188  0.53771  0.227  1.0000
  C   C100      1.0  0.65677  0.66241  0.3073  1.0000
  C   C101      1.0  0.7938099999999999  0.55898  0.33435  1.0000
  C   C102      1.0  0.74213  0.68064  0.3673800000000001  1.0000
  C   C103      1.0  0.78627  0.9124599999999998  0.8848700000000002  1.0000
  C   C104      1.0  0.8955599999999999  0.8641099999999998  0.9238900000000001  1.0000
  C   C105      1.0  0.49985  0.93059  0.25109  1.0000
  C   C106      1.0  0.50014  0.06941  0.74891  1.0000
  C   C107      1.0  0.49965999999999994  0.51452  0.7501100000000003  1.0000
  C   C108      1.0  0.5003299999999999  0.48547  0.2499  1.0000
  N   N1        1.0  0.28363  0.63007  0.92794  1.0000
  N   N2        1.0  0.44720999999999994  0.61063  0.85214  1.0000
  N   N3        1.0  0.6895  0.415  0.7864600000000002  1.0000
  N   N4        1.0  0.82648  0.38409  0.8837200000000001  1.0000
  N   N5        1.0  0.71656  0.6291699999999998  0.57272  1.0000
  N   N6        1.0  0.55224  0.6101799999999997  0.6480800000000002  1.0000
  N   N7        1.0  0.31008  0.41504  0.7136400000000003  1.0000
  N   N8        1.0  0.17356  0.38429999999999986  0.61616  1.0000
  N   N9        1.0  0.71636  0.36992  0.07206  1.0000
  N   N10       1.0  0.55278  0.3893699999999999  0.14787  1.0000
  N   N11       1.0  0.31048999999999993  0.585  0.21355000000000005  1.0000
  N   N12       1.0  0.17350999999999997  0.61591  0.11629  1.0000
  N   N13       1.0  0.28343  0.3708299999999999  0.42729  1.0000
  N   N14       1.0  0.44774999999999987  0.3898099999999999  0.35192000000000007  1.0000
  N   N15       1.0  0.6899099999999999  0.58495  0.2863700000000001  1.0000
  N   N16       1.0  0.8264299999999998  0.6156999999999999  0.3838500000000001  1.0000
  O   O1        1.0  0.7049899999999999  0.53189  0.9738000000000001  1.0000
  O   O2        1.0  0.8966499999999998  0.53913  0.04806000000000001  1.0000
  O   O3        1.0  0.54523  0.83622  0.15539000000000006  1.0000
  O   O4        1.0  0.35292  0.04398999999999999  0.22955000000000003  1.0000
  O   O5        1.0  0.06807  0.35805  0.11854000000000002  1.0000
  O   O6        1.0  0.9869299999999999  0.2816  0.023170000000000007  1.0000
  O   O7        1.0  0.29561  0.53172  0.52653  1.0000
  O   O8        1.0  0.10363000000000001  0.5393999999999998  0.4523000000000001  1.0000
  O   O9        1.0  0.45411999999999997  0.83786  0.34804  1.0000
  O   O10       1.0  0.64692  0.04358999999999998  0.2720200000000001  1.0000
  O   O11       1.0  0.9266799999999998  0.35805  0.38159  1.0000
  O   O12       1.0  0.013450000000000004  0.28222  0.4762700000000001  1.0000
  O   O13       1.0  0.295  0.4681  0.026210000000000004  1.0000
  O   O14       1.0  0.10335  0.46087  0.95194  1.0000
  O   O15       1.0  0.45476  0.16377  0.8446100000000002  1.0000
  O   O16       1.0  0.6470699999999999  0.9559999999999997  0.77046  1.0000
  O   O17       1.0  0.9319199999999999  0.64195  0.8814700000000001  1.0000
  O   O18       1.0  0.013059999999999992  0.7184  0.97683  1.0000
  O   O19       1.0  0.7043799999999999  0.4682699999999999  0.47347  1.0000
  O   O20       1.0  0.8963599999999999  0.4605999999999999  0.5477  1.0000
  O   O21       1.0  0.54587  0.16212999999999997  0.6519600000000002  1.0000
  O   O22       1.0  0.35307  0.9563999999999998  0.72798  1.0000
  O   O23       1.0  0.07332  0.64195  0.61841  1.0000
  O   O24       1.0  0.9865299999999998  0.71777  0.52374  1.0000
