data_image0
_chemical_formula_structural       Cu8H84C88N24O20
_chemical_formula_sum              "Cu8 H84 C88 N24 O20"
_cell_length_a       9.79007
_cell_length_b       16.92686
_cell_length_c       21.741260000000004
_cell_angle_alpha    89.99695
_cell_angle_beta     97.25613
_cell_angle_gamma    90.05326

_space_group_name_H-M_alt    "P 1"
_space_group_IT_number       1

loop_
  _space_group_symop_operation_xyz
  'x, y, z'

loop_
  _atom_site_type_symbol
  _atom_site_label
  _atom_site_symmetry_multiplicity
  _atom_site_fract_x
  _atom_site_fract_y
  _atom_site_fract_z
  _atom_site_occupancy
  Cu  Cu1       1.0  0.30628  0.4869  0.50809  1.0000
  Cu  Cu2       1.0  0.9662  0.5136500000000002  0.42787  1.0000
  Cu  Cu3       1.0  0.69321  0.98655  0.99217  1.0000
  Cu  Cu4       1.0  0.03364  0.01402  0.0718  1.0000
  Cu  Cu5       1.0  0.69364  0.51307  0.49185999999999996  1.0000
  Cu  Cu6       1.0  0.03379  0.48638  0.57214  1.0000
  Cu  Cu7       1.0  0.30755  0.0134  0.00788  1.0000
  Cu  Cu8       1.0  0.96692  0.9865399999999999  0.9277  1.0000
  H   H1        1.0  0.09072  0.39569  0.47682  1.0000
  H   H2        1.0  0.43885  0.65281  0.45402  1.0000
  H   H3        1.0  0.03373999999999999  0.6907500000000001  0.36392  1.0000
  H   H4        1.0  0.36776  0.79948  0.41114  1.0000
  H   H5        1.0  0.20185  0.80941  0.36878  1.0000
  H   H6        1.0  0.27728  0.64555  0.29233  1.0000
  H   H7        1.0  0.3797  0.63966  0.19343  1.0000
  H   H8        1.0  0.51802  0.75388  0.16134  1.0000
  H   H9        1.0  0.44793  0.87928  0.32663  1.0000
  H   H10       1.0  0.56058  0.94364  0.25338  1.0000
  H   H11       1.0  0.68976  0.87776  0.2343  1.0000
  H   H12       1.0  0.75556  0.91204  0.13136  1.0000
  H   H13       1.0  0.32732  0.93326  0.14549  1.0000
  H   H14       1.0  0.39860999999999996  0.32013  0.67976  1.0000
  H   H15       1.0  0.34498  0.25489  0.61878  1.0000
  H   H16       1.0  0.21539000000000003  0.36285  0.75126  1.0000
  H   H17       1.0  0.040820000000000044  0.30763  0.8128100000000001  1.0000
  H   H18       1.0  0.9894  0.10681  0.69159  1.0000
  H   H19       1.0  0.16138  0.16327  0.6289  1.0000
  H   H20       1.0  0.80894  0.14562  0.7669299999999999  1.0000
  H   H21       1.0  0.86105  0.21455  0.82484  1.0000
  H   H22       1.0  0.90814  0.89608  0.02254  1.0000
  H   H23       1.0  0.56044  0.15279  0.0464  1.0000
  H   H24       1.0  0.96549  0.1907  0.13674  1.0000
  H   H25       1.0  0.63289  0.29979  0.0891  1.0000
  H   H26       1.0  0.79882  0.3092  0.13162  1.0000
  H   H27       1.0  0.72404  0.14635  0.20833999999999997  1.0000
  H   H28       1.0  0.62176  0.1401  0.30712  1.0000
  H   H29       1.0  0.4812699999999999  0.25351  0.33887  1.0000
  H   H30       1.0  0.54971  0.3789  0.17324  1.0000
  H   H31       1.0  0.43166000000000004  0.44194  0.24516999999999997  1.0000
  H   H32       1.0  0.30739  0.37451  0.26684  1.0000
  H   H33       1.0  0.24324999999999997  0.41332  0.36886  1.0000
  H   H34       1.0  0.67087  0.43386  0.35307  1.0000
  H   H35       1.0  0.60245  0.81824  0.82051  1.0000
  H   H36       1.0  0.65778  0.75401  0.88211  1.0000
  H   H37       1.0  0.7861299999999999  0.86115  0.74895  1.0000
  H   H38       1.0  0.9606800000000001  0.8056700000000001  0.68744  1.0000
  H   H39       1.0  0.013170000000000012  0.60615  0.80982  1.0000
  H   H40       1.0  0.84148  0.66286  0.87256  1.0000
  H   H41       1.0  0.19020000000000006  0.64227  0.73464  1.0000
  H   H42       1.0  0.14265  0.71234  0.67676  1.0000
  H   H43       1.0  0.9091600000000001  0.60432  0.52317  1.0000
  H   H44       1.0  0.56117  0.34721  0.54598  1.0000
  H   H45       1.0  0.9662699999999999  0.30925  0.6361  1.0000
  H   H46       1.0  0.63224  0.20054  0.58884  1.0000
  H   H47       1.0  0.79812  0.19062  0.63127  1.0000
  H   H48       1.0  0.7227  0.35447000000000006  0.70763  1.0000
  H   H49       1.0  0.6202799999999999  0.36039  0.8065499999999999  1.0000
  H   H50       1.0  0.48206  0.24616  0.83867  1.0000
  H   H51       1.0  0.55203  0.12075000000000001  0.67337  1.0000
  H   H52       1.0  0.43945999999999996  0.05638  0.7467  1.0000
  H   H53       1.0  0.3103699999999999  0.12223  0.7659399999999998  1.0000
  H   H54       1.0  0.24522000000000002  0.08841  0.8690699999999999  1.0000
  H   H55       1.0  0.67314  0.06655  0.85437  1.0000
  H   H56       1.0  0.60148  0.67991  0.32014  1.0000
  H   H57       1.0  0.65514  0.74502  0.38122  1.0000
  H   H58       1.0  0.78512  0.63726  0.24873000000000003  1.0000
  H   H59       1.0  0.9589899999999999  0.69302  0.18701000000000004  1.0000
  H   H60       1.0  0.009730000000000003  0.89372  0.3084  1.0000
  H   H61       1.0  0.83844  0.8366900000000002  0.37126  1.0000
  H   H62       1.0  0.18996  0.85499  0.23295  1.0000
  H   H63       1.0  0.13678000000000004  0.78695  0.17445  1.0000
  H   H64       1.0  0.09354999999999998  0.10415  0.97748  1.0000
  H   H65       1.0  0.43966000000000005  0.8471  0.95362  1.0000
  H   H66       1.0  0.03460000000000002  0.80938  0.86326  1.0000
  H   H67       1.0  0.36712000000000006  0.70015  0.9109  1.0000
  H   H68       1.0  0.20117999999999994  0.69077  0.8683899999999999  1.0000
  H   H69       1.0  0.27597  0.85363  0.79168  1.0000
  H   H70       1.0  0.37823  0.8599  0.6929  1.0000
  H   H71       1.0  0.51873  0.7465  0.66113  1.0000
  H   H72       1.0  0.45031  0.62108  0.82675  1.0000
  H   H73       1.0  0.56833  0.55805  0.7548  1.0000
  H   H74       1.0  0.6926100000000002  0.62548  0.73315  1.0000
  H   H75       1.0  0.75671  0.58669  0.6311  1.0000
  H   H76       1.0  0.3291  0.56615  0.64693  1.0000
  H   H77       1.0  0.39767  0.18187  0.17954  1.0000
  H   H78       1.0  0.34231  0.24607000000000004  0.11794  1.0000
  H   H79       1.0  0.21379999999999996  0.13886  0.25103  1.0000
  H   H80       1.0  0.039280000000000016  0.19434  0.31253  1.0000
  H   H81       1.0  0.9868400000000002  0.39388  0.19016  1.0000
  H   H82       1.0  0.15853000000000003  0.33717  0.12743  1.0000
  H   H83       1.0  0.80977  0.35772  0.26535  1.0000
  H   H84       1.0  0.85738  0.28767  0.32325  1.0000
  C   C1        1.0  0.32875  0.64659  0.44032999999999994  1.0000
  C   C2        1.0  0.12056  0.66556  0.39321  1.0000
  C   C3        1.0  0.29363  0.77126  0.37562  1.0000
  C   C4        1.0  0.3558299999999999  0.76196  0.31617  1.0000
  C   C5        1.0  0.33711  0.6953  0.27853  1.0000
  C   C6        1.0  0.39488  0.69183  0.2226  1.0000
  C   C7        1.0  0.47258000000000006  0.75626  0.20445  1.0000
  C   C8        1.0  0.49179999999999996  0.82313  0.242  1.0000
  C   C9        1.0  0.43296  0.82684  0.29757  1.0000
  C   C10       1.0  0.57928  0.89159  0.22546  1.0000
  C   C11       1.0  0.6449  0.91982  0.11862  1.0000
  C   C12       1.0  0.42647  0.93395  0.1279  1.0000
  C   C13       1.0  0.26116  0.3718000000000001  0.60777  1.0000
  C   C14       1.0  0.30759  0.30033  0.64851  1.0000
  C   C15       1.0  0.2019  0.26683  0.68591  1.0000
  C   C16       1.0  0.16583  0.30676  0.73807  1.0000
  C   C17       1.0  0.06716000000000003  0.2758  0.77243  1.0000
  C   C18       1.0  0.0009799999999999419  0.20368  0.7562599999999999  1.0000
  C   C19       1.0  0.036980000000000006  0.1637  0.70415  1.0000
  C   C20       1.0  0.13524000000000003  0.19503000000000004  0.66938  1.0000
  C   C21       1.0  0.90054  0.16917  0.7957500000000001  1.0000
  C   C22       1.0  0.95938  0.10123  0.8377099999999998  1.0000
  C   C23       1.0  0.6705  0.14647  0.06020999999999999  1.0000
  C   C24       1.0  0.8786599999999999  0.16543  0.10744  1.0000
  C   C25       1.0  0.70642  0.27143  0.12474  1.0000
  C   C26       1.0  0.64381  0.26221  0.18411  1.0000
  C   C27       1.0  0.66336  0.19577  0.22196  1.0000
  C   C28       1.0  0.60568  0.19211  0.27784  1.0000
  C   C29       1.0  0.5268  0.25609  0.29579  1.0000
  C   C30       1.0  0.50659  0.32275  0.25801  1.0000
  C   C31       1.0  0.5655700000000002  0.32669  0.20251  1.0000
  C   C32       1.0  0.41717  0.39038  0.27432  1.0000
  C   C33       1.0  0.35407  0.42101  0.38116  1.0000
  C   C34       1.0  0.57216  0.43474  0.37101  1.0000
  C   C35       1.0  0.73907  0.87161  0.8920100000000001  1.0000
  C   C36       1.0  0.6939000000000001  0.79933  0.8518600000000001  1.0000
  C   C37       1.0  0.79993  0.76573  0.81474  1.0000
  C   C38       1.0  0.83587  0.80521  0.7623400000000001  1.0000
  C   C39       1.0  0.9342100000000001  0.77405  0.72793  1.0000
  C   C40       1.0  3.999999999997978e-05  0.70193  0.74429  1.0000
  C   C41       1.0  0.96485  0.66269  0.7968900000000001  1.0000
  C   C42       1.0  0.86704  0.69423  0.83177  1.0000
  C   C43       1.0  0.10062  0.6669500000000002  0.70516  1.0000
  C   C44       1.0  0.04181000000000001  0.5992  0.66279  1.0000
  C   C45       1.0  0.67128  0.35343  0.55967  1.0000
  C   C46       1.0  0.8794600000000001  0.33445  0.60681  1.0000
  C   C47       1.0  0.70634  0.22876  0.62438  1.0000
  C   C48       1.0  0.64405  0.23808999999999997  0.68381  1.0000
  C   C49       1.0  0.6628  0.30475  0.72143  1.0000
  C   C50       1.0  0.60505  0.30823  0.77737  1.0000
  C   C51       1.0  0.52743  0.24379  0.7955499999999999  1.0000
  C   C52       1.0  0.50819  0.17691  0.75802  1.0000
  C   C53       1.0  0.56696  0.1732  0.70241  1.0000
  C   C54       1.0  0.42087  0.10843  0.77465  1.0000
  C   C55       1.0  0.3558800000000001  0.08036  0.88163  1.0000
  C   C56       1.0  0.57409  0.06587  0.87205  1.0000
  C   C57       1.0  0.73896  0.62815  0.39205999999999996  1.0000
  C   C58       1.0  0.69251  0.69966  0.3514  1.0000
  C   C59       1.0  0.79803  0.73332  0.31403  1.0000
  C   C60       1.0  0.8341700000000001  0.69352  0.26184  1.0000
  C   C61       1.0  0.93235  0.72481  0.22736000000000003  1.0000
  C   C62       1.0  0.99786  0.79715  0.24347000000000002  1.0000
  C   C63       1.0  0.96214  0.83685  0.29576  1.0000
  C   C64       1.0  0.8643800000000001  0.80518  0.33064  1.0000
  C   C65       1.0  0.09799  0.83201  0.20404  1.0000
  C   C66       1.0  0.04007  0.90055  0.16242  1.0000
  C   C67       1.0  0.32964  0.8535  0.93978  1.0000
  C   C68       1.0  0.12148  0.83467  0.89251  1.0000
  C   C69       1.0  0.29358000000000006  0.72854  0.8752800000000001  1.0000
  C   C70       1.0  0.35619  0.73777  0.81591  1.0000
  C   C71       1.0  0.33664  0.80421  0.7780600000000001  1.0000
  C   C72       1.0  0.39431  0.80789  0.72217  1.0000
  C   C73       1.0  0.4732  0.74391  0.70422  1.0000
  C   C74       1.0  0.4934200000000001  0.67725  0.74199  1.0000
  C   C75       1.0  0.43444000000000005  0.6733  0.79749  1.0000
  C   C76       1.0  0.58283  0.60962  0.72566  1.0000
  C   C77       1.0  0.64587  0.579  0.61881  1.0000
  C   C78       1.0  0.42781  0.56526  0.62898  1.0000
  C   C79       1.0  0.26135  0.12845  0.10802  1.0000
  C   C80       1.0  0.30622  0.20074  0.14819  1.0000
  C   C81       1.0  0.20010000000000003  0.23431  0.18527  1.0000
  C   C82       1.0  0.16413  0.19482  0.23766000000000004  1.0000
  C   C83       1.0  0.0658  0.22599  0.27207  1.0000
  C   C84       1.0  0.0  0.29812  0.25571  1.0000
  C   C85       1.0  0.035179999999999996  0.33736  0.20311000000000004  1.0000
  C   C86       1.0  0.133  0.30581  0.16824  1.0000
  C   C87       1.0  0.8993599999999999  0.33306  0.29483  1.0000
  C   C88       1.0  0.95817  0.40078  0.33722  1.0000
  N   N1        1.0  0.25091  0.58741  0.45531000000000005  1.0000
  N   N2        1.0  0.11967999999999998  0.59902  0.42529  1.0000
  N   N3        1.0  0.24978000000000003  0.69741  0.40199  1.0000
  N   N4        1.0  0.58206  0.94256  0.064  1.0000
  N   N5        1.0  0.44384  0.9520699999999999  0.07008  1.0000
  N   N6        1.0  0.55096  0.91384  0.15978  1.0000
  N   N7        1.0  0.74811  0.08714  0.04547  1.0000
  N   N8        1.0  0.8793299999999998  0.09877  0.07552  1.0000
  N   N9        1.0  0.74965  0.19737  0.0985  1.0000
  N   N10       1.0  0.41795000000000004  0.44406  0.43551000000000006  1.0000
  N   N11       1.0  0.55597  0.45325  0.42889  1.0000
  N   N12       1.0  0.44714000000000004  0.41452  0.33962  1.0000
  N   N13       1.0  0.74913  0.4126  0.5447  1.0000
  N   N14       1.0  0.8803500000000001  0.40098  0.57473  1.0000
  N   N15       1.0  0.75024  0.3026  0.59802  1.0000
  N   N16       1.0  0.41895000000000004  0.05752  0.9361799999999999  1.0000
  N   N17       1.0  0.55702  0.0478  0.9298999999999998  1.0000
  N   N18       1.0  0.44954999999999995  0.08617  0.84032  1.0000
  N   N19       1.0  0.25219  0.91294  0.95443  1.0000
  N   N20       1.0  0.12096000000000001  0.90143  0.9243300000000001  1.0000
  N   N21       1.0  0.2504  0.8026  0.90154  1.0000
  N   N22       1.0  0.58199  0.55593  0.56447  1.0000
  N   N23       1.0  0.44397  0.54673  0.5711  1.0000
  N   N24       1.0  0.55284  0.5855  0.66036  1.0000
  O   O1        1.0  0.32807  0.38448  0.56221  1.0000
  O   O2        1.0  0.16277  0.41304  0.62397  1.0000
  O   O3        1.0  0.06679999999999998  0.06651  0.82729  1.0000
  O   O4        1.0  0.88719  0.08366  0.88196  1.0000
  O   O5        1.0  0.10347999999999999  0.45225  0.48235  1.0000
  O   O6        1.0  0.67046  0.88468  0.93695  1.0000
  O   O7        1.0  0.83805  0.91268  0.87604  1.0000
  O   O8        1.0  0.9352800000000001  0.56336  0.67309  1.0000
  O   O9        1.0  0.11366999999999998  0.58319  0.61811  1.0000
  O   O10       1.0  0.8966400000000001  0.9525500000000001  0.01597  1.0000
  O   O11       1.0  0.67174  0.6154  0.43748  1.0000
  O   O12       1.0  0.83772  0.58705  0.376  1.0000
  O   O13       1.0  0.9339100000000001  0.93654  0.17287  1.0000
  O   O14       1.0  0.11257  0.91685  0.11798  1.0000
  O   O15       1.0  0.8962799999999999  0.54777  0.51766  1.0000
  O   O16       1.0  0.33038  0.1153  0.06322  1.0000
  O   O17       1.0  0.16219  0.08742  0.12387  1.0000
  O   O18       1.0  0.06482000000000003  0.43657  0.32696  1.0000
  O   O19       1.0  0.8862800000000001  0.41682  0.38188999999999995  1.0000
  O   O20       1.0  0.10462  0.04762  0.9838300000000001  1.0000
