data_image0
_chemical_formula_structural       Cu8H128C72S16N64
_chemical_formula_sum              "Cu8 H128 C72 S16 N64"
_cell_length_a       13.52715
_cell_length_b       13.61933
_cell_length_c       24.77179
_cell_angle_alpha    90.0
_cell_angle_beta     90.0
_cell_angle_gamma    104.09781

_space_group_name_H-M_alt    "P 1"
_space_group_IT_number       1

loop_
  _space_group_symop_operation_xyz
  'x, y, z'

loop_
  _atom_site_type_symbol
  _atom_site_label
  _atom_site_symmetry_multiplicity
  _atom_site_fract_x
  _atom_site_fract_y
  _atom_site_fract_z
  _atom_site_occupancy
  Cu  Cu1       1.0  0.46041  0.28593  0.7550799999999999  1.0000
  Cu  Cu2       1.0  0.43375999999999987  0.02485  0.7930800000000001  1.0000
  Cu  Cu3       1.0  0.5396  0.21407  0.25508  1.0000
  Cu  Cu4       1.0  0.56624  0.4751499999999999  0.29308  1.0000
  Cu  Cu5       1.0  0.5396  0.7140699999999998  0.24492  1.0000
  Cu  Cu6       1.0  0.5662399999999999  0.9751499999999997  0.20692999999999998  1.0000
  Cu  Cu7       1.0  0.46041  0.78593  0.74493  1.0000
  Cu  Cu8       1.0  0.43375999999999987  0.52485  0.70693  1.0000
  H   H1        1.0  0.69651  0.25451  0.63624  1.0000
  H   H2        1.0  0.69677  0.38492  0.64132  1.0000
  H   H3        1.0  0.80702  0.3528399999999999  0.56308  1.0000
  H   H4        1.0  0.69936  0.26984  0.53436  1.0000
  H   H5        1.0  0.6102999999999997  0.41542  0.53324  1.0000
  H   H6        1.0  0.72344  0.4969199999999999  0.55519  1.0000
  H   H7        1.0  0.7080399999999999  0.3725  0.45045  1.0000
  H   H8        1.0  0.80998  0.47299999999999986  0.46939  1.0000
  H   H9        1.0  0.68392  0.58967  0.4666  1.0000
  H   H10       1.0  0.70863  0.53965  0.40326  1.0000
  H   H11       1.0  0.56455  0.08976999999999997  0.56077  1.0000
  H   H12       1.0  0.51675  0.96358  0.58768  1.0000
  H   H13       1.0  0.43252  0.028089999999999993  0.55463  1.0000
  H   H14       1.0  0.47625999999999996  0.28967  0.49761  1.0000
  H   H15       1.0  0.4221299999999999  0.16347999999999996  0.47518  1.0000
  H   H16       1.0  0.55749  0.20948  0.48013999999999996  1.0000
  H   H17       1.0  0.24399999999999997  0.0829  0.8439799999999998  1.0000
  H   H18       1.0  0.27920999999999996  0.21615999999999994  0.83596  1.0000
  H   H19       1.0  0.09059  0.21630999999999997  0.8391299999999999  1.0000
  H   H20       1.0  0.13581  0.17884  0.9003  1.0000
  H   H21       1.0  0.05951  0.00081  0.88426  1.0000
  H   H22       1.0  0.034019999999999995  0.02123999999999999  0.81641  1.0000
  H   H23       1.0  0.87744  0.9915299999999999  0.8776  1.0000
  H   H24       1.0  0.93194  0.10676  0.91033  1.0000
  H   H25       1.0  0.9362099999999998  0.19689  0.81901  1.0000
  H   H26       1.0  0.81108  0.13762  0.84096  1.0000
  H   H27       1.0  0.03177999999999999  0.19647999999999993  0.71443  1.0000
  H   H28       1.0  0.03790000000000001  0.28825  0.66199  1.0000
  H   H29       1.0  0.024759999999999976  0.3229599999999999  0.73069  1.0000
  H   H30       1.0  0.7932399999999997  0.85678  0.71994  1.0000
  H   H31       1.0  0.67348  0.76648  0.7293  1.0000
  H   H32       1.0  0.68885  0.85052  0.67314  1.0000
  H   H33       1.0  0.3034999999999999  0.24548999999999996  0.13624  1.0000
  H   H34       1.0  0.30323999999999995  0.11508  0.14132  1.0000
  H   H35       1.0  0.19298  0.14716  0.06308  1.0000
  H   H36       1.0  0.30063999999999996  0.23016  0.03436  1.0000
  H   H37       1.0  0.38970999999999995  0.08457999999999999  0.03324  1.0000
  H   H38       1.0  0.2765599999999999  0.00308  0.05518  1.0000
  H   H39       1.0  0.29196999999999995  0.1275  0.95045  1.0000
  H   H40       1.0  0.19001999999999997  0.026999999999999993  0.96939  1.0000
  H   H41       1.0  0.31609  0.91032  0.9666  1.0000
  H   H42       1.0  0.2913799999999999  0.9603499999999999  0.9032599999999998  1.0000
  H   H43       1.0  0.43545999999999985  0.4102299999999999  0.06076  1.0000
  H   H44       1.0  0.48326  0.53641  0.08767999999999998  1.0000
  H   H45       1.0  0.56749  0.4719  0.05462999999999999  1.0000
  H   H46       1.0  0.52374  0.21033  0.99761  1.0000
  H   H47       1.0  0.57787  0.33651999999999993  0.9751799999999999  1.0000
  H   H48       1.0  0.44252  0.29052  0.98014  1.0000
  H   H49       1.0  0.7559999999999999  0.41708999999999996  0.34397999999999995  1.0000
  H   H50       1.0  0.7207899999999998  0.28383  0.33596  1.0000
  H   H51       1.0  0.90941  0.28369  0.33913  1.0000
  H   H52       1.0  0.8642  0.32116  0.40029999999999993  1.0000
  H   H53       1.0  0.9405  0.4991799999999999  0.38426  1.0000
  H   H54       1.0  0.96598  0.47876  0.31641  1.0000
  H   H55       1.0  0.12255999999999997  0.50847  0.3776  1.0000
  H   H56       1.0  0.06806  0.39324  0.41033  1.0000
  H   H57       1.0  0.0638  0.30311  0.31901  1.0000
  H   H58       1.0  0.18892999999999996  0.36238  0.34096  1.0000
  H   H59       1.0  0.9682299999999998  0.30351999999999996  0.21442999999999998  1.0000
  H   H60       1.0  0.9620999999999997  0.21174999999999997  0.16199  1.0000
  H   H61       1.0  0.97525  0.17703999999999995  0.23069  1.0000
  H   H62       1.0  0.20676  0.64321  0.21994  1.0000
  H   H63       1.0  0.32652  0.7335199999999998  0.2293  1.0000
  H   H64       1.0  0.31116  0.64948  0.17314  1.0000
  H   H65       1.0  0.3034999999999999  0.74548  0.36376  1.0000
  H   H66       1.0  0.30323999999999995  0.61508  0.35867999999999994  1.0000
  H   H67       1.0  0.19297999999999998  0.6471599999999998  0.43692  1.0000
  H   H68       1.0  0.3006499999999998  0.7301599999999998  0.46564  1.0000
  H   H69       1.0  0.38970999999999995  0.58458  0.46676  1.0000
  H   H70       1.0  0.2765599999999999  0.50308  0.44482  1.0000
  H   H71       1.0  0.29196999999999995  0.62749  0.54956  1.0000
  H   H72       1.0  0.19001999999999997  0.527  0.53062  1.0000
  H   H73       1.0  0.31608  0.41033  0.53341  1.0000
  H   H74       1.0  0.29138  0.46034999999999987  0.59674  1.0000
  H   H75       1.0  0.4354599999999999  0.91023  0.43923999999999996  1.0000
  H   H76       1.0  0.4832499999999999  0.03642  0.41231999999999996  1.0000
  H   H77       1.0  0.56749  0.9718999999999999  0.44537  1.0000
  H   H78       1.0  0.52374  0.71033  0.50239  1.0000
  H   H79       1.0  0.57787  0.83652  0.52483  1.0000
  H   H80       1.0  0.44252  0.79051  0.51987  1.0000
  H   H81       1.0  0.7559999999999999  0.9170899999999997  0.15602  1.0000
  H   H82       1.0  0.7207999999999998  0.78383  0.16404  1.0000
  H   H83       1.0  0.90941  0.78369  0.16087  1.0000
  H   H84       1.0  0.8642  0.82116  0.0997  1.0000
  H   H85       1.0  0.9405  0.9991799999999998  0.11574  1.0000
  H   H86       1.0  0.96598  0.97876  0.18359  1.0000
  H   H87       1.0  0.12255999999999997  0.00847  0.12239999999999998  1.0000
  H   H88       1.0  0.06805999999999993  0.8932399999999998  0.08966999999999999  1.0000
  H   H89       1.0  0.06379999999999997  0.8031  0.18099  1.0000
  H   H90       1.0  0.18892999999999996  0.86238  0.15904  1.0000
  H   H91       1.0  0.9682299999999998  0.8035199999999998  0.28557  1.0000
  H   H92       1.0  0.9620999999999997  0.71175  0.33801  1.0000
  H   H93       1.0  0.9752499999999996  0.6770399999999999  0.26931  1.0000
  H   H94       1.0  0.20675999999999997  0.14322  0.28006  1.0000
  H   H95       1.0  0.32652  0.23351999999999998  0.2707  1.0000
  H   H96       1.0  0.31116  0.14948  0.32686  1.0000
  H   H97       1.0  0.69651  0.75451  0.86376  1.0000
  H   H98       1.0  0.69677  0.88492  0.85868  1.0000
  H   H99       1.0  0.80702  0.85284  0.93692  1.0000
  H   H100      1.0  0.69936  0.76983  0.96564  1.0000
  H   H101      1.0  0.6102999999999997  0.9154199999999998  0.96676  1.0000
  H   H102      1.0  0.72344  0.99691  0.94482  1.0000
  H   H103      1.0  0.7080399999999999  0.8725  0.04956  1.0000
  H   H104      1.0  0.80998  0.9729999999999998  0.030609999999999995  1.0000
  H   H105      1.0  0.68392  0.08967  0.0334  1.0000
  H   H106      1.0  0.70863  0.03965  0.09674  1.0000
  H   H107      1.0  0.56455  0.58977  0.9392399999999999  1.0000
  H   H108      1.0  0.51675  0.46358  0.91232  1.0000
  H   H109      1.0  0.43252  0.52809  0.9453700000000002  1.0000
  H   H110      1.0  0.47626999999999986  0.7896699999999999  0.00239  1.0000
  H   H111      1.0  0.42214  0.66348  0.02483  1.0000
  H   H112      1.0  0.55749  0.70948  0.01986  1.0000
  H   H113      1.0  0.24399999999999997  0.5829  0.65602  1.0000
  H   H114      1.0  0.2792099999999999  0.7161599999999998  0.66404  1.0000
  H   H115      1.0  0.09058999999999998  0.7163099999999999  0.66087  1.0000
  H   H116      1.0  0.13581  0.67884  0.5997  1.0000
  H   H117      1.0  0.05951  0.50082  0.61574  1.0000
  H   H118      1.0  0.03403  0.52123  0.68359  1.0000
  H   H119      1.0  0.87744  0.49153  0.6224  1.0000
  H   H120      1.0  0.93194  0.60676  0.58967  1.0000
  H   H121      1.0  0.9362099999999998  0.6968899999999998  0.68099  1.0000
  H   H122      1.0  0.81108  0.6376199999999997  0.65904  1.0000
  H   H123      1.0  0.03178000000000001  0.69648  0.78557  1.0000
  H   H124      1.0  0.03789999999999996  0.7882499999999998  0.83801  1.0000
  H   H125      1.0  0.02476  0.82296  0.76931  1.0000
  H   H126      1.0  0.7932399999999997  0.35678  0.78006  1.0000
  H   H127      1.0  0.67348  0.26648  0.7707  1.0000
  H   H128      1.0  0.6888399999999999  0.3505199999999999  0.82686  1.0000
  C   C1        1.0  0.49679  0.17697  0.64971  1.0000
  C   C2        1.0  0.67576  0.31768  0.6155  1.0000
  C   C3        1.0  0.72345  0.33827  0.55942  1.0000
  C   C4        1.0  0.69359  0.4275299999999999  0.53167  1.0000
  C   C5        1.0  0.72654  0.44479  0.47255  1.0000
  C   C6        1.0  0.67627  0.5192  0.44354  1.0000
  C   C7        1.0  0.52552  0.36571  0.39720999999999995  1.0000
  C   C8        1.0  0.50022  0.0375  0.58061  1.0000
  C   C9        1.0  0.48576999999999987  0.23022  0.46983  1.0000
  C   C10       1.0  0.2334399999999999  0.25346  0.73418  1.0000
  C   C11       1.0  0.21719000000000002  0.14839  0.83015  1.0000
  C   C12       1.0  0.11859999999999996  0.15527  0.85807  1.0000
  C   C13       1.0  0.03660999999999999  0.05499  0.85692  1.0000
  C   C14       1.0  0.92975  0.0663  0.87164  1.0000
  C   C15       1.0  0.8844599999999997  0.12371  0.8288500000000001  1.0000
  C   C16       1.0  0.72864  0.00715  0.77023  1.0000
  C   C17       1.0  0.05956  0.27651  0.70377  1.0000
  C   C18       1.0  0.71044  0.84341  0.7155999999999999  1.0000
  C   C19       1.0  0.50322  0.32303  0.14971  1.0000
  C   C20       1.0  0.32425  0.18231999999999995  0.11549999999999999  1.0000
  C   C21       1.0  0.27655  0.16172999999999996  0.05942  1.0000
  C   C22       1.0  0.30641  0.07247  0.03167  1.0000
  C   C23       1.0  0.27346  0.05520999999999999  0.97255  1.0000
  C   C24       1.0  0.32374  0.9808  0.9435399999999999  1.0000
  C   C25       1.0  0.47449  0.13428  0.8972099999999998  1.0000
  C   C26       1.0  0.49978  0.4625  0.08061  1.0000
  C   C27       1.0  0.51423  0.26978  0.96983  1.0000
  C   C28       1.0  0.7665599999999999  0.24654  0.23418  1.0000
  C   C29       1.0  0.78282  0.3516099999999999  0.33014  1.0000
  C   C30       1.0  0.8814  0.34473  0.35805999999999993  1.0000
  C   C31       1.0  0.9634  0.44501  0.35692  1.0000
  C   C32       1.0  0.07025999999999998  0.43369999999999986  0.37164  1.0000
  C   C33       1.0  0.11555  0.37628  0.32885  1.0000
  C   C34       1.0  0.27137  0.49285  0.27023  1.0000
  C   C35       1.0  0.9404499999999999  0.22349  0.20376  1.0000
  C   C36       1.0  0.28956999999999994  0.6565799999999999  0.2156  1.0000
  C   C37       1.0  0.50322  0.8230299999999998  0.35029  1.0000
  C   C38       1.0  0.3242499999999999  0.6823099999999999  0.3845  1.0000
  C   C39       1.0  0.27655  0.66173  0.44057999999999997  1.0000
  C   C40       1.0  0.30641  0.57247  0.46833  1.0000
  C   C41       1.0  0.27346  0.55521  0.52745  1.0000
  C   C42       1.0  0.32374  0.4807999999999999  0.55646  1.0000
  C   C43       1.0  0.4744900000000001  0.63428  0.60279  1.0000
  C   C44       1.0  0.49978  0.96249  0.41939  1.0000
  C   C45       1.0  0.51424  0.76978  0.53017  1.0000
  C   C46       1.0  0.7665599999999999  0.74654  0.26582  1.0000
  C   C47       1.0  0.78282  0.8516099999999998  0.16986  1.0000
  C   C48       1.0  0.88141  0.8447299999999998  0.14194  1.0000
  C   C49       1.0  0.9634  0.94501  0.14308  1.0000
  C   C50       1.0  0.07026000000000002  0.9337  0.12837  1.0000
  C   C51       1.0  0.11555  0.87628  0.17115  1.0000
  C   C52       1.0  0.27137  0.9928399999999998  0.22976999999999997  1.0000
  C   C53       1.0  0.94045  0.72348  0.29624  1.0000
  C   C54       1.0  0.28957  0.15659  0.2844  1.0000
  C   C55       1.0  0.49679  0.67697  0.8503  1.0000
  C   C56       1.0  0.67576  0.81768  0.8845  1.0000
  C   C57       1.0  0.72345  0.8382699999999998  0.94059  1.0000
  C   C58       1.0  0.69359  0.92753  0.96833  1.0000
  C   C59       1.0  0.72654  0.94479  0.027449999999999995  1.0000
  C   C60       1.0  0.67627  0.0192  0.056459999999999996  1.0000
  C   C61       1.0  0.52552  0.86571  0.10279  1.0000
  C   C62       1.0  0.50022  0.5375  0.9193899999999999  1.0000
  C   C63       1.0  0.48576999999999987  0.7302199999999998  0.030169999999999995  1.0000
  C   C64       1.0  0.2334399999999999  0.7534599999999998  0.76582  1.0000
  C   C65       1.0  0.21719  0.64839  0.66986  1.0000
  C   C66       1.0  0.11859999999999997  0.65527  0.64194  1.0000
  C   C67       1.0  0.036609999999999955  0.5549899999999999  0.64308  1.0000
  C   C68       1.0  0.92975  0.5663  0.62837  1.0000
  C   C69       1.0  0.8844599999999997  0.6237099999999999  0.67115  1.0000
  C   C70       1.0  0.72864  0.50715  0.72977  1.0000
  C   C71       1.0  0.059559999999999995  0.77651  0.79624  1.0000
  C   C72       1.0  0.71043  0.34341  0.7844  1.0000
  S   S1        1.0  0.53239  0.28443999999999997  0.61101  1.0000
  S   S2        1.0  0.53578  0.47375  0.43496  1.0000
  S   S3        1.0  0.20346  0.12884  0.7563000000000001  1.0000
  S   S4        1.0  0.86022  0.05456999999999999  0.76437  1.0000
  S   S5        1.0  0.46761  0.21555999999999997  0.11101  1.0000
  S   S6        1.0  0.4642199999999999  0.026249999999999996  0.93496  1.0000
  S   S7        1.0  0.7965399999999996  0.37116  0.2563  1.0000
  S   S8        1.0  0.13979  0.44543  0.26437  1.0000
  S   S9        1.0  0.46761  0.71556  0.38898999999999995  1.0000
  S   S10       1.0  0.4642199999999999  0.52624  0.56504  1.0000
  S   S11       1.0  0.79654  0.87116  0.24371  1.0000
  S   S12       1.0  0.13978999999999994  0.94543  0.23563  1.0000
  S   S13       1.0  0.53239  0.78444  0.889  1.0000
  S   S14       1.0  0.5357799999999999  0.9737499999999998  0.06504  1.0000
  S   S15       1.0  0.20345999999999997  0.62884  0.74371  1.0000
  S   S16       1.0  0.86022  0.55457  0.73563  1.0000
  N   N1        1.0  0.46935  0.17262999999999998  0.7022499999999999  1.0000
  N   N2        1.0  0.43786999999999987  0.07392  0.71564  1.0000
  N   N3        1.0  0.44426  0.013499999999999996  0.67456  1.0000
  N   N4        1.0  0.48318  0.07772  0.63275  1.0000
  N   N5        1.0  0.54418  0.36022999999999994  0.34407  1.0000
  N   N6        1.0  0.5233  0.26149  0.33007  1.0000
  N   N7        1.0  0.48928  0.20084  0.37242  1.0000
  N   N8        1.0  0.4862399999999999  0.26696  0.41523  1.0000
  N   N9        1.0  0.32752  0.31566  0.7319399999999999  1.0000
  N   N10       1.0  0.32014999999999993  0.40175  0.7070799999999999  1.0000
  N   N11       1.0  0.22436999999999996  0.39812  0.69202  1.0000
  N   N12       1.0  0.16898999999999997  0.30359  0.7086199999999999  1.0000
  N   N13       1.0  0.66348  0.05103  0.79501  1.0000
  N   N14       1.0  0.5696399999999998  0.9872899999999999  0.78928  1.0000
  N   N15       1.0  0.57439  0.90597  0.75951  1.0000
  N   N16       1.0  0.67683  0.91641  0.74879  1.0000
  N   N17       1.0  0.53066  0.3273699999999999  0.20225000000000004  1.0000
  N   N18       1.0  0.56213  0.42608  0.21563999999999997  1.0000
  N   N19       1.0  0.5557399999999998  0.4864999999999999  0.17455999999999997  1.0000
  N   N20       1.0  0.51682  0.42227  0.13275  1.0000
  N   N21       1.0  0.45582  0.13977  0.8440699999999999  1.0000
  N   N22       1.0  0.4767099999999999  0.23849999999999993  0.83007  1.0000
  N   N23       1.0  0.51072  0.29916  0.87242  1.0000
  N   N24       1.0  0.51376  0.23304  0.91523  1.0000
  N   N25       1.0  0.67248  0.18434  0.23194  1.0000
  N   N26       1.0  0.67986  0.09824999999999999  0.20708  1.0000
  N   N27       1.0  0.7756299999999998  0.10188  0.19202  1.0000
  N   N28       1.0  0.8310199999999998  0.19640999999999995  0.20861  1.0000
  N   N29       1.0  0.33652  0.44896999999999987  0.29501  1.0000
  N   N30       1.0  0.43037  0.51271  0.28928  1.0000
  N   N31       1.0  0.42561999999999994  0.59403  0.25951  1.0000
  N   N32       1.0  0.32318  0.58359  0.24879  1.0000
  N   N33       1.0  0.53066  0.82737  0.29775  1.0000
  N   N34       1.0  0.56213  0.9260799999999999  0.28436  1.0000
  N   N35       1.0  0.5557399999999999  0.9864999999999999  0.32544  1.0000
  N   N36       1.0  0.5168299999999999  0.9222699999999998  0.36724999999999997  1.0000
  N   N37       1.0  0.45581999999999995  0.6397699999999998  0.65593  1.0000
  N   N38       1.0  0.4767099999999999  0.7385  0.66994  1.0000
  N   N39       1.0  0.5107299999999999  0.7991599999999998  0.62758  1.0000
  N   N40       1.0  0.5137599999999999  0.7330399999999998  0.58477  1.0000
  N   N41       1.0  0.67248  0.6843399999999998  0.26806  1.0000
  N   N42       1.0  0.67986  0.59825  0.29292  1.0000
  N   N43       1.0  0.77564  0.60188  0.30798  1.0000
  N   N44       1.0  0.8310199999999998  0.69641  0.29139  1.0000
  N   N45       1.0  0.3365299999999999  0.9489699999999998  0.20499  1.0000
  N   N46       1.0  0.43037  0.01271  0.21072  1.0000
  N   N47       1.0  0.42561999999999994  0.09403  0.24049  1.0000
  N   N48       1.0  0.32318  0.08359  0.25121  1.0000
  N   N49       1.0  0.46935000000000004  0.67263  0.79775  1.0000
  N   N50       1.0  0.43786999999999987  0.57392  0.7843600000000001  1.0000
  N   N51       1.0  0.44426  0.5135  0.82544  1.0000
  N   N52       1.0  0.48318  0.57772  0.86725  1.0000
  N   N53       1.0  0.54418  0.86023  0.15593  1.0000
  N   N54       1.0  0.5232999999999999  0.7614899999999998  0.16993  1.0000
  N   N55       1.0  0.48928  0.70084  0.12758  1.0000
  N   N56       1.0  0.4862399999999999  0.76696  0.08477  1.0000
  N   N57       1.0  0.32752999999999993  0.81566  0.76806  1.0000
  N   N58       1.0  0.32014999999999993  0.9017499999999999  0.79292  1.0000
  N   N59       1.0  0.2243699999999999  0.8981199999999998  0.8079799999999999  1.0000
  N   N60       1.0  0.16898999999999997  0.80359  0.79139  1.0000
  N   N61       1.0  0.66348  0.55103  0.70499  1.0000
  N   N62       1.0  0.5696399999999998  0.48729  0.71072  1.0000
  N   N63       1.0  0.5743899999999998  0.40596999999999994  0.7404899999999999  1.0000
  N   N64       1.0  0.67683  0.4164099999999999  0.75122  1.0000
