data_image0
_chemical_formula_structural       Co16H80C148O80
_chemical_formula_sum              "Co16 H80 C148 O80"
_cell_length_a       12.4398
_cell_length_b       26.50965
_cell_length_c       26.54465
_cell_angle_alpha    90.00633
_cell_angle_beta     89.98055
_cell_angle_gamma    89.99547

_symmetry_space_group_name_H-M    'P 1'
_symmetry_Int_Tables_number       1

loop_
  _symmetry_equiv_pos_as_xyz
  'x,y,z'

loop_
  _atom_site_type_symbol
  _atom_site_label
  _atom_site_symmetry_multiplicity
  _atom_site_fract_x
  _atom_site_fract_y
  _atom_site_fract_z
  _atom_site_occupancy
  Co  Co1       1.0  0.44036999999999993  0.49593  0.029330000000000002  1.0000
  Co  Co2       1.0  0.5594  0.50409  0.52933  1.0000
  Co  Co3       1.0  0.55946  0.99588  0.47062000000000004  1.0000
  Co  Co4       1.0  0.44056  0.00411  0.9705700000000002  1.0000
  Co  Co5       1.0  0.55944  0.50412  0.9705700000000002  1.0000
  Co  Co6       1.0  0.44067  0.4959  0.47062000000000004  1.0000
  Co  Co7       1.0  0.44053999999999993  0.00413  0.52943  1.0000
  Co  Co8       1.0  0.55932  0.9959  0.0294  1.0000
  Co  Co9       1.0  0.62136  0.22747  0.24995  1.0000
  Co  Co10      1.0  0.50076  0.28633  0.24998  1.0000
  Co  Co11      1.0  0.37857999999999997  0.77263  0.74998  1.0000
  Co  Co12      1.0  0.49921  0.7137100000000001  0.7499600000000001  1.0000
  Co  Co13      1.0  0.37875  0.7275  0.25001  1.0000
  Co  Co14      1.0  0.49919  0.78629  0.24997  1.0000
  Co  Co15      1.0  0.62129  0.27251  0.75  1.0000
  Co  Co16      1.0  0.50058  0.21364  0.75004  1.0000
  H   H1        1.0  0.57863  0.38400000000000006  0.13073  1.0000
  H   H2        1.0  0.83091  0.27347  0.12061  1.0000
  H   H3        1.0  0.7950899999999999  0.38616000000000006  0.00394  1.0000
  H   H4        1.0  0.90695  0.2352  0.05361  1.0000
  H   H5        1.0  0.01259  0.27392  0.07821000000000003  1.0000
  H   H6        1.0  0.05831  0.17228  0.02577  1.0000
  H   H7        1.0  0.16032  0.19576  0.9842700000000002  1.0000
  H   H8        1.0  0.24444999999999997  0.13102  0.021130000000000003  1.0000
  H   H9        1.0  0.28029  0.24743  0.13386  1.0000
  H   H10       1.0  0.49944  0.12153  0.13027  1.0000
  H   H11       1.0  0.42095999999999995  0.61601  0.6309300000000002  1.0000
  H   H12       1.0  0.16914  0.72673  0.62054  1.0000
  H   H13       1.0  0.20494  0.61366  0.50414  1.0000
  H   H14       1.0  0.09289  0.76477  0.5537  1.0000
  H   H15       1.0  0.98733  0.72592  0.5781900000000001  1.0000
  H   H16       1.0  0.94305  0.8282  0.52484  1.0000
  H   H17       1.0  0.83855  0.80395  0.4852  1.0000
  H   H18       1.0  0.75584  0.86911  0.52131  1.0000
  H   H19       1.0  0.72009  0.7527400000000001  0.63406  1.0000
  H   H20       1.0  0.50024  0.87833  0.6302900000000001  1.0000
  H   H21       1.0  0.42095999999999995  0.88407  0.3691  1.0000
  H   H22       1.0  0.16924  0.77331  0.3795  1.0000
  H   H23       1.0  0.20495  0.88629  0.49596  1.0000
  H   H24       1.0  0.09268  0.7352000000000001  0.4464200000000001  1.0000
  H   H25       1.0  0.98713  0.77407  0.42196000000000006  1.0000
  H   H26       1.0  0.94125  0.67238  0.47448  1.0000
  H   H27       1.0  0.83935  0.69593  0.516  1.0000
  H   H28       1.0  0.75517  0.6311000000000001  0.4789400000000001  1.0000
  H   H29       1.0  0.71974  0.7474400000000001  0.36615  1.0000
  H   H30       1.0  0.50032  0.62172  0.36963  1.0000
  H   H31       1.0  0.57881  0.11606  0.86922  1.0000
  H   H32       1.0  0.831  0.22666  0.8793300000000001  1.0000
  H   H33       1.0  0.79498  0.11384000000000001  0.9959300000000002  1.0000
  H   H34       1.0  0.90721  0.26487  0.94643  1.0000
  H   H35       1.0  0.01309  0.2262  0.92186  1.0000
  H   H36       1.0  0.058539999999999995  0.32776  0.9742600000000002  1.0000
  H   H37       1.0  0.1601  0.30432  0.01603  1.0000
  H   H38       1.0  0.24495  0.36908  0.97904  1.0000
  H   H39       1.0  0.28059  0.25265  0.86631  1.0000
  H   H40       1.0  0.49964  0.3785  0.86954  1.0000
  H   H41       1.0  0.42158999999999996  0.61635  0.8688700000000001  1.0000
  H   H42       1.0  0.16894  0.72664  0.87938  1.0000
  H   H43       1.0  0.20584  0.61371  0.99583  1.0000
  H   H44       1.0  0.09302  0.7647800000000001  0.94639  1.0000
  H   H45       1.0  0.98752  0.7259500000000001  0.9218300000000001  1.0000
  H   H46       1.0  0.9415999999999999  0.82768  0.97428  1.0000
  H   H47       1.0  0.83974  0.80415  0.01585  1.0000
  H   H48       1.0  0.7552799999999998  0.86901  0.9789100000000002  1.0000
  H   H49       1.0  0.71977  0.7526  0.86618  1.0000
  H   H50       1.0  0.50041  0.87841  0.86967  1.0000
  H   H51       1.0  0.57895  0.38391000000000003  0.36902  1.0000
  H   H52       1.0  0.8309199999999999  0.27327  0.3794500000000001  1.0000
  H   H53       1.0  0.79484  0.3863500000000001  0.49583  1.0000
  H   H54       1.0  0.90707  0.23525  0.44631000000000004  1.0000
  H   H55       1.0  0.01263  0.27408  0.42181  1.0000
  H   H56       1.0  0.05686  0.17176  0.47523  1.0000
  H   H57       1.0  0.16148999999999997  0.19605000000000003  0.51477  1.0000
  H   H58       1.0  0.24428999999999998  0.13088  0.4787  1.0000
  H   H59       1.0  0.27983  0.24722  0.36591  1.0000
  H   H60       1.0  0.49988  0.1217  0.3697100000000001  1.0000
  H   H61       1.0  0.57901  0.11599  0.63095  1.0000
  H   H62       1.0  0.8308  0.22673  0.62054  1.0000
  H   H63       1.0  0.7950899999999999  0.11372000000000002  0.50412  1.0000
  H   H64       1.0  0.90735  0.26481  0.55358  1.0000
  H   H65       1.0  0.01294  0.22597  0.57805  1.0000
  H   H66       1.0  0.05877999999999999  0.3276100000000001  0.52552  1.0000
  H   H67       1.0  0.16063  0.30408  0.48398000000000013  1.0000
  H   H68       1.0  0.2448  0.36891000000000007  0.52106  1.0000
  H   H69       1.0  0.2803  0.25256  0.63382  1.0000
  H   H70       1.0  0.49968  0.37831  0.63035  1.0000
  H   H71       1.0  0.42090999999999995  0.88397  0.13085  1.0000
  H   H72       1.0  0.169  0.7732700000000001  0.12065  1.0000
  H   H73       1.0  0.20482  0.88615  0.0041  1.0000
  H   H74       1.0  0.09279  0.73509  0.05361  1.0000
  H   H75       1.0  0.98692  0.77376  0.07816  1.0000
  H   H76       1.0  0.94144  0.67217  0.02571  1.0000
  H   H77       1.0  0.8398  0.69569  0.9840000000000002  1.0000
  H   H78       1.0  0.7551099999999998  0.63097  0.02097  1.0000
  H   H79       1.0  0.71964  0.74735  0.1337  1.0000
  H   H80       1.0  0.5002  0.62161  0.1304  1.0000
  C   C1        1.0  0.65976  0.30291  0.17697  1.0000
  C   C2        1.0  0.7020999999999998  0.32682  0.13029  1.0000
  C   C3        1.0  0.64774  0.36872000000000005  0.11098  1.0000
  C   C4        1.0  0.7907399999999999  0.30615  0.10466  1.0000
  C   C5        1.0  0.68196  0.39037  0.0656  1.0000
  C   C6        1.0  0.8232399999999999  0.32776  0.05905  1.0000
  C   C7        1.0  0.76948  0.37002  0.03963  1.0000
  C   C8        1.0  0.62099  0.4334  0.043760000000000014  1.0000
  C   C9        1.0  0.96349  0.26584  0.0448  1.0000
  C   C10       1.0  0.10671  0.20543000000000003  0.01574  1.0000
  C   C11       1.0  0.25165  0.19258  0.07538  1.0000
  C   C12       1.0  0.28483  0.14717  0.0536  1.0000
  C   C13       1.0  0.30625  0.21202  0.11723000000000001  1.0000
  C   C14       1.0  0.37472  0.12190000000000001  0.07372  1.0000
  C   C15       1.0  0.39511  0.1866  0.13706  1.0000
  C   C16       1.0  0.42976  0.1412  0.11542  1.0000
  C   C17       1.0  0.41582  0.07557  0.048540000000000014  1.0000
  C   C18       1.0  0.45423  0.21029  0.17972  1.0000
  C   C19       1.0  0.34021  0.69717  0.6769900000000001  1.0000
  C   C20       1.0  0.29768  0.67322  0.6303700000000001  1.0000
  C   C21       1.0  0.35184999999999994  0.63122  0.6111500000000002  1.0000
  C   C22       1.0  0.20917  0.69396  0.60468  1.0000
  C   C23       1.0  0.31781  0.60954  0.5657700000000001  1.0000
  C   C24       1.0  0.17673  0.67226  0.5591  1.0000
  C   C25       1.0  0.23039  0.62991  0.53979  1.0000
  C   C26       1.0  0.37888  0.56658  0.54383  1.0000
  C   C27       1.0  0.03654  0.73409  0.5448200000000001  1.0000
  C   C28       1.0  0.89406  0.7949  0.51612  1.0000
  C   C29       1.0  0.74957  0.8079  0.57598  1.0000
  C   C30       1.0  0.7153799999999999  0.85293  0.55376  1.0000
  C   C31       1.0  0.69418  0.7881600000000001  0.61746  1.0000
  C   C32       1.0  0.62495  0.87799  0.5736200000000001  1.0000
  C   C33       1.0  0.60481  0.81338  0.6370500000000001  1.0000
  C   C34       1.0  0.56994  0.85871  0.61536  1.0000
  C   C35       1.0  0.58405  0.92436  0.54849  1.0000
  C   C36       1.0  0.54568  0.7897  0.67969  1.0000
  C   C37       1.0  0.34019999999999995  0.8028600000000001  0.32303  1.0000
  C   C38       1.0  0.29771  0.8268200000000001  0.36967  1.0000
  C   C39       1.0  0.35188  0.86881  0.38889000000000007  1.0000
  C   C40       1.0  0.20922  0.8060700000000002  0.39537  1.0000
  C   C41       1.0  0.3178  0.89045  0.43429  1.0000
  C   C42       1.0  0.17673999999999998  0.8277400000000001  0.44097  1.0000
  C   C43       1.0  0.2304  0.87006  0.4603  1.0000
  C   C44       1.0  0.37882  0.93341  0.45625  1.0000
  C   C45       1.0  0.03636  0.7659100000000001  0.45532  1.0000
  C   C46       1.0  0.89292  0.7055800000000001  0.4844900000000001  1.0000
  C   C47       1.0  0.7481  0.69266  0.42471  1.0000
  C   C48       1.0  0.71481  0.64726  0.44647  1.0000
  C   C49       1.0  0.69367  0.71207  0.38279000000000013  1.0000
  C   C50       1.0  0.62501  0.62196  0.42629  1.0000
  C   C51       1.0  0.60481  0.68667  0.36293  1.0000
  C   C52       1.0  0.57003  0.6412900000000001  0.38458  1.0000
  C   C53       1.0  0.58421  0.57558  0.4514600000000001  1.0000
  C   C54       1.0  0.54569  0.7103100000000001  0.32026000000000004  1.0000
  C   C55       1.0  0.65977  0.19716  0.82302  1.0000
  C   C56       1.0  0.7021699999999998  0.17327  0.86969  1.0000
  C   C57       1.0  0.64795  0.1313  0.88896  1.0000
  C   C58       1.0  0.79082  0.19398  0.8952900000000003  1.0000
  C   C59       1.0  0.68214  0.10963  0.93431  1.0000
  C   C60       1.0  0.8233399999999998  0.17233  0.94088  1.0000
  C   C61       1.0  0.76956  0.13005  0.9602700000000001  1.0000
  C   C62       1.0  0.62128  0.06659  0.95624  1.0000
  C   C63       1.0  0.9637  0.23421  0.95522  1.0000
  C   C64       1.0  0.10687  0.29463  0.9844200000000002  1.0000
  C   C65       1.0  0.25201  0.30745000000000006  0.9248100000000002  1.0000
  C   C66       1.0  0.28526  0.35287  0.9465500000000002  1.0000
  C   C67       1.0  0.30649  0.28807  0.8829  1.0000
  C   C68       1.0  0.37495  0.37816  0.92626  1.0000
  C   C69       1.0  0.39523  0.31346  0.86292  1.0000
  C   C70       1.0  0.43001  0.35885  0.88452  1.0000
  C   C71       1.0  0.41581  0.4245  0.9514200000000003  1.0000
  C   C72       1.0  0.45423  0.28977  0.82023  1.0000
  C   C73       1.0  0.34021  0.69726  0.82294  1.0000
  C   C74       1.0  0.2979  0.67337  0.8695900000000001  1.0000
  C   C75       1.0  0.35240999999999995  0.63143  0.8887200000000002  1.0000
  C   C76       1.0  0.20924  0.69396  0.89528  1.0000
  C   C77       1.0  0.31848  0.60971  0.9340700000000001  1.0000
  C   C78       1.0  0.17699  0.67227  0.9408900000000002  1.0000
  C   C79       1.0  0.23097  0.6299800000000001  0.9601500000000002  1.0000
  C   C80       1.0  0.37933  0.56663  0.95582  1.0000
  C   C81       1.0  0.03661  0.73409  0.95523  1.0000
  C   C82       1.0  0.89323  0.79453  0.9843100000000001  1.0000
  C   C83       1.0  0.7482199999999999  0.80742  0.9246700000000001  1.0000
  C   C84       1.0  0.71497  0.8528300000000001  0.9464400000000002  1.0000
  C   C85       1.0  0.6937  0.7879900000000001  0.8828000000000001  1.0000
  C   C86       1.0  0.62511  0.8780900000000001  0.9262900000000001  1.0000
  C   C87       1.0  0.60483  0.81339  0.86295  1.0000
  C   C88       1.0  0.5701  0.85878  0.88458  1.0000
  C   C89       1.0  0.58414  0.9244400000000003  0.95145  1.0000
  C   C90       1.0  0.54575  0.78971  0.82027  1.0000
  C   C91       1.0  0.65976  0.30282  0.32299  1.0000
  C   C92       1.0  0.7022699999999998  0.32673  0.36962000000000006  1.0000
  C   C93       1.0  0.6480699999999999  0.36874  0.38881  1.0000
  C   C94       1.0  0.79079  0.30602  0.3953  1.0000
  C   C95       1.0  0.68211  0.39043  0.4341700000000001  1.0000
  C   C96       1.0  0.8232  0.32772000000000007  0.44089000000000006  1.0000
  C   C97       1.0  0.76949  0.37007  0.4601800000000001  1.0000
  C   C98       1.0  0.6211  0.43342  0.45607  1.0000
  C   C99       1.0  0.96344  0.26592  0.45518000000000003  1.0000
  C   C100      1.0  0.10588999999999998  0.20506  0.48388  1.0000
  C   C101      1.0  0.25045  0.19206  0.42401  1.0000
  C   C102      1.0  0.28473  0.14707  0.44626  1.0000
  C   C103      1.0  0.30581  0.21181  0.38252  1.0000
  C   C104      1.0  0.37515  0.12201  0.42638  1.0000
  C   C105      1.0  0.39526  0.18662000000000004  0.36294  1.0000
  C   C106      1.0  0.43017  0.14132  0.38465  1.0000
  C   C107      1.0  0.41594  0.07562  0.45151  1.0000
  C   C108      1.0  0.45435  0.21033000000000004  0.32029  1.0000
  C   C109      1.0  0.65979  0.19714  0.677  1.0000
  C   C110      1.0  0.70229  0.1732  0.6303600000000003  1.0000
  C   C111      1.0  0.64809  0.13122  0.61114  1.0000
  C   C112      1.0  0.7908  0.19397  0.60467  1.0000
  C   C113      1.0  0.68219  0.10956  0.56576  1.0000
  C   C114      1.0  0.82329  0.17228  0.55908  1.0000
  C   C115      1.0  0.76961  0.12995  0.53977  1.0000
  C   C116      1.0  0.62117  0.06658  0.5438200000000001  1.0000
  C   C117      1.0  0.96367  0.2341  0.54469  1.0000
  C   C118      1.0  0.10709999999999999  0.29441  0.5155  1.0000
  C   C119      1.0  0.25191  0.30735000000000007  0.57528  1.0000
  C   C120      1.0  0.28519  0.35275  0.55353  1.0000
  C   C121      1.0  0.30634  0.28794  0.6171900000000001  1.0000
  C   C122      1.0  0.37499  0.37806000000000006  0.57369  1.0000
  C   C123      1.0  0.39519999999999994  0.31334  0.6370500000000001  1.0000
  C   C124      1.0  0.42998  0.35872  0.6154100000000002  1.0000
  C   C125      1.0  0.41582  0.42443  0.54852  1.0000
  C   C126      1.0  0.45432  0.28969  0.6797400000000002  1.0000
  C   C127      1.0  0.34016  0.80282  0.17699  1.0000
  C   C128      1.0  0.29769  0.82672  0.13034  1.0000
  C   C129      1.0  0.35181  0.86872  0.11110000000000002  1.0000
  C   C130      1.0  0.2091  0.80598  0.10471  1.0000
  C   C131      1.0  0.31768  0.8903800000000001  0.06573  1.0000
  C   C132      1.0  0.17656  0.82765  0.05914  1.0000
  C   C133      1.0  0.23025  0.8699700000000001  0.03978000000000001  1.0000
  C   C134      1.0  0.37864  0.9334  0.04379  1.0000
  C   C135      1.0  0.0363  0.76575  0.0448  1.0000
  C   C136      1.0  0.89312  0.70533  0.01559  1.0000
  C   C137      1.0  0.74801  0.69255  0.07522  1.0000
  C   C138      1.0  0.71475  0.6471300000000001  0.05348  1.0000
  C   C139      1.0  0.6935  0.71196  0.11711  1.0000
  C   C140      1.0  0.62496  0.62185  0.07371  1.0000
  C   C141      1.0  0.60468  0.68659  0.13703  1.0000
  C   C142      1.0  0.5699  0.64119  0.11544  1.0000
  C   C143      1.0  0.58401  0.57553  0.04853  1.0000
  C   C144      1.0  0.54565  0.71025  0.17972  1.0000
  C   C145      1.0  0.03478  0.25003  4e-05  1.0000
  C   C146      1.0  0.96522  0.7500800000000001  0.50017  1.0000
  C   C147      1.0  0.96523  0.74992  0.9999700000000001  1.0000
  C   C148      1.0  0.03478  0.24992000000000006  0.49982000000000004  1.0000
  O   O1        1.0  0.70351  0.26275  0.19453000000000004  1.0000
  O   O2        1.0  0.5397  0.18941000000000002  0.19675  1.0000
  O   O3        1.0  0.57668  0.32355  0.19694  1.0000
  O   O4        1.0  0.41684  0.25204  0.19699  1.0000
  O   O5        1.0  0.90603  0.31048  0.029600000000000005  1.0000
  O   O6        1.0  0.53373  0.44704  0.06568  1.0000
  O   O7        1.0  0.65638  0.45425  0.00341  1.0000
  O   O8        1.0  0.37052  0.0608  0.007620000000000002  1.0000
  O   O9        1.0  0.49689999999999995  0.05303000000000001  0.06815  1.0000
  O   O10       1.0  0.16842  0.22207000000000002  0.05849000000000001  1.0000
  O   O11       1.0  0.2965  0.73735  0.6945400000000002  1.0000
  O   O12       1.0  0.4602  0.8106000000000001  0.6967300000000002  1.0000
  O   O13       1.0  0.42326  0.67652  0.69694  1.0000
  O   O14       1.0  0.58312  0.7480000000000001  0.6970000000000001  1.0000
  O   O15       1.0  0.09417  0.68953  0.52953  1.0000
  O   O16       1.0  0.46641  0.55314  0.56561  1.0000
  O   O17       1.0  0.34338  0.54563  0.50357  1.0000
  O   O18       1.0  0.62952  0.93917  0.50761  1.0000
  O   O19       1.0  0.5031  0.94696  0.56819  1.0000
  O   O20       1.0  0.83532  0.77937  0.56023  1.0000
  O   O21       1.0  0.2965  0.76267  0.30550000000000005  1.0000
  O   O22       1.0  0.46023  0.6893900000000001  0.30327  1.0000
  O   O23       1.0  0.42323  0.82349  0.30303  1.0000
  O   O24       1.0  0.58303  0.75203  0.30296  1.0000
  O   O25       1.0  0.09417  0.81045  0.47055  1.0000
  O   O26       1.0  0.46634  0.94686  0.4344500000000001  1.0000
  O   O27       1.0  0.34332  0.95432  0.49654  1.0000
  O   O28       1.0  0.6296  0.56083  0.49237  1.0000
  O   O29       1.0  0.50323  0.55298  0.4318100000000001  1.0000
  O   O30       1.0  0.8312899999999999  0.7221600000000001  0.44167  1.0000
  O   O31       1.0  0.70354  0.23733  0.80546  1.0000
  O   O32       1.0  0.53977  0.31063  0.80324  1.0000
  O   O33       1.0  0.57675  0.17652  0.8030400000000001  1.0000
  O   O34       1.0  0.41684  0.24804000000000004  0.8029500000000003  1.0000
  O   O35       1.0  0.9061799999999999  0.18953  0.9703400000000002  1.0000
  O   O36       1.0  0.53389  0.05305  0.9344000000000002  1.0000
  O   O37       1.0  0.65672  0.0457  0.9965400000000002  1.0000
  O   O38       1.0  0.37059  0.43921  0.99241  1.0000
  O   O39       1.0  0.49677  0.44708  0.93174  1.0000
  O   O40       1.0  0.16885  0.27793  0.9417300000000001  1.0000
  O   O41       1.0  0.29648  0.7374300000000001  0.80539  1.0000
  O   O42       1.0  0.46028  0.81061  0.8032600000000002  1.0000
  O   O43       1.0  0.4232  0.67656  0.80297  1.0000
  O   O44       1.0  0.58311  0.74797  0.8029900000000002  1.0000
  O   O45       1.0  0.09429999999999998  0.6895  0.9704600000000001  1.0000
  O   O46       1.0  0.46707999999999994  0.55319  0.93419  1.0000
  O   O47       1.0  0.34328999999999993  0.54548  0.99581  1.0000
  O   O48       1.0  0.62947  0.93923  0.99237  1.0000
  O   O49       1.0  0.50308  0.94699  0.9318400000000001  1.0000
  O   O50       1.0  0.8314299999999999  0.77792  0.9415700000000002  1.0000
  O   O51       1.0  0.7034599999999999  0.26265  0.30542000000000014  1.0000
  O   O52       1.0  0.53979  0.18943  0.30323  1.0000
  O   O53       1.0  0.57673  0.32349  0.30304  1.0000
  O   O54       1.0  0.41686  0.25205  0.303  1.0000
  O   O55       1.0  0.90578  0.31047  0.47046  1.0000
  O   O56       1.0  0.53353  0.44684  0.43435  1.0000
  O   O57       1.0  0.6567299999999999  0.45442000000000005  0.49627000000000004  1.0000
  O   O58       1.0  0.37048  0.06084  0.49240000000000006  1.0000
  O   O59       1.0  0.49684999999999996  0.05298  0.43182  1.0000
  O   O60       1.0  0.16453  0.22049  0.43971  1.0000
  O   O61       1.0  0.70354  0.23733  0.69451  1.0000
  O   O62       1.0  0.53979  0.31061  0.69672  1.0000
  O   O63       1.0  0.57676  0.17651  0.6969900000000002  1.0000
  O   O64       1.0  0.41698999999999997  0.24796  0.69704  1.0000
  O   O65       1.0  0.9059  0.18954  0.52951  1.0000
  O   O66       1.0  0.53364  0.05313  0.5656000000000001  1.0000
  O   O67       1.0  0.6567  0.04566  0.50355  1.0000
  O   O68       1.0  0.37043  0.43918  0.50761  1.0000
  O   O69       1.0  0.49682  0.44702  0.56816  1.0000
  O   O70       1.0  0.16875  0.27783  0.55831  1.0000
  O   O71       1.0  0.29648  0.76264  0.19455  1.0000
  O   O72       1.0  0.46016999999999997  0.6893800000000001  0.19675  1.0000
  O   O73       1.0  0.42317  0.82348  0.19696  1.0000
  O   O74       1.0  0.58306  0.7519800000000001  0.19700000000000006  1.0000
  O   O75       1.0  0.0938  0.81042  0.02967  1.0000
  O   O76       1.0  0.46615  0.9468900000000002  0.06556  1.0000
  O   O77       1.0  0.34315  0.95434  0.003550000000000001  1.0000
  O   O78       1.0  0.6296  0.56075  0.00766  1.0000
  O   O79       1.0  0.50281  0.55299  0.06808  1.0000
  O   O80       1.0  0.8312199999999998  0.72205  0.058310000000000015  1.0000
