data_image0
_chemical_formula_structural       Cu12H32W8C96N80
_chemical_formula_sum              "Cu12 H32 W8 C96 N80"
_cell_length_a       11.61483
_cell_length_b       20.16031
_cell_length_c       20.14536
_cell_angle_alpha    77.65761
_cell_angle_beta     73.24569
_cell_angle_gamma    73.18849

_symmetry_space_group_name_H-M    'P 1'
_symmetry_Int_Tables_number       1

loop_
  _symmetry_equiv_pos_as_xyz
  'x,y,z'

loop_
  _atom_site_type_symbol
  _atom_site_label
  _atom_site_symmetry_multiplicity
  _atom_site_fract_x
  _atom_site_fract_y
  _atom_site_fract_z
  _atom_site_occupancy
  Cu  Cu1       1.0  0.84575  0.62128  0.11739  1.0000
  Cu  Cu2       1.0  0.41667000000000004  0.11708999999999999  0.62138  1.0000
  Cu  Cu3       1.0  0.65246  0.38409  0.87919  1.0000
  Cu  Cu4       1.0  0.08368999999999992  0.87879  0.38355  1.0000
  Cu  Cu5       1.0  0.15425000000000008  0.37872999999999996  0.88261  1.0000
  Cu  Cu6       1.0  0.5833300000000001  0.8829199999999999  0.37862  1.0000
  Cu  Cu7       1.0  0.34754  0.61591  0.12081000000000001  1.0000
  Cu  Cu8       1.0  0.9163199999999999  0.12121  0.61645  1.0000
  Cu  Cu9       1.0  0.11466000000000011  0.88581  0.88603  1.0000
  Cu  Cu10      1.0  0.38837  0.61378  0.61362  1.0000
  Cu  Cu11      1.0  0.8853399999999999  0.11418999999999999  0.11397000000000002  1.0000
  Cu  Cu12      1.0  0.6116399999999997  0.38622000000000006  0.38638  1.0000
  H   H1        1.0  0.2776999999999999  0.49871  0.24084000000000003  1.0000
  H   H2        1.0  0.09179999999999999  0.44445000000000007  0.2874  1.0000
  H   H3        1.0  0.90875  0.49857  0.23264  1.0000
  H   H4        1.0  0.09669000000000004  0.64168  0.09999  1.0000
  H   H5        1.0  0.98318  0.24078  0.49897  1.0000
  H   H6        1.0  0.17689999999999995  0.28719  0.4445200000000001  1.0000
  H   H7        1.0  0.36054999999999976  0.23255  0.49866  1.0000
  H   H8        1.0  0.16215  0.10002999999999998  0.642  1.0000
  H   H9        1.0  0.22231999999999993  0.25903  0.00033  1.0000
  H   H10       1.0  0.40738  0.21293  0.0555  1.0000
  H   H11       1.0  0.5899699999999999  0.26805  0.00215  1.0000
  H   H12       1.0  0.40323999999999993  0.39999000000000007  0.85794  1.0000
  H   H13       1.0  0.51664  0.000820000000000002  0.25941  1.0000
  H   H14       1.0  0.32264  0.05566  0.21308  1.0000
  H   H15       1.0  0.13883999999999996  0.0017700000000000014  0.26779  1.0000
  H   H16       1.0  0.33763999999999994  0.8580799999999998  0.40013  1.0000
  H   H17       1.0  0.7222999999999999  0.5012899999999999  0.7591600000000001  1.0000
  H   H18       1.0  0.9081999999999999  0.55555  0.71259  1.0000
  H   H19       1.0  0.09125000000000008  0.5014299999999998  0.7673600000000002  1.0000
  H   H20       1.0  0.9033099999999997  0.35831999999999997  0.9000100000000001  1.0000
  H   H21       1.0  0.016819999999999936  0.75922  0.50103  1.0000
  H   H22       1.0  0.82311  0.71282  0.55548  1.0000
  H   H23       1.0  0.6394499999999999  0.76746  0.50134  1.0000
  H   H24       1.0  0.8378499999999998  0.8999699999999999  0.358  1.0000
  H   H25       1.0  0.77768  0.7409700000000001  0.9996700000000001  1.0000
  H   H26       1.0  0.5926299999999999  0.7870699999999999  0.94449  1.0000
  H   H27       1.0  0.41003  0.73195  0.99785  1.0000
  H   H28       1.0  0.5967600000000001  0.60001  0.14206  1.0000
  H   H29       1.0  0.4833599999999997  0.99918  0.74059  1.0000
  H   H30       1.0  0.6773700000000001  0.9443499999999999  0.78692  1.0000
  H   H31       1.0  0.8611599999999998  0.99823  0.73221  1.0000
  H   H32       1.0  0.6623700000000001  0.14191999999999996  0.59986  1.0000
  W   W1        1.0  0.9464499999999993  0.8425  0.15753000000000003  1.0000
  W   W2        1.0  0.05355  0.15749999999999997  0.84247  1.0000
  W   W3        1.0  0.5542599999999999  0.34233  0.65768  1.0000
  W   W4        1.0  0.4457499999999999  0.65767  0.34232  1.0000
  W   W5        1.0  0.75  0.38098  0.11928  1.0000
  W   W6        1.0  0.7495199999999996  0.11924999999999998  0.38082000000000005  1.0000
  W   W7        1.0  0.24999999999999972  0.61902  0.88072  1.0000
  W   W8        1.0  0.25049000000000016  0.8807499999999999  0.61918  1.0000
  C   C1        1.0  0.8960299999999999  0.76052  0.12999  1.0000
  C   C2        1.0  0.12576999999999994  0.77277  0.13309  1.0000
  C   C3        1.0  0.02848999999999999  0.8627699999999999  0.047900000000000005  1.0000
  C   C4        1.0  0.7906999999999998  0.4787199999999999  0.11469  1.0000
  C   C5        1.0  0.08133999999999991  0.61978  0.9610900000000001  1.0000
  C   C6        1.0  0.17011999999999988  0.7276000000000001  0.88577  1.0000
  C   C7        1.0  0.6063599999999999  0.32667  0.1424  1.0000
  C   C8        1.0  0.19491  0.5181  0.22054  1.0000
  C   C9        1.0  0.09286  0.48893  0.24596000000000004  1.0000
  C   C10       1.0  0.9920599999999999  0.51821  0.21599  1.0000
  C   C11       1.0  0.09539000000000003  0.59798  0.14208  1.0000
  C   C12       1.0  0.21407  0.12988999999999995  0.76066  1.0000
  C   C13       1.0  0.96814  0.13272999999999996  0.7731500000000001  1.0000
  C   C14       1.0  0.06244000000000002  0.04769000000000001  0.86269  1.0000
  C   C15       1.0  0.6163199999999998  0.11437999999999998  0.47874000000000005  1.0000
  C   C16       1.0  0.3379999999999999  0.96108  0.61991  1.0000
  C   C17       1.0  0.2172500000000001  0.8853899999999998  0.7278200000000001  1.0000
  C   C18       1.0  0.9242299999999999  0.14238  0.32613  1.0000
  C   C19       1.0  0.06689000000000003  0.22048  0.51835  1.0000
  C   C20       1.0  0.17275999999999994  0.24581999999999998  0.4890900000000001  1.0000
  C   C21       1.0  0.27426999999999996  0.21587999999999996  0.51836  1.0000
  C   C22       1.0  0.16506999999999997  0.14207999999999996  0.5982700000000001  1.0000
  C   C23       1.0  0.6039000000000001  0.3704199999999999  0.73975  1.0000
  C   C24       1.0  0.37450999999999995  0.36712999999999996  0.72671  1.0000
  C   C25       1.0  0.47359000000000007  0.45207  0.63725  1.0000
  C   C26       1.0  0.7092799999999998  0.3859099999999999  0.021360000000000004  1.0000
  C   C27       1.0  0.4184100000000001  0.53859  0.88027  1.0000
  C   C28       1.0  0.33063000000000003  0.61395  0.77212  1.0000
  C   C29       1.0  0.8932399999999998  0.35748  0.17405  1.0000
  C   C30       1.0  0.3049  0.27946  0.9812900000000001  1.0000
  C   C31       1.0  0.4065099999999999  0.25431  0.01094  1.0000
  C   C32       1.0  0.50704  0.28449  0.9821  1.0000
  C   C33       1.0  0.4044099999999999  0.35800999999999994  0.90173  1.0000
  C   C34       1.0  0.28586000000000006  0.7396599999999999  0.3702500000000001  1.0000
  C   C35       1.0  0.5312  0.72704  0.36687  1.0000
  C   C36       1.0  0.43896  0.63714  0.45189  1.0000
  C   C37       1.0  0.8831499999999995  0.021350000000000004  0.38566  1.0000
  C   C38       1.0  0.16246000000000002  0.8801399999999999  0.53893  1.0000
  C   C39       1.0  0.28480000000000005  0.7721500000000001  0.61404  1.0000
  C   C40       1.0  0.57447  0.17378999999999994  0.35781  1.0000
  C   C41       1.0  0.43284000000000006  0.98161  0.27969  1.0000
  C   C42       1.0  0.32681  0.01106  0.25442  1.0000
  C   C43       1.0  0.22522000000000023  0.9819499999999999  0.28442  1.0000
  C   C44       1.0  0.33466  0.90183  0.3581  1.0000
  C   C45       1.0  0.10396999999999992  0.23947999999999994  0.8700100000000001  1.0000
  C   C46       1.0  0.8742300000000001  0.22722999999999996  0.86691  1.0000
  C   C47       1.0  0.97151  0.13723  0.9521  1.0000
  C   C48       1.0  0.20929999999999993  0.52129  0.8853  1.0000
  C   C49       1.0  0.9186599999999999  0.38023  0.03891  1.0000
  C   C50       1.0  0.8298799999999998  0.2724  0.11422000000000002  1.0000
  C   C51       1.0  0.3936400000000001  0.67333  0.8576  1.0000
  C   C52       1.0  0.8050899999999999  0.48189999999999994  0.77945  1.0000
  C   C53       1.0  0.9071400000000001  0.51107  0.75404  1.0000
  C   C54       1.0  0.00794000000000002  0.4817899999999999  0.7840100000000001  1.0000
  C   C55       1.0  0.9046100000000001  0.40202  0.85792  1.0000
  C   C56       1.0  0.7859300000000002  0.87011  0.23934000000000002  1.0000
  C   C57       1.0  0.031860000000000055  0.86727  0.22685  1.0000
  C   C58       1.0  0.93756  0.95231  0.13731  1.0000
  C   C59       1.0  0.38368000000000013  0.8856299999999999  0.52126  1.0000
  C   C60       1.0  0.662  0.03893  0.38009  1.0000
  C   C61       1.0  0.7827499999999998  0.11461  0.27218  1.0000
  C   C62       1.0  0.07576999999999975  0.85762  0.67386  1.0000
  C   C63       1.0  0.9331100000000001  0.7795199999999999  0.4816500000000001  1.0000
  C   C64       1.0  0.82724  0.75418  0.51091  1.0000
  C   C65       1.0  0.72573  0.7841300000000001  0.48164  1.0000
  C   C66       1.0  0.83494  0.8579199999999999  0.40173000000000003  1.0000
  C   C67       1.0  0.39609999999999995  0.62958  0.26025000000000004  1.0000
  C   C68       1.0  0.62549  0.63287  0.27329  1.0000
  C   C69       1.0  0.5264099999999999  0.54794  0.36275  1.0000
  C   C70       1.0  0.29071999999999987  0.61409  0.9786300000000001  1.0000
  C   C71       1.0  0.58159  0.46140999999999993  0.11973000000000002  1.0000
  C   C72       1.0  0.66937  0.38606  0.22788  1.0000
  C   C73       1.0  0.10676000000000004  0.64252  0.82595  1.0000
  C   C74       1.0  0.6951  0.7205399999999998  0.01871  1.0000
  C   C75       1.0  0.5934899999999997  0.7456900000000001  0.98906  1.0000
  C   C76       1.0  0.4929699999999999  0.71551  0.0179  1.0000
  C   C77       1.0  0.5955899999999998  0.6419999999999999  0.09826000000000001  1.0000
  C   C78       1.0  0.71414  0.26034  0.62974  1.0000
  C   C79       1.0  0.46879999999999983  0.27296  0.6331200000000001  1.0000
  C   C80       1.0  0.56104  0.36285999999999996  0.5481100000000001  1.0000
  C   C81       1.0  0.11685000000000015  0.9786499999999999  0.61434  1.0000
  C   C82       1.0  0.8375399999999998  0.11985999999999998  0.46105999999999997  1.0000
  C   C83       1.0  0.71521  0.22785  0.38595  1.0000
  C   C84       1.0  0.42553  0.8262199999999997  0.64219  1.0000
  C   C85       1.0  0.5671599999999999  0.018399999999999993  0.72031  1.0000
  C   C86       1.0  0.6731900000000002  0.9889399999999999  0.74557  1.0000
  C   C87       1.0  0.7747799999999998  0.018049999999999997  0.7155800000000001  1.0000
  C   C88       1.0  0.66534  0.09817000000000001  0.64189  1.0000
  C   C89       1.0  0.79508  0.89048  0.10888000000000002  1.0000
  C   C90       1.0  0.95  0.75765  0.24275000000000002  1.0000
  C   C91       1.0  0.20491999999999996  0.10952999999999997  0.89111  1.0000
  C   C92       1.0  0.05  0.24235000000000004  0.75724  1.0000
  C   C93       1.0  0.70617  0.3902399999999999  0.60936  1.0000
  C   C94       1.0  0.55083  0.25748  0.74289  1.0000
  C   C95       1.0  0.29383999999999993  0.6097599999999999  0.39064  1.0000
  C   C96       1.0  0.44917999999999997  0.74252  0.25711000000000006  1.0000
  N   N1        1.0  0.8694699999999999  0.71346  0.1178  1.0000
  N   N2        1.0  0.22035000000000002  0.73137  0.11861000000000001  1.0000
  N   N3        1.0  0.06970000000000007  0.8752599999999999  0.98767  1.0000
  N   N4        1.0  0.8190799999999998  0.53  0.11417  1.0000
  N   N5        1.0  0.9899799999999999  0.62059  0.005490000000000001  1.0000
  N   N6        1.0  0.12546000000000007  0.7870999999999999  0.88972  1.0000
  N   N7        1.0  0.53107  0.2957  0.14942  1.0000
  N   N8        1.0  0.99408  0.57288  0.16411  1.0000
  N   N9        1.0  0.19566  0.57236  0.16816  1.0000
  N   N10       1.0  0.3001899999999999  0.11758999999999999  0.71369  1.0000
  N   N11       1.0  0.92923  0.11820999999999995  0.7319  1.0000
  N   N12       1.0  0.06915000000000007  0.98748  0.8752  1.0000
  N   N13       1.0  0.53729  0.11386999999999997  0.53014  1.0000
  N   N14       1.0  0.38425  0.005369999999999997  0.62073  1.0000
  N   N15       1.0  0.19869999999999985  0.8891900000000001  0.78734  1.0000
  N   N16       1.0  0.023379999999999995  0.14941  0.2948  1.0000
  N   N17       1.0  0.2695  0.16405  0.57309  1.0000
  N   N18       1.0  0.06426  0.16816999999999996  0.57268  1.0000
  N   N19       1.0  0.62963  0.38306  0.7869  1.0000
  N   N20       1.0  0.27946999999999994  0.3816399999999999  0.76771  1.0000
  N   N21       1.0  0.4330300000000001  0.51229  0.62448  1.0000
  N   N22       1.0  0.68052  0.38665999999999995  0.9701  1.0000
  N   N23       1.0  0.5098900000000001  0.49432  0.87973  1.0000
  N   N24       1.0  0.37595999999999996  0.61012  0.71264  1.0000
  N   N25       1.0  0.96823  0.35014  0.20539  1.0000
  N   N26       1.0  0.5051999999999998  0.33631  0.92736  1.0000
  N   N27       1.0  0.30441  0.33176  0.9269400000000001  1.0000
  N   N28       1.0  0.2000899999999999  0.78675  0.38277  1.0000
  N   N29       1.0  0.5704000000000001  0.76808  0.38146  1.0000
  N   N30       1.0  0.43340000000000006  0.6245  0.51201  1.0000
  N   N31       1.0  0.9621899999999997  0.9699499999999999  0.3864  1.0000
  N   N32       1.0  0.11575999999999995  0.8794999999999998  0.49473  1.0000
  N   N33       1.0  0.3044  0.71264  0.61001  1.0000
  N   N34       1.0  0.4752499999999999  0.20509  0.35076  1.0000
  N   N35       1.0  0.23008  0.92723  0.33625  1.0000
  N   N36       1.0  0.43553  0.9272099999999999  0.33192000000000005  1.0000
  N   N37       1.0  0.13052999999999998  0.28654  0.8822  1.0000
  N   N38       1.0  0.7796499999999997  0.26863000000000004  0.88139  1.0000
  N   N39       1.0  0.9303  0.12475  0.01233  1.0000
  N   N40       1.0  0.18092  0.47  0.8858300000000001  1.0000
  N   N41       1.0  0.010019999999999961  0.37941  0.99451  1.0000
  N   N42       1.0  0.8745399999999999  0.2129  0.11027  1.0000
  N   N43       1.0  0.46892999999999996  0.7043  0.85058  1.0000
  N   N44       1.0  0.005919999999999957  0.42712  0.8358900000000001  1.0000
  N   N45       1.0  0.8043500000000003  0.42765  0.83184  1.0000
  N   N46       1.0  0.6998099999999999  0.88241  0.28631000000000006  1.0000
  N   N47       1.0  0.07077000000000003  0.88179  0.2681  1.0000
  N   N48       1.0  0.93085  0.012520000000000002  0.12480000000000001  1.0000
  N   N49       1.0  0.46271999999999996  0.88613  0.46986  1.0000
  N   N50       1.0  0.6157599999999999  0.99463  0.37927  1.0000
  N   N51       1.0  0.8013000000000001  0.11081  0.21266  1.0000
  N   N52       1.0  0.9766300000000001  0.8505899999999997  0.7052000000000002  1.0000
  N   N53       1.0  0.7305000000000001  0.8359499999999999  0.42691000000000007  1.0000
  N   N54       1.0  0.9357399999999999  0.83183  0.42732  1.0000
  N   N55       1.0  0.37037999999999993  0.61694  0.2131  1.0000
  N   N56       1.0  0.7205299999999997  0.61836  0.23229000000000002  1.0000
  N   N57       1.0  0.5669699999999999  0.48771  0.37551000000000007  1.0000
  N   N58       1.0  0.31948  0.61334  0.0299  1.0000
  N   N59       1.0  0.49010999999999977  0.50568  0.12027000000000002  1.0000
  N   N60       1.0  0.62405  0.38988  0.28736  1.0000
  N   N61       1.0  0.03176999999999997  0.64987  0.79461  1.0000
  N   N62       1.0  0.49480999999999986  0.66369  0.07264  1.0000
  N   N63       1.0  0.69559  0.66824  0.07306000000000001  1.0000
  N   N64       1.0  0.79991  0.21324999999999994  0.6172300000000001  1.0000
  N   N65       1.0  0.4296  0.23193  0.61853  1.0000
  N   N66       1.0  0.5665999999999998  0.3755  0.48799  1.0000
  N   N67       1.0  0.03781  0.030049999999999993  0.6136  1.0000
  N   N68       1.0  0.8842399999999999  0.12049999999999998  0.50527  1.0000
  N   N69       1.0  0.69561  0.28736  0.38999000000000006  1.0000
  N   N70       1.0  0.52475  0.79491  0.64924  1.0000
  N   N71       1.0  0.7699300000000001  0.07276999999999999  0.66374  1.0000
  N   N72       1.0  0.5644700000000001  0.07279999999999998  0.66807  1.0000
  N   N73       1.0  0.7124899999999998  0.9168099999999999  0.08193  1.0000
  N   N74       1.0  0.9513399999999999  0.71128  0.28933  1.0000
  N   N75       1.0  0.2875099999999999  0.08319  0.91807  1.0000
  N   N76       1.0  0.048659999999999946  0.28872  0.71067  1.0000
  N   N77       1.0  0.78898  0.41686  0.5826  1.0000
  N   N78       1.0  0.5495799999999998  0.21115999999999993  0.78951  1.0000
  N   N79       1.0  0.2110200000000001  0.58314  0.4174  1.0000
  N   N80       1.0  0.45043000000000005  0.78884  0.21048  1.0000
