data_image0
_chemical_formula_structural       Zn22H36C108N8O96
_chemical_formula_sum              "Zn22 H36 C108 N8 O96"
_cell_length_a       20.95887
_cell_length_b       20.95887
_cell_length_c       20.95887
_cell_angle_alpha    90.0
_cell_angle_beta     90.0
_cell_angle_gamma    90.0

_symmetry_space_group_name_H-M    'P 1'
_symmetry_Int_Tables_number       1

loop_
  _symmetry_equiv_pos_as_xyz
  'x,y,z'

loop_
  _atom_site_type_symbol
  _atom_site_label
  _atom_site_symmetry_multiplicity
  _atom_site_fract_x
  _atom_site_fract_y
  _atom_site_fract_z
  _atom_site_occupancy
  Zn  Zn1       1.0  0.43761000000000005  0.0  0.0  1.0000
  Zn  Zn2       1.0  0.56239  0.0  0.0  1.0000
  Zn  Zn3       1.0  0.0  0.43761000000000005  0.0  1.0000
  Zn  Zn4       1.0  0.0  0.56239  0.0  1.0000
  Zn  Zn5       1.0  0.0  0.0  0.43761000000000005  1.0000
  Zn  Zn6       1.0  0.0  0.0  0.56239  1.0000
  Zn  Zn7       1.0  0.31849  0.68152  0.68152  1.0000
  Zn  Zn8       1.0  0.23922  0.76078  0.76078  1.0000
  Zn  Zn9       1.0  0.68152  0.31849  0.68152  1.0000
  Zn  Zn10      1.0  0.76078  0.23922  0.76078  1.0000
  Zn  Zn11      1.0  0.68152  0.68152  0.31849  1.0000
  Zn  Zn12      1.0  0.76078  0.76078  0.23922  1.0000
  Zn  Zn13      1.0  0.31849  0.31849  0.31849  1.0000
  Zn  Zn14      1.0  0.23922  0.23922  0.23922  1.0000
  Zn  Zn15      1.0  0.68152  0.31849  0.31849  1.0000
  Zn  Zn16      1.0  0.76078  0.23922  0.23922  1.0000
  Zn  Zn17      1.0  0.31849  0.68152  0.31849  1.0000
  Zn  Zn18      1.0  0.23922  0.76078  0.23922  1.0000
  Zn  Zn19      1.0  0.68152  0.68152  0.68152  1.0000
  Zn  Zn20      1.0  0.76078  0.76078  0.76078  1.0000
  Zn  Zn21      1.0  0.31849  0.31849  0.68152  1.0000
  Zn  Zn22      1.0  0.23922  0.23922  0.76078  1.0000
  H   H1        1.0  0.39684  0.85533  0.85533  1.0000
  H   H2        1.0  0.60316  0.14467  0.85533  1.0000
  H   H3        1.0  0.60316  0.85533  0.14467  1.0000
  H   H4        1.0  0.39684  0.14467  0.14467  1.0000
  H   H5        1.0  0.85533  0.39684  0.85533  1.0000
  H   H6        1.0  0.85533  0.60316  0.14467  1.0000
  H   H7        1.0  0.14467  0.60316  0.85533  1.0000
  H   H8        1.0  0.14467  0.39684  0.14467  1.0000
  H   H9        1.0  0.85533  0.85533  0.39684  1.0000
  H   H10       1.0  0.14467  0.85533  0.60316  1.0000
  H   H11       1.0  0.85533  0.14467  0.60316  1.0000
  H   H12       1.0  0.14467  0.14467  0.39684  1.0000
  H   H13       1.0  0.85533  0.39684  0.14467  1.0000
  H   H14       1.0  0.14467  0.60316  0.14467  1.0000
  H   H15       1.0  0.85533  0.60316  0.85533  1.0000
  H   H16       1.0  0.14467  0.39684  0.85533  1.0000
  H   H17       1.0  0.39684  0.85533  0.14467  1.0000
  H   H18       1.0  0.60316  0.85533  0.85533  1.0000
  H   H19       1.0  0.60316  0.14467  0.14467  1.0000
  H   H20       1.0  0.39684  0.14467  0.85533  1.0000
  H   H21       1.0  0.85533  0.85533  0.60316  1.0000
  H   H22       1.0  0.85533  0.14467  0.39684  1.0000
  H   H23       1.0  0.14467  0.85533  0.39684  1.0000
  H   H24       1.0  0.14467  0.14467  0.60316  1.0000
  H   H25       1.0  0.5  0.72976  0.72976  1.0000
  H   H26       1.0  0.5  0.27024  0.72976  1.0000
  H   H27       1.0  0.5  0.72976  0.27024  1.0000
  H   H28       1.0  0.5  0.27024  0.27024  1.0000
  H   H29       1.0  0.72976  0.5  0.72976  1.0000
  H   H30       1.0  0.72976  0.5  0.27024  1.0000
  H   H31       1.0  0.27024  0.5  0.72976  1.0000
  H   H32       1.0  0.27024  0.5  0.27024  1.0000
  H   H33       1.0  0.72976  0.72976  0.5  1.0000
  H   H34       1.0  0.27024  0.72976  0.5  1.0000
  H   H35       1.0  0.72976  0.27024  0.5  1.0000
  H   H36       1.0  0.27024  0.27024  0.5  1.0000
  C   C1        1.0  0.3834199999999999  0.76176  0.76176  1.0000
  C   C2        1.0  0.4418099999999999  0.83693  0.83693  1.0000
  C   C3        1.0  0.44226  0.7895399999999999  0.7895399999999999  1.0000
  C   C4        1.0  0.61658  0.23824000000000004  0.76176  1.0000
  C   C5        1.0  0.55819  0.16307  0.83693  1.0000
  C   C6        1.0  0.55774  0.21046  0.7895399999999999  1.0000
  C   C7        1.0  0.61658  0.76176  0.23824000000000004  1.0000
  C   C8        1.0  0.55819  0.83693  0.16307  1.0000
  C   C9        1.0  0.55774  0.7895399999999999  0.21046  1.0000
  C   C10       1.0  0.3834199999999999  0.23824000000000004  0.23824000000000004  1.0000
  C   C11       1.0  0.4418099999999999  0.16307  0.16307  1.0000
  C   C12       1.0  0.44226  0.21046  0.21046  1.0000
  C   C13       1.0  0.76176  0.3834199999999999  0.76176  1.0000
  C   C14       1.0  0.83693  0.4418099999999999  0.83693  1.0000
  C   C15       1.0  0.7895399999999999  0.44226  0.7895399999999999  1.0000
  C   C16       1.0  0.76176  0.61658  0.23824000000000004  1.0000
  C   C17       1.0  0.83693  0.55819  0.16307  1.0000
  C   C18       1.0  0.7895399999999999  0.55775  0.21046  1.0000
  C   C19       1.0  0.23824000000000004  0.61658  0.76176  1.0000
  C   C20       1.0  0.16307  0.55819  0.83693  1.0000
  C   C21       1.0  0.21046  0.55775  0.7895399999999999  1.0000
  C   C22       1.0  0.23824000000000004  0.3834199999999999  0.23824000000000004  1.0000
  C   C23       1.0  0.16307  0.4418099999999999  0.16307  1.0000
  C   C24       1.0  0.21046  0.44226  0.21046  1.0000
  C   C25       1.0  0.76176  0.76176  0.3834199999999999  1.0000
  C   C26       1.0  0.83693  0.83693  0.4418099999999999  1.0000
  C   C27       1.0  0.7895399999999999  0.7895399999999999  0.44226  1.0000
  C   C28       1.0  0.23824000000000004  0.76176  0.61658  1.0000
  C   C29       1.0  0.16307  0.83693  0.55819  1.0000
  C   C30       1.0  0.21046  0.7895399999999999  0.55775  1.0000
  C   C31       1.0  0.76176  0.23824000000000004  0.61658  1.0000
  C   C32       1.0  0.83693  0.16307  0.55819  1.0000
  C   C33       1.0  0.7895399999999999  0.21046  0.55775  1.0000
  C   C34       1.0  0.23824000000000004  0.23824000000000004  0.3834199999999999  1.0000
  C   C35       1.0  0.16307  0.16307  0.4418099999999999  1.0000
  C   C36       1.0  0.21046  0.21046  0.44226  1.0000
  C   C37       1.0  0.76176  0.3834199999999999  0.23824000000000004  1.0000
  C   C38       1.0  0.83693  0.4418099999999999  0.16307  1.0000
  C   C39       1.0  0.7895399999999999  0.44226  0.21046  1.0000
  C   C40       1.0  0.23824000000000004  0.61658  0.23824000000000004  1.0000
  C   C41       1.0  0.16307  0.55819  0.16307  1.0000
  C   C42       1.0  0.21046  0.55775  0.21046  1.0000
  C   C43       1.0  0.76176  0.61658  0.76176  1.0000
  C   C44       1.0  0.83693  0.55819  0.83693  1.0000
  C   C45       1.0  0.7895399999999999  0.55775  0.7895399999999999  1.0000
  C   C46       1.0  0.23824000000000004  0.3834199999999999  0.76176  1.0000
  C   C47       1.0  0.16307  0.4418099999999999  0.83693  1.0000
  C   C48       1.0  0.21046  0.44226  0.7895399999999999  1.0000
  C   C49       1.0  0.3834199999999999  0.76176  0.23824000000000004  1.0000
  C   C50       1.0  0.4418099999999999  0.83693  0.16307  1.0000
  C   C51       1.0  0.44226  0.7895399999999999  0.21046  1.0000
  C   C52       1.0  0.61658  0.76176  0.76176  1.0000
  C   C53       1.0  0.55819  0.83693  0.83693  1.0000
  C   C54       1.0  0.55774  0.7895399999999999  0.7895399999999999  1.0000
  C   C55       1.0  0.61658  0.23824000000000004  0.23824000000000004  1.0000
  C   C56       1.0  0.55819  0.16307  0.16307  1.0000
  C   C57       1.0  0.55774  0.21046  0.21046  1.0000
  C   C58       1.0  0.3834199999999999  0.23824000000000004  0.76176  1.0000
  C   C59       1.0  0.4418099999999999  0.16307  0.83693  1.0000
  C   C60       1.0  0.44226  0.21046  0.7895399999999999  1.0000
  C   C61       1.0  0.76176  0.76176  0.61658  1.0000
  C   C62       1.0  0.83693  0.83693  0.55819  1.0000
  C   C63       1.0  0.7895399999999999  0.7895399999999999  0.55775  1.0000
  C   C64       1.0  0.76176  0.23824000000000004  0.3834199999999999  1.0000
  C   C65       1.0  0.83693  0.16307  0.4418099999999999  1.0000
  C   C66       1.0  0.7895399999999999  0.21046  0.44226  1.0000
  C   C67       1.0  0.23824000000000004  0.76176  0.3834199999999999  1.0000
  C   C68       1.0  0.16307  0.83693  0.4418099999999999  1.0000
  C   C69       1.0  0.21046  0.7895399999999999  0.44226  1.0000
  C   C70       1.0  0.23824000000000004  0.23824000000000004  0.61658  1.0000
  C   C71       1.0  0.16307  0.16307  0.55819  1.0000
  C   C72       1.0  0.21046  0.21046  0.55775  1.0000
  C   C73       1.0  0.5  0.9115600000000001  0.9115600000000001  1.0000
  C   C74       1.0  0.5  0.86058  0.86058  1.0000
  C   C75       1.0  0.5  0.76632  0.76632  1.0000
  C   C76       1.0  0.5  0.08845  0.9115600000000001  1.0000
  C   C77       1.0  0.5  0.13942  0.86058  1.0000
  C   C78       1.0  0.5  0.23369  0.76632  1.0000
  C   C79       1.0  0.5  0.9115600000000001  0.08845  1.0000
  C   C80       1.0  0.5  0.86058  0.13942  1.0000
  C   C81       1.0  0.5  0.76632  0.23369  1.0000
  C   C82       1.0  0.5  0.08845  0.08845  1.0000
  C   C83       1.0  0.5  0.13942  0.13942  1.0000
  C   C84       1.0  0.5  0.23369  0.23369  1.0000
  C   C85       1.0  0.9115600000000001  0.5  0.9115600000000001  1.0000
  C   C86       1.0  0.86058  0.5  0.86058  1.0000
  C   C87       1.0  0.76632  0.5  0.76632  1.0000
  C   C88       1.0  0.9115600000000001  0.5  0.08845  1.0000
  C   C89       1.0  0.86058  0.5  0.13942  1.0000
  C   C90       1.0  0.76632  0.5  0.23369  1.0000
  C   C91       1.0  0.08845  0.5  0.9115600000000001  1.0000
  C   C92       1.0  0.13942  0.5  0.86058  1.0000
  C   C93       1.0  0.23369  0.5  0.76632  1.0000
  C   C94       1.0  0.08845  0.5  0.08845  1.0000
  C   C95       1.0  0.13942  0.5  0.13942  1.0000
  C   C96       1.0  0.23369  0.5  0.23369  1.0000
  C   C97       1.0  0.9115600000000001  0.9115600000000001  0.5  1.0000
  C   C98       1.0  0.86058  0.86058  0.5  1.0000
  C   C99       1.0  0.76632  0.76632  0.5  1.0000
  C   C100      1.0  0.08845  0.9115600000000001  0.5  1.0000
  C   C101      1.0  0.13942  0.86058  0.5  1.0000
  C   C102      1.0  0.23369  0.76632  0.5  1.0000
  C   C103      1.0  0.9115600000000001  0.08845  0.5  1.0000
  C   C104      1.0  0.86058  0.13942  0.5  1.0000
  C   C105      1.0  0.76632  0.23369  0.5  1.0000
  C   C106      1.0  0.08845  0.08845  0.5  1.0000
  C   C107      1.0  0.13942  0.13942  0.5  1.0000
  C   C108      1.0  0.23369  0.23369  0.5  1.0000
  N   N1        1.0  0.17998  0.8200199999999999  0.8200199999999999  1.0000
  N   N2        1.0  0.8200199999999999  0.17998  0.8200199999999999  1.0000
  N   N3        1.0  0.8200199999999999  0.8200199999999999  0.17998  1.0000
  N   N4        1.0  0.17998  0.17998  0.17998  1.0000
  N   N5        1.0  0.8200199999999999  0.17998  0.17998  1.0000
  N   N6        1.0  0.17998  0.8200199999999999  0.17998  1.0000
  N   N7        1.0  0.8200199999999999  0.8200199999999999  0.8200199999999999  1.0000
  N   N8        1.0  0.17998  0.17998  0.8200199999999999  1.0000
  O   O1        1.0  0.3296  0.78114  0.78114  1.0000
  O   O2        1.0  0.39236999999999994  0.71837  0.71837  1.0000
  O   O3        1.0  0.44556  0.931  0.931  1.0000
  O   O4        1.0  0.6704  0.21886000000000003  0.78114  1.0000
  O   O5        1.0  0.60763  0.28163  0.71837  1.0000
  O   O6        1.0  0.55444  0.069  0.931  1.0000
  O   O7        1.0  0.6704  0.78114  0.21886000000000003  1.0000
  O   O8        1.0  0.60763  0.71837  0.28163  1.0000
  O   O9        1.0  0.55444  0.931  0.069  1.0000
  O   O10       1.0  0.3296  0.21886000000000003  0.21886000000000003  1.0000
  O   O11       1.0  0.39236999999999994  0.28163  0.28163  1.0000
  O   O12       1.0  0.44556  0.069  0.069  1.0000
  O   O13       1.0  0.78114  0.3296  0.78114  1.0000
  O   O14       1.0  0.71837  0.39236999999999994  0.71837  1.0000
  O   O15       1.0  0.931  0.44556  0.931  1.0000
  O   O16       1.0  0.78114  0.6704  0.21886000000000003  1.0000
  O   O17       1.0  0.71837  0.60763  0.28163  1.0000
  O   O18       1.0  0.931  0.55444  0.069  1.0000
  O   O19       1.0  0.21886000000000003  0.6704  0.78114  1.0000
  O   O20       1.0  0.28163  0.60763  0.71837  1.0000
  O   O21       1.0  0.069  0.55444  0.931  1.0000
  O   O22       1.0  0.21886000000000003  0.3296  0.21886000000000003  1.0000
  O   O23       1.0  0.28163  0.39236999999999994  0.28163  1.0000
  O   O24       1.0  0.069  0.44556  0.069  1.0000
  O   O25       1.0  0.78114  0.78114  0.3296  1.0000
  O   O26       1.0  0.71837  0.71837  0.39236999999999994  1.0000
  O   O27       1.0  0.931  0.931  0.44556  1.0000
  O   O28       1.0  0.21886000000000003  0.78114  0.6704  1.0000
  O   O29       1.0  0.28163  0.71837  0.60763  1.0000
  O   O30       1.0  0.069  0.931  0.55444  1.0000
  O   O31       1.0  0.78114  0.21886000000000003  0.6704  1.0000
  O   O32       1.0  0.71837  0.28163  0.60763  1.0000
  O   O33       1.0  0.931  0.069  0.55444  1.0000
  O   O34       1.0  0.21886000000000003  0.21886000000000003  0.3296  1.0000
  O   O35       1.0  0.28163  0.28163  0.39236999999999994  1.0000
  O   O36       1.0  0.069  0.069  0.44556  1.0000
  O   O37       1.0  0.78114  0.3296  0.21886000000000003  1.0000
  O   O38       1.0  0.71837  0.39236999999999994  0.28163  1.0000
  O   O39       1.0  0.931  0.44556  0.069  1.0000
  O   O40       1.0  0.21886000000000003  0.6704  0.21886000000000003  1.0000
  O   O41       1.0  0.28163  0.60763  0.28163  1.0000
  O   O42       1.0  0.069  0.55444  0.069  1.0000
  O   O43       1.0  0.78114  0.6704  0.78114  1.0000
  O   O44       1.0  0.71837  0.60763  0.71837  1.0000
  O   O45       1.0  0.931  0.55444  0.931  1.0000
  O   O46       1.0  0.21886000000000003  0.3296  0.78114  1.0000
  O   O47       1.0  0.28163  0.39236999999999994  0.71837  1.0000
  O   O48       1.0  0.069  0.44556  0.931  1.0000
  O   O49       1.0  0.3296  0.78114  0.21886000000000003  1.0000
  O   O50       1.0  0.39236999999999994  0.71837  0.28163  1.0000
  O   O51       1.0  0.44556  0.931  0.069  1.0000
  O   O52       1.0  0.6704  0.78114  0.78114  1.0000
  O   O53       1.0  0.60763  0.71837  0.71837  1.0000
  O   O54       1.0  0.55444  0.931  0.931  1.0000
  O   O55       1.0  0.6704  0.21886000000000003  0.21886000000000003  1.0000
  O   O56       1.0  0.60763  0.28163  0.28163  1.0000
  O   O57       1.0  0.55444  0.069  0.069  1.0000
  O   O58       1.0  0.3296  0.21886000000000003  0.78114  1.0000
  O   O59       1.0  0.39236999999999994  0.28163  0.71837  1.0000
  O   O60       1.0  0.44556  0.069  0.931  1.0000
  O   O61       1.0  0.78114  0.78114  0.6704  1.0000
  O   O62       1.0  0.71837  0.71837  0.60763  1.0000
  O   O63       1.0  0.931  0.931  0.55444  1.0000
  O   O64       1.0  0.78114  0.21886000000000003  0.3296  1.0000
  O   O65       1.0  0.71837  0.28163  0.39236999999999994  1.0000
  O   O66       1.0  0.931  0.069  0.44556  1.0000
  O   O67       1.0  0.21886000000000003  0.78114  0.3296  1.0000
  O   O68       1.0  0.28163  0.71837  0.39236999999999994  1.0000
  O   O69       1.0  0.069  0.931  0.44556  1.0000
  O   O70       1.0  0.21886000000000003  0.21886000000000003  0.6704  1.0000
  O   O71       1.0  0.28163  0.28163  0.60763  1.0000
  O   O72       1.0  0.069  0.069  0.55444  1.0000
  O   O73       1.0  0.20633  0.79367  0.86879  1.0000
  O   O74       1.0  0.79367  0.20633  0.86879  1.0000
  O   O75       1.0  0.79367  0.79367  0.13121  1.0000
  O   O76       1.0  0.20633  0.20633  0.13121  1.0000
  O   O77       1.0  0.86879  0.20633  0.79367  1.0000
  O   O78       1.0  0.86879  0.79367  0.20633  1.0000
  O   O79       1.0  0.13121  0.79367  0.79367  1.0000
  O   O80       1.0  0.13121  0.20633  0.20633  1.0000
  O   O81       1.0  0.79367  0.86879  0.20633  1.0000
  O   O82       1.0  0.20633  0.86879  0.79367  1.0000
  O   O83       1.0  0.79367  0.13121  0.79367  1.0000
  O   O84       1.0  0.20633  0.13121  0.20633  1.0000
  O   O85       1.0  0.79367  0.20633  0.13121  1.0000
  O   O86       1.0  0.20633  0.79367  0.13121  1.0000
  O   O87       1.0  0.79367  0.79367  0.86879  1.0000
  O   O88       1.0  0.20633  0.20633  0.86879  1.0000
  O   O89       1.0  0.20633  0.86879  0.20633  1.0000
  O   O90       1.0  0.79367  0.86879  0.79367  1.0000
  O   O91       1.0  0.79367  0.13121  0.20633  1.0000
  O   O92       1.0  0.20633  0.13121  0.79367  1.0000
  O   O93       1.0  0.86879  0.79367  0.79367  1.0000
  O   O94       1.0  0.86879  0.20633  0.20633  1.0000
  O   O95       1.0  0.13121  0.79367  0.20633  1.0000
  O   O96       1.0  0.13121  0.20633  0.79367  1.0000
