data_image0
_chemical_formula_structural       Mg16H128C96O64
_chemical_formula_sum              "Mg16 H128 C96 O64"
_cell_length_a       13.46544
_cell_length_b       19.40212
_cell_length_c       26.1133
_cell_angle_alpha    81.05213999999998
_cell_angle_beta     74.94579
_cell_angle_gamma    69.79915

_space_group_name_H-M_alt    "P 1"
_space_group_IT_number       1

loop_
  _space_group_symop_operation_xyz
  'x, y, z'

loop_
  _atom_site_type_symbol
  _atom_site_label
  _atom_site_symmetry_multiplicity
  _atom_site_fract_x
  _atom_site_fract_y
  _atom_site_fract_z
  _atom_site_occupancy
  Mg  Mg1       1.0  0.57164  0.4081499999999999  0.18683  1.0000
  Mg  Mg2       1.0  0.6939999999999998  0.5796799999999999  0.7472100000000002  1.0000
  Mg  Mg3       1.0  0.7229200000000001  0.67579  0.6412  1.0000
  Mg  Mg4       1.0  0.70128  0.26918  0.1238  1.0000
  Mg  Mg5       1.0  0.16500999999999996  0.09230000000000001  0.31274  1.0000
  Mg  Mg6       1.0  0.021970000000000007  0.91877  0.75303  1.0000
  Mg  Mg7       1.0  0.04062000000000003  0.82332  0.85945  1.0000
  Mg  Mg8       1.0  0.09519000000000002  0.23024  0.37653  1.0000
  Mg  Mg9       1.0  0.4283699999999999  0.59184  0.81318  1.0000
  Mg  Mg10      1.0  0.306  0.42030999999999996  0.25279  1.0000
  Mg  Mg11      1.0  0.27709000000000006  0.3242  0.3588  1.0000
  Mg  Mg12      1.0  0.29873  0.7308099999999998  0.8762  1.0000
  Mg  Mg13      1.0  0.835  0.90769  0.6872599999999999  1.0000
  Mg  Mg14      1.0  0.97804  0.08122000000000001  0.24697  1.0000
  Mg  Mg15      1.0  0.9593899999999997  0.17667  0.14056  1.0000
  Mg  Mg16      1.0  0.9048199999999998  0.76975  0.62347  1.0000
  H   H1        1.0  0.7209100000000002  0.49893999999999994  0.013869999999999999  1.0000
  H   H2        1.0  0.5787  0.52659  0.02907  1.0000
  H   H3        1.0  0.72988  0.39104  0.96807  1.0000
  H   H4        1.0  0.5889500000000003  0.4144  0.9852599999999999  1.0000
  H   H5        1.0  0.7183800000000001  0.50846  0.9107799999999999  1.0000
  H   H6        1.0  0.5756600000000001  0.5377200000000001  0.93027  1.0000
  H   H7        1.0  0.5653699999999999  0.4388000000000001  0.88496  1.0000
  H   H8        1.0  0.7089399999999999  0.3950099999999999  0.8750700000000001  1.0000
  H   H9        1.0  0.49882  0.28737  0.08345  1.0000
  H   H10       1.0  0.5160300000000001  0.21029999999999996  0.12872  1.0000
  H   H11       1.0  0.3642000000000001  0.23588999999999996  0.07823  1.0000
  H   H12       1.0  0.2907400000000001  0.31373  0.11496  1.0000
  H   H13       1.0  0.3666799999999999  0.15516  0.1642  1.0000
  H   H14       1.0  0.28934  0.23305  0.1999  1.0000
  H   H15       1.0  0.1376299999999999  0.25427  0.15266  1.0000
  H   H16       1.0  0.21543999999999996  0.17674999999999996  0.11678  1.0000
  H   H17       1.0  0.83445  0.39897999999999995  0.63584  1.0000
  H   H18       1.0  0.7443199999999998  0.44508999999999993  0.59369  1.0000
  H   H19       1.0  0.9780599999999999  0.44813  0.57364  1.0000
  H   H20       1.0  0.8856800000000001  0.49452  0.53312  1.0000
  H   H21       1.0  0.8772499999999998  0.37483  0.51331  1.0000
  H   H22       1.0  0.96325  0.32615  0.55607  1.0000
  H   H23       1.0  0.030280000000000078  0.4265499999999999  0.45961  1.0000
  H   H24       1.0  0.11744000000000003  0.3634299999999999  0.49668  1.0000
  H   H25       1.0  0.9490800000000001  0.5205099999999999  0.72656  1.0000
  H   H26       1.0  0.89259  0.57453  0.78071  1.0000
  H   H27       1.0  0.09928000000000001  0.50996  0.76423  1.0000
  H   H28       1.0  0.11355000000000015  0.56944  0.7064999999999999  1.0000
  H   H29       1.0  0.027880000000000068  0.67879  0.76086  1.0000
  H   H30       1.0  0.0025400000000000557  0.622  0.8186  1.0000
  H   H31       1.0  0.2311600000000001  0.61463  0.75214  1.0000
  H   H32       1.0  0.20347000000000007  0.55926  0.81039  1.0000
  H   H33       1.0  0.23348  0.00098  0.48615  1.0000
  H   H34       1.0  0.13478000000000012  0.9723899999999999  0.47111  1.0000
  H   H35       1.0  0.08868999999999999  0.10804999999999998  0.53214  1.0000
  H   H36       1.0  0.9882400000000001  0.08400999999999999  0.51551  1.0000
  H   H37       1.0  0.13869000000000017  0.9903799999999999  0.58901  1.0000
  H   H38       1.0  0.044189999999999965  0.96084  0.57031  1.0000
  H   H39       1.0  0.8903399999999999  0.059299999999999985  0.6162  1.0000
  H   H40       1.0  0.9804499999999999  0.10361000000000001  0.62535  1.0000
  H   H41       1.0  0.86736  0.21458  0.41673  1.0000
  H   H42       1.0  0.85356  0.29136  0.3712  1.0000
  H   H43       1.0  0.6761200000000002  0.26415  0.4211  1.0000
  H   H44       1.0  0.72027  0.18642  0.38396  1.0000
  H   H45       1.0  0.68656  0.34516  0.33492  1.0000
  H   H46       1.0  0.7230100000000002  0.26714  0.29937  1.0000
  H   H47       1.0  0.5442499999999999  0.24622  0.34619  1.0000
  H   H48       1.0  0.5091199999999998  0.32377  0.38206  1.0000
  H   H49       1.0  0.8722099999999999  0.10140999999999997  0.8634300000000001  1.0000
  H   H50       1.0  0.7847999999999999  0.055650000000000005  0.90528  1.0000
  H   H51       1.0  0.0012599999999999916  0.05161999999999997  0.9260200000000001  1.0000
  H   H52       1.0  0.9138699999999998  0.005059999999999991  0.9660200000000001  1.0000
  H   H53       1.0  0.7666  0.12429000000000001  0.98647  1.0000
  H   H54       1.0  0.84686  0.17356000000000002  0.94411  1.0000
  H   H55       1.0  0.9177299999999999  0.07262  0.04009999999999999  1.0000
  H   H56       1.0  0.97736  0.13713  0.0036100000000000004  1.0000
  H   H57       1.0  0.19613  0.9782199999999999  0.7744000000000001  1.0000
  H   H58       1.0  0.24716000000000002  0.9261399999999999  0.71915  1.0000
  H   H59       1.0  0.37330999999999986  0.9895399999999999  0.7357  1.0000
  H   H60       1.0  0.3890900000000002  0.9301399999999999  0.79345  1.0000
  H   H61       1.0  0.4675500000000002  0.8207999999999996  0.73897  1.0000
  H   H62       1.0  0.44431999999999994  0.8777100000000001  0.68126  1.0000
  H   H63       1.0  0.5968199999999998  0.8853  0.7486400000000001  1.0000
  H   H64       1.0  0.5741599999999998  0.94039  0.69014  1.0000
  H   H65       1.0  0.2791  0.50105  0.98614  1.0000
  H   H66       1.0  0.4213099999999999  0.4734  0.97093  1.0000
  H   H67       1.0  0.27012999999999987  0.60895  0.03194  1.0000
  H   H68       1.0  0.4110600000000001  0.5855899999999999  0.01474  1.0000
  H   H69       1.0  0.28163000000000005  0.49152999999999997  0.08922000000000001  1.0000
  H   H70       1.0  0.42434999999999995  0.46227  0.06973  1.0000
  H   H71       1.0  0.43464  0.56119  0.11504  1.0000
  H   H72       1.0  0.29107  0.60498  0.12493000000000001  1.0000
  H   H73       1.0  0.50119  0.71262  0.91656  1.0000
  H   H74       1.0  0.48397  0.7897  0.87129  1.0000
  H   H75       1.0  0.63581  0.7641  0.92177  1.0000
  H   H76       1.0  0.7092700000000005  0.6862700000000002  0.8850499999999999  1.0000
  H   H77       1.0  0.63332  0.84484  0.8358100000000002  1.0000
  H   H78       1.0  0.7106699999999996  0.76694  0.8001  1.0000
  H   H79       1.0  0.8623800000000001  0.74573  0.84735  1.0000
  H   H80       1.0  0.7845700000000003  0.8232399999999999  0.8832199999999999  1.0000
  H   H81       1.0  0.16555999999999996  0.60101  0.36417000000000005  1.0000
  H   H82       1.0  0.25569000000000003  0.5549  0.40632  1.0000
  H   H83       1.0  0.021950000000000035  0.55187  0.42636999999999997  1.0000
  H   H84       1.0  0.11432999999999995  0.50547  0.46688  1.0000
  H   H85       1.0  0.12276000000000019  0.6251599999999998  0.48669  1.0000
  H   H86       1.0  0.03676000000000006  0.67384  0.44393  1.0000
  H   H87       1.0  0.9697299999999999  0.5734399999999998  0.5404  1.0000
  H   H88       1.0  0.8825699999999999  0.63657  0.50332  1.0000
  H   H89       1.0  0.05093  0.47948  0.27345  1.0000
  H   H90       1.0  0.10742000000000008  0.42546  0.21929  1.0000
  H   H91       1.0  0.9007300000000001  0.49003  0.23577  1.0000
  H   H92       1.0  0.88646  0.43054999999999993  0.2935  1.0000
  H   H93       1.0  0.97213  0.32119999999999993  0.23914  1.0000
  H   H94       1.0  0.9974699999999999  0.3779899999999999  0.1814  1.0000
  H   H95       1.0  0.76885  0.38536  0.24787  1.0000
  H   H96       1.0  0.79654  0.44072999999999996  0.18962  1.0000
  H   H97       1.0  0.7665200000000001  0.9990099999999998  0.51385  1.0000
  H   H98       1.0  0.8652300000000002  0.0276  0.52889  1.0000
  H   H99       1.0  0.9113200000000001  0.89194  0.46786  1.0000
  H   H100      1.0  0.011770000000000036  0.91598  0.4845  1.0000
  H   H101      1.0  0.86132  0.009610000000000002  0.41099  1.0000
  H   H102      1.0  0.95581  0.03914999999999999  0.42969  1.0000
  H   H103      1.0  0.10967000000000005  0.9406899999999999  0.38381  1.0000
  H   H104      1.0  0.019559999999999928  0.8963800000000001  0.37465000000000004  1.0000
  H   H105      1.0  0.13265000000000007  0.7854099999999999  0.58328  1.0000
  H   H106      1.0  0.1464499999999999  0.70862  0.6288  1.0000
  H   H107      1.0  0.32389000000000007  0.7358299999999999  0.57891  1.0000
  H   H108      1.0  0.2797400000000001  0.81357  0.61605  1.0000
  H   H109      1.0  0.31345  0.65483  0.66508  1.0000
  H   H110      1.0  0.277  0.73285  0.70064  1.0000
  H   H111      1.0  0.45576000000000005  0.7537699999999998  0.65381  1.0000
  H   H112      1.0  0.49088  0.67622  0.61794  1.0000
  H   H113      1.0  0.12779999999999997  0.8985799999999999  0.13657  1.0000
  H   H114      1.0  0.21521000000000004  0.94434  0.09472000000000001  1.0000
  H   H115      1.0  0.9987499999999999  0.94837  0.07398  1.0000
  H   H116      1.0  0.08613999999999998  0.9949299999999999  0.03399  1.0000
  H   H117      1.0  0.23341000000000003  0.8756999999999999  0.013530000000000002  1.0000
  H   H118      1.0  0.15314999999999998  0.82643  0.05589  1.0000
  H   H119      1.0  0.08227999999999995  0.92737  0.9599000000000001  1.0000
  H   H120      1.0  0.022649999999999906  0.8628600000000001  0.9964  1.0000
  H   H121      1.0  0.80388  0.02177  0.2256  1.0000
  H   H122      1.0  0.75285  0.07384999999999999  0.28085  1.0000
  H   H123      1.0  0.6267  0.010450000000000001  0.2643  1.0000
  H   H124      1.0  0.61092  0.06985  0.20655  1.0000
  H   H125      1.0  0.5324599999999999  0.17919  0.26103  1.0000
  H   H126      1.0  0.55569  0.12228  0.31875  1.0000
  H   H127      1.0  0.40319  0.11469  0.25136  1.0000
  H   H128      1.0  0.42585  0.05959999999999999  0.30987  1.0000
  C   C1        1.0  0.65329  0.42911  0.07338  1.0000
  C   C2        1.0  0.6515800000000003  0.47798999999999997  0.02179  1.0000
  C   C3        1.0  0.6552400000000002  0.43839999999999985  0.9746  1.0000
  C   C4        1.0  0.6479700000000004  0.48857999999999996  0.92334  1.0000
  C   C5        1.0  0.6436899999999999  0.44826  0.87772  1.0000
  C   C6        1.0  0.6632799999999999  0.49186  0.8253  1.0000
  C   C7        1.0  0.45039000000000007  0.31296  0.16341  1.0000
  C   C8        1.0  0.4579500000000001  0.26491  0.12117  1.0000
  C   C9        1.0  0.35072  0.25849  0.11647  1.0000
  C   C10       1.0  0.3054699999999999  0.20968  0.16177  1.0000
  C   C11       1.0  0.20165  0.20068999999999998  0.15467  1.0000
  C   C12       1.0  0.15368  0.15283  0.19842  1.0000
  C   C13       1.0  0.77456  0.51584  0.63798  1.0000
  C   C14       1.0  0.8137899999999999  0.4470100000000001  0.60764  1.0000
  C   C15       1.0  0.9091599999999999  0.44505  0.55986  1.0000
  C   C16       1.0  0.94438  0.37618  0.52922  1.0000
  C   C17       1.0  0.04276999999999999  0.3731  0.48312  1.0000
  C   C18       1.0  0.06370999999999999  0.31756  0.44404000000000005  1.0000
  C   C19       1.0  0.8957899999999998  0.6341  0.7053800000000001  1.0000
  C   C20       1.0  0.9488799999999998  0.5707499999999999  0.74142  1.0000
  C   C21       1.0  0.062079999999999934  0.56508  0.74632  1.0000
  C   C22       1.0  0.059520000000000066  0.62373  0.78011  1.0000
  C   C23       1.0  0.17102999999999993  0.61348  0.78972  1.0000
  C   C24       1.0  0.17242000000000002  0.67083  0.82233  1.0000
  C   C25       1.0  0.15539999999999995  0.07050000000000001  0.42684  1.0000
  C   C26       1.0  0.15124999999999997  0.021290000000000003  0.47829  1.0000
  C   C27       1.0  0.06815999999999998  0.06046999999999998  0.52571  1.0000
  C   C28       1.0  0.06065  0.010130000000000004  0.57693  1.0000
  C   C29       1.0  0.9711199999999999  0.050230000000000004  0.62284  1.0000
  C   C30       1.0  0.9827799999999998  0.006429999999999986  0.6749900000000001  1.0000
  C   C31       1.0  0.9263000000000001  0.1883  0.33679  1.0000
  C   C32       1.0  0.84282  0.23654  0.37878000000000006  1.0000
  C   C33       1.0  0.72503  0.24205999999999997  0.3829  1.0000
  C   C34       1.0  0.67723  0.29059999999999997  0.33742  1.0000
  C   C35       1.0  0.55739  0.29964  0.34426  1.0000
  C   C36       1.0  0.5063399999999999  0.34756  0.30043  1.0000
  C   C37       1.0  0.9301400000000001  0.9844799999999999  0.86116  1.0000
  C   C38       1.0  0.87044  0.053360000000000005  0.8915699999999999  1.0000
  C   C39       1.0  0.91536  0.05476999999999999  0.93961  1.0000
  C   C40       1.0  0.85099  0.12325  0.9706500000000001  1.0000
  C   C41       1.0  0.8994399999999999  0.12629  0.01693  1.0000
  C   C42       1.0  0.8246700000000001  0.1812  0.05626  1.0000
  C   C43       1.0  0.23579000000000003  0.8645499999999999  0.79383  1.0000
  C   C44       1.0  0.26093  0.92862  0.75848  1.0000
  C   C45       1.0  0.3733499999999999  0.9344  0.75365  1.0000
  C   C46       1.0  0.46363  0.8759400000000002  0.7199  1.0000
  C   C47       1.0  0.5744699999999999  0.8862399999999999  0.7108100000000002  1.0000
  C   C48       1.0  0.6662999999999999  0.8285  0.67873  1.0000
  C   C49       1.0  0.34671000000000013  0.57088  0.9266200000000001  1.0000
  C   C50       1.0  0.34843  0.5220000000000001  0.97821  1.0000
  C   C51       1.0  0.34476999999999997  0.56159  0.025400000000000002  1.0000
  C   C52       1.0  0.35204  0.51141  0.07666  1.0000
  C   C53       1.0  0.35632  0.55173  0.12228  1.0000
  C   C54       1.0  0.3367299999999999  0.50813  0.1747  1.0000
  C   C55       1.0  0.5496200000000001  0.6870299999999999  0.8366  1.0000
  C   C56       1.0  0.5420599999999999  0.73508  0.87883  1.0000
  C   C57       1.0  0.64929  0.7415099999999998  0.8835300000000001  1.0000
  C   C58       1.0  0.6945400000000002  0.7903099999999997  0.83823  1.0000
  C   C59       1.0  0.7983599999999998  0.7993  0.84533  1.0000
  C   C60       1.0  0.8463299999999999  0.8471599999999998  0.8015900000000001  1.0000
  C   C61       1.0  0.22545  0.48415  0.36202  1.0000
  C   C62       1.0  0.18621  0.55298  0.39237  1.0000
  C   C63       1.0  0.09084999999999997  0.55494  0.44014  1.0000
  C   C64       1.0  0.055620000000000024  0.62381  0.47078  1.0000
  C   C65       1.0  0.9572400000000002  0.6268899999999996  0.51688  1.0000
  C   C66       1.0  0.9363  0.68243  0.55596  1.0000
  C   C67       1.0  0.10422000000000001  0.36589  0.29463  1.0000
  C   C68       1.0  0.051129999999999974  0.42924000000000007  0.25858  1.0000
  C   C69       1.0  0.93793  0.43490999999999985  0.25369  1.0000
  C   C70       1.0  0.9404900000000002  0.37626  0.21988999999999997  1.0000
  C   C71       1.0  0.82898  0.38651  0.21029000000000003  1.0000
  C   C72       1.0  0.82758  0.32916  0.17767  1.0000
  C   C73       1.0  0.84461  0.92949  0.57317  1.0000
  C   C74       1.0  0.8487600000000001  0.9787  0.52171  1.0000
  C   C75       1.0  0.9318500000000001  0.93952  0.47429000000000004  1.0000
  C   C76       1.0  0.9393500000000005  0.9898699999999999  0.42308  1.0000
  C   C77       1.0  0.02889000000000001  0.94976  0.37717  1.0000
  C   C78       1.0  0.017230000000000075  0.9935599999999999  0.32502  1.0000
  C   C79       1.0  0.07370999999999998  0.8116899999999999  0.66321  1.0000
  C   C80       1.0  0.15718999999999994  0.76345  0.62122  1.0000
  C   C81       1.0  0.27497999999999995  0.75793  0.6171  1.0000
  C   C82       1.0  0.32278  0.70939  0.66259  1.0000
  C   C83       1.0  0.4426199999999999  0.70035  0.65575  1.0000
  C   C84       1.0  0.49367000000000016  0.6524299999999996  0.6995800000000001  1.0000
  C   C85       1.0  0.06987  0.015510000000000003  0.13884  1.0000
  C   C86       1.0  0.1295700000000001  0.9466299999999999  0.10842999999999998  1.0000
  C   C87       1.0  0.08464  0.94522  0.06039  1.0000
  C   C88       1.0  0.14902000000000004  0.87674  0.029349999999999998  1.0000
  C   C89       1.0  0.10057000000000017  0.8736999999999997  0.98307  1.0000
  C   C90       1.0  0.1753399999999999  0.81879  0.94374  1.0000
  C   C91       1.0  0.7642199999999999  0.13544  0.20617  1.0000
  C   C92       1.0  0.73908  0.07137  0.24152  1.0000
  C   C93       1.0  0.62666  0.06559  0.24635000000000004  1.0000
  C   C94       1.0  0.53638  0.12405  0.2801  1.0000
  C   C95       1.0  0.42554  0.11375  0.2892  1.0000
  C   C96       1.0  0.33370999999999995  0.17148999999999998  0.32127000000000006  1.0000
  O   O1        1.0  0.61988  0.46143999999999996  0.11701000000000002  1.0000
  O   O2        1.0  0.68577  0.35997999999999997  0.07004  1.0000
  O   O3        1.0  0.5854  0.5244599999999999  0.80003  1.0000
  O   O4        1.0  0.7552399999999999  0.49992  0.80582  1.0000
  O   O5        1.0  0.5415200000000002  0.32255  0.16376  1.0000
  O   O6        1.0  0.3619699999999999  0.34207  0.19444  1.0000
  O   O7        1.0  0.20552  0.11859  0.23367  1.0000
  O   O8        1.0  0.06  0.14961  0.19743  1.0000
  O   O9        1.0  0.7592700000000001  0.50701  0.68835  1.0000
  O   O10       1.0  0.75926  0.57829  0.61061  1.0000
  O   O11       1.0  0.16043999999999994  0.29222999999999993  0.41359000000000007  1.0000
  O   O12       1.0  0.9890499999999999  0.29563  0.43898000000000004  1.0000
  O   O13       1.0  0.7973299999999998  0.6393500000000001  0.70382  1.0000
  O   O14       1.0  0.9449  0.67675  0.6782199999999999  1.0000
  O   O15       1.0  0.08375999999999997  0.71592  0.84421  1.0000
  O   O16       1.0  0.26640000000000014  0.67074  0.82593  1.0000
  O   O17       1.0  0.1941299999999999  0.038669999999999996  0.38287000000000004  1.0000
  O   O18       1.0  0.11932999999999996  0.13953999999999997  0.43075  1.0000
  O   O19       1.0  0.9108299999999999  0.97512  0.70117  1.0000
  O   O20       1.0  0.06500999999999998  0.9968899999999999  0.69335  1.0000
  O   O21       1.0  0.027160000000000007  0.17752  0.33752  1.0000
  O   O22       1.0  0.89917  0.16000999999999999  0.30486  1.0000
  O   O23       1.0  0.55999  0.3819599999999999  0.26551  1.0000
  O   O24       1.0  0.40869  0.35056  0.30106  1.0000
  O   O25       1.0  0.9555600000000001  0.99311  0.81075  1.0000
  O   O26       1.0  0.95057  0.9221299999999999  0.8885699999999999  1.0000
  O   O27       1.0  0.86535  0.20802  0.08592  1.0000
  O   O28       1.0  0.72298  0.20148  0.06215  1.0000
  O   O29       1.0  0.14185000000000003  0.85795  0.79534  1.0000
  O   O30       1.0  0.30057000000000017  0.82258  0.82091  1.0000
  O   O31       1.0  0.6449700000000002  0.7826500000000001  0.6574  1.0000
  O   O32       1.0  0.7636699999999998  0.82905  0.67508  1.0000
  O   O33       1.0  0.38012  0.53855  0.8829899999999999  1.0000
  O   O34       1.0  0.31423  0.64001  0.92996  1.0000
  O   O35       1.0  0.4146100000000001  0.47553999999999996  0.19997  1.0000
  O   O36       1.0  0.24476999999999996  0.50008  0.19418000000000002  1.0000
  O   O37       1.0  0.45849  0.67744  0.83625  1.0000
  O   O38       1.0  0.6380299999999998  0.65793  0.8055600000000002  1.0000
  O   O39       1.0  0.79449  0.8813999999999999  0.7663399999999999  1.0000
  O   O40       1.0  0.94001  0.85038  0.80257  1.0000
  O   O41       1.0  0.24074  0.4929799999999999  0.31166  1.0000
  O   O42       1.0  0.24075  0.42169999999999996  0.38939  1.0000
  O   O43       1.0  0.8395700000000001  0.70776  0.58641  1.0000
  O   O44       1.0  0.010960000000000029  0.70436  0.56103  1.0000
  O   O45       1.0  0.20267999999999997  0.36064  0.29619  1.0000
  O   O46       1.0  0.05511000000000005  0.32324  0.32178  1.0000
  O   O47       1.0  0.9162500000000001  0.28407  0.1558  1.0000
  O   O48       1.0  0.73361  0.32925  0.17407  1.0000
  O   O49       1.0  0.8058799999999998  0.96132  0.61713  1.0000
  O   O50       1.0  0.88068  0.86045  0.56925  1.0000
  O   O51       1.0  0.08918000000000001  0.024869999999999993  0.29883  1.0000
  O   O52       1.0  0.93499  0.0031000000000000025  0.30665  1.0000
  O   O53       1.0  0.9728500000000003  0.8224699999999999  0.66248  1.0000
  O   O54       1.0  0.10083999999999993  0.83998  0.69515  1.0000
  O   O55       1.0  0.44001999999999997  0.61803  0.7345  1.0000
  O   O56       1.0  0.59131  0.64943  0.69894  1.0000
  O   O57       1.0  0.04445  0.006880000000000001  0.18925  1.0000
  O   O58       1.0  0.04943999999999999  0.07786  0.11144  1.0000
  O   O59       1.0  0.13465999999999995  0.79197  0.91408  1.0000
  O   O60       1.0  0.27703000000000017  0.7985099999999997  0.93785  1.0000
  O   O61       1.0  0.85816  0.14204  0.20466  1.0000
  O   O62       1.0  0.69944  0.17741  0.1791  1.0000
  O   O63       1.0  0.35503999999999997  0.21733999999999998  0.3426  1.0000
  O   O64       1.0  0.23634000000000002  0.17094  0.32492  1.0000
