data_image0
_chemical_formula_structural       Ni4H80C120N8O20
_chemical_formula_sum              "Ni4 H80 C120 N8 O20"
_cell_length_a       11.186
_cell_length_b       12.72549
_cell_length_c       21.09816
_cell_angle_alpha    101.91072
_cell_angle_beta     103.08216
_cell_angle_gamma    99.11985000000001

_space_group_name_H-M_alt    "P 1"
_space_group_IT_number       1

loop_
  _space_group_symop_operation_xyz
  'x, y, z'

loop_
  _atom_site_type_symbol
  _atom_site_label
  _atom_site_symmetry_multiplicity
  _atom_site_fract_x
  _atom_site_fract_y
  _atom_site_fract_z
  _atom_site_occupancy
  Ni  Ni1       1.0  0.50601  0.36340999999999996  0.90937  1.0000
  Ni  Ni2       1.0  0.9268700000000001  0.33063  0.62346  1.0000
  Ni  Ni3       1.0  0.494  0.63659  0.09061  1.0000
  Ni  Ni4       1.0  0.07318000000000002  0.66939  0.37654  1.0000
  H   H1        1.0  0.41368000000000005  0.20690999999999998  0.31219  1.0000
  H   H2        1.0  0.43991  0.8983399999999999  0.59312  1.0000
  H   H3        1.0  0.3769100000000001  0.9162699999999999  0.38558  1.0000
  H   H4        1.0  0.8413  0.40434  0.04578  1.0000
  H   H5        1.0  0.79526  0.68481  0.32903  1.0000
  H   H6        1.0  0.6231700000000001  0.08376000000000006  0.6144100000000001  1.0000
  H   H7        1.0  0.62579  0.35888  0.47877  1.0000
  H   H8        1.0  0.08826000000000003  0.36258  0.40243000000000007  1.0000
  H   H9        1.0  0.66927  0.56674  0.00366  1.0000
  H   H10       1.0  0.7827100000000002  0.9404899999999999  0.77328  1.0000
  H   H11       1.0  0.16816999999999996  0.6589399999999999  0.0724  1.0000
  H   H12       1.0  0.58641  0.79314  0.68783  1.0000
  H   H13       1.0  0.54949  0.21298  0.6965  1.0000
  H   H14       1.0  0.5208300000000001  0.05799  0.28043  1.0000
  H   H15       1.0  0.003100000000000005  0.80129  0.005300000000000001  1.0000
  H   H16       1.0  0.09553999999999993  0.79036  0.6962  1.0000
  H   H17       1.0  0.8945400000000002  0.25691  0.84546  1.0000
  H   H18       1.0  0.4505900000000001  0.78701  0.30352000000000007  1.0000
  H   H19       1.0  0.6076800000000001  0.6375399999999999  0.37075  1.0000
  H   H20       1.0  0.07449000000000004  0.09954  0.81807  1.0000
  H   H21       1.0  0.24359999999999998  0.2595099999999999  0.82657  1.0000
  H   H22       1.0  0.00959000000000003  0.50124  0.5636  1.0000
  H   H23       1.0  0.94391  0.24901999999999994  0.42991999999999997  1.0000
  H   H24       1.0  0.37422000000000005  0.64112  0.52123  1.0000
  H   H25       1.0  0.8539400000000001  0.7522899999999999  0.79154  1.0000
  H   H26       1.0  0.30724  0.90088  0.90396  1.0000
  H   H27       1.0  0.15871000000000005  0.59566  0.9542300000000001  1.0000
  H   H28       1.0  0.60642  0.60026  0.68776  1.0000
  H   H29       1.0  0.8732  0.20719999999999997  0.72334  1.0000
  H   H30       1.0  0.05613  0.75097  0.57009  1.0000
  H   H31       1.0  0.8955100000000001  0.83203  0.59876  1.0000
  H   H32       1.0  0.4641100000000001  0.32709  0.53679  1.0000
  H   H33       1.0  0.2047500000000001  0.3152  0.6709700000000001  1.0000
  H   H34       1.0  0.62939  0.42602999999999996  0.80264  1.0000
  H   H35       1.0  0.28609999999999997  0.9260399999999999  0.14484  1.0000
  H   H36       1.0  0.12682  0.79281  0.27666  1.0000
  H   H37       1.0  0.6628200000000001  0.31458  0.27492  1.0000
  H   H38       1.0  0.33719000000000005  0.6854199999999999  0.72507  1.0000
  H   H39       1.0  0.81282  0.4460599999999999  0.48519000000000007  1.0000
  H   H40       1.0  0.37062  0.57396  0.19736  1.0000
  H   H41       1.0  0.78458  0.57752  0.79373  1.0000
  H   H42       1.0  0.8244  0.7279  0.0037700000000000003  1.0000
  H   H43       1.0  0.21739  0.05955  0.22674  1.0000
  H   H44       1.0  0.91183  0.63742  0.59757  1.0000
  H   H45       1.0  0.14653000000000002  0.9701899999999999  0.00974  1.0000
  H   H46       1.0  0.5359  0.6728999999999999  0.46321  1.0000
  H   H47       1.0  0.8318399999999999  0.3410599999999999  0.9276  1.0000
  H   H48       1.0  0.39370000000000005  0.39979  0.31223  1.0000
  H   H49       1.0  0.9408400000000001  0.47999  0.27052  1.0000
  H   H50       1.0  0.3675800000000001  0.54018  0.78759  1.0000
  H   H51       1.0  0.9045000000000001  0.20963999999999997  0.30381  1.0000
  H   H52       1.0  0.53144  0.7884  0.0022  1.0000
  H   H53       1.0  0.66604  0.24623  0.03429  1.0000
  H   H54       1.0  0.14607000000000003  0.2477  0.20846000000000003  1.0000
  H   H55       1.0  0.3339600000000001  0.75375  0.96571  1.0000
  H   H56       1.0  0.68645  0.95113  0.0033900000000000002  1.0000
  H   H57       1.0  0.63242  0.45982  0.21241000000000002  1.0000
  H   H58       1.0  0.92552  0.90046  0.18194  1.0000
  H   H59       1.0  0.21542000000000003  0.42248  0.20627000000000004  1.0000
  H   H60       1.0  0.91763  0.41505  0.14867  1.0000
  H   H61       1.0  0.46857000000000004  0.2116000000000001  0.9978000000000001  1.0000
  H   H62       1.0  0.10457999999999999  0.16797999999999996  0.40125  1.0000
  H   H63       1.0  0.08236999999999998  0.5849599999999998  0.85134  1.0000
  H   H64       1.0  0.18717999999999999  0.55392  0.5148  1.0000
  H   H65       1.0  0.714  0.07395999999999998  0.8551700000000001  1.0000
  H   H66       1.0  0.99326  0.08359  0.20488000000000003  1.0000
  H   H67       1.0  0.17561000000000002  0.27209  0.9962300000000001  1.0000
  H   H68       1.0  0.75641  0.7404899999999999  0.17343000000000003  1.0000
  H   H69       1.0  0.10547000000000002  0.74309  0.15454  1.0000
  H   H70       1.0  0.39233  0.36245999999999995  0.62924  1.0000
  H   H71       1.0  0.05917  0.52003  0.72949  1.0000
  H   H72       1.0  0.31356000000000017  0.04888000000000008  0.9966100000000001  1.0000
  H   H73       1.0  0.56012  0.10166999999999998  0.40688  1.0000
  H   H74       1.0  0.85348  0.02981000000000007  0.9902600000000001  1.0000
  H   H75       1.0  0.99691  0.19870000000000007  0.9947000000000001  1.0000
  H   H76       1.0  0.006759999999999967  0.9164  0.79512  1.0000
  H   H77       1.0  0.4792  0.94202  0.71957  1.0000
  H   H78       1.0  0.33074000000000014  0.43325  0.99634  1.0000
  H   H79       1.0  0.99041  0.49876  0.43639  1.0000
  H   H80       1.0  0.6927700000000001  0.09912  0.09605  1.0000
  C   C1        1.0  0.17865  0.33099  0.10115  1.0000
  C   C2        1.0  0.61925  0.8173199999999999  0.04152  1.0000
  C   C3        1.0  0.03764000000000004  0.49982  0.82568  1.0000
  C   C4        1.0  0.73153  2.999999999999088e-05  0.75671  1.0000
  C   C5        1.0  0.06763999999999999  0.6814599999999998  0.17771  1.0000
  C   C6        1.0  0.97545  0.53527  0.24254  1.0000
  C   C7        1.0  0.34097  0.24031  0.33082  1.0000
  C   C8        1.0  0.91874  0.79902  0.83953  1.0000
  C   C9        1.0  0.51993  0.59634  0.4783700000000001  1.0000
  C   C10       1.0  0.7859600000000002  0.66247  0.9579400000000001  1.0000
  C   C11       1.0  0.63936  0.08010999999999999  0.66676  1.0000
  C   C12       1.0  0.42251  0.77591  0.1711  1.0000
  C   C13       1.0  0.0037500000000000224  0.89347  0.84175  1.0000
  C   C14       1.0  0.24556000000000003  0.82229  0.57458  1.0000
  C   C15       1.0  0.99626  0.10653  0.15825  1.0000
  C   C16       1.0  0.7615500000000003  0.6068  0.64352  1.0000
  C   C17       1.0  0.21404  0.3375199999999999  0.04206  1.0000
  C   C18       1.0  0.25428000000000006  0.20946000000000004  0.8626800000000001  1.0000
  C   C19       1.0  0.61232  0.10050999999999999  0.31396  1.0000
  C   C20       1.0  0.6911600000000001  0.60611  0.38770000000000004  1.0000
  C   C21       1.0  0.3245100000000001  0.50559  0.15378  1.0000
  C   C22       1.0  0.33679  0.70015  0.77762  1.0000
  C   C23       1.0  0.70993  0.13293  0.2865  1.0000
  C   C24       1.0  0.99565  0.4630600000000001  0.9315700000000001  1.0000
  C   C25       1.0  0.69251  0.07392000000000004  0.8021900000000001  1.0000
  C   C26       1.0  0.36072  0.91989  0.33324  1.0000
  C   C27       1.0  0.01047999999999999  0.57332  0.13999  1.0000
  C   C28       1.0  0.14813999999999997  0.7923399999999999  0.60357  1.0000
  C   C29       1.0  0.3075  0.92607  0.19782  1.0000
  C   C30       1.0  0.42789999999999995  0.57825  0.51173  1.0000
  C   C31       1.0  0.17889000000000005  0.057230000000000114  0.9062200000000001  1.0000
  C   C32       1.0  0.32254  0.8022  0.81193  1.0000
  C   C33       1.0  0.33585000000000004  0.73999  0.91326  1.0000
  C   C34       1.0  0.6113500000000001  0.44258  0.08015000000000001  1.0000
  C   C35       1.0  0.74572  0.7905399999999999  0.13731000000000002  1.0000
  C   C36       1.0  0.91459  0.7649  0.89857  1.0000
  C   C37       1.0  0.08740999999999997  0.5545  0.97362  1.0000
  C   C38       1.0  0.48008000000000006  0.40365  0.52163  1.0000
  C   C39       1.0  0.7952500000000001  0.63226  0.36376  1.0000
  C   C40       1.0  0.2901  0.86707  0.7135  1.0000
  C   C41       1.0  0.16975000000000007  0.81426  0.67311  1.0000
  C   C42       1.0  0.59355  0.5183600000000002  0.46617  1.0000
  C   C43       1.0  0.30502  0.46016  0.5663  1.0000
  C   C44       1.0  0.6984600000000002  0.5728299999999998  0.9586100000000001  1.0000
  C   C45       1.0  0.22205000000000005  0.7932299999999999  0.49956  1.0000
  C   C46       1.0  0.40645000000000003  0.4816399999999999  0.53383  1.0000
  C   C47       1.0  0.08696000000000001  0.95799  0.90294  1.0000
  C   C48       1.0  0.22363  0.50792  0.35366  1.0000
  C   C49       1.0  0.8213599999999999  0.6689999999999999  0.8988500000000001  1.0000
  C   C50       1.0  0.36521000000000003  0.8760599999999998  0.61624  1.0000
  C   C51       1.0  0.9126  0.44549999999999995  0.026390000000000004  1.0000
  C   C52       1.0  0.57753  0.22410000000000002  0.82891  1.0000
  C   C53       1.0  0.07899999999999999  0.71061  0.24615  1.0000
  C   C54       1.0  0.30155  0.42717  0.04139  1.0000
  C   C55       1.0  0.64449  0.36121  0.11936  1.0000
  C   C56       1.0  0.5993900000000001  0.15234999999999996  0.71271  1.0000
  C   C57       1.0  0.004360000000000013  0.53693  0.06843  1.0000
  C   C58       1.0  0.08127000000000002  0.20097999999999994  0.16047  1.0000
  C   C59       1.0  0.77638  0.4920799999999999  0.64634  1.0000
  C   C60       1.0  0.33035  0.34841  0.33137  1.0000
  C   C61       1.0  0.67746  0.19779999999999995  0.18807  1.0000
  C   C62       1.0  0.20476000000000005  0.36775  0.63624  1.0000
  C   C63       1.0  0.7427  0.82431  0.64478  1.0000
  C   C64       1.0  0.70792  0.90747  0.04235  1.0000
  C   C65       1.0  0.16088000000000008  0.11985000000000005  0.8584700000000001  1.0000
  C   C66       1.0  0.09648000000000007  0.47276  0.57618  1.0000
  C   C67       1.0  0.0009600000000000058  0.8274899999999997  0.95925  1.0000
  C   C68       1.0  0.66321  0.29985  0.22238000000000002  1.0000
  C   C69       1.0  0.6754999999999999  0.49441  0.84622  1.0000
  C   C70       1.0  0.62334  0.14875000000000005  0.78039  1.0000
  C   C71       1.0  0.38867000000000007  0.55743  0.91987  1.0000
  C   C72       1.0  0.77797  0.20675  0.50045  1.0000
  C   C73       1.0  0.8211200000000001  0.94278  0.09378000000000002  1.0000
  C   C74       1.0  0.35551000000000005  0.6387799999999999  0.88064  1.0000
  C   C75       1.0  0.37667000000000006  0.85123  0.21961000000000003  1.0000
  C   C76       1.0  0.25742  0.17573  0.35526  1.0000
  C   C77       1.0  0.38076  0.18267999999999993  0.95848  1.0000
  C   C78       1.0  0.08418999999999997  0.92229  0.96151  1.0000
  C   C79       1.0  0.69498  0.53984  0.4337  1.0000
  C   C80       1.0  0.75447  0.17771000000000003  0.42543000000000003  1.0000
  C   C81       1.0  0.91582  0.07771  0.03849  1.0000
  C   C82       1.0  0.8415400000000001  0.6723900000000002  0.6176200000000001  1.0000
  C   C83       1.0  0.9990500000000001  0.17251  0.04075  1.0000
  C   C84       1.0  0.26854  0.0  0.24331  1.0000
  C   C85       1.0  0.35336  0.6192199999999999  0.81248  1.0000
  C   C86       1.0  0.29857  0.9984199999999999  0.3113  1.0000
  C   C87       1.0  0.19625000000000006  0.50238  0.55015  1.0000
  C   C88       1.0  0.30884000000000006  0.39389000000000013  0.6123000000000001  1.0000
  C   C89       1.0  0.68005  0.17853  0.12066000000000002  1.0000
  C   C90       1.0  0.9623700000000001  0.50019  0.17433  1.0000
  C   C91       1.0  0.8518900000000001  0.20765000000000003  0.39644  1.0000
  C   C92       1.0  0.9035300000000002  0.5272400000000002  0.42381  1.0000
  C   C93       1.0  0.83314  0.78049  0.61827  1.0000
  C   C94       1.0  0.9130600000000002  0.04201  0.09706  1.0000
  C   C95       1.0  0.65908  0.75971  0.66916  1.0000
  C   C96       1.0  0.02456000000000004  0.46474  0.75747  1.0000
  C   C97       1.0  0.66971  0.65161  0.66859  1.0000
  C   C98       1.0  0.70154  0.0016200000000000025  0.68873  1.0000
  C   C99       1.0  0.09193  0.59114  0.04097  1.0000
  C   C100      1.0  0.23853000000000002  0.39321999999999996  0.35648  1.0000
  C   C101      1.0  0.23717000000000002  0.41838  0.1582  1.0000
  C   C102      1.0  0.38770999999999994  0.8994999999999997  0.68604  1.0000
  C   C103      1.0  0.9895200000000001  0.42668  0.8600200000000001  1.0000
  C   C104      1.0  0.92102  0.28941  0.75385  1.0000
  C   C105      1.0  0.40062  0.8476  0.28729  1.0000
  C   C106      1.0  0.90808  0.40886  0.95903  1.0000
  C   C107      1.0  0.1585100000000001  0.32761  0.38235  1.0000
  C   C108      1.0  0.16691000000000003  0.21951  0.38171  1.0000
  C   C109      1.0  0.29209  0.09253  0.95766  1.0000
  C   C110      1.0  0.80376  0.49761000000000005  0.4498400000000001  1.0000
  C   C111      1.0  0.6348199999999999  0.12394999999999998  0.38377  1.0000
  C   C112      1.0  0.83913  0.88015  0.14153  1.0000
  C   C113      1.0  0.31995  0.82147  0.87935  1.0000
  C   C114      1.0  0.08542  0.23509  0.10143  1.0000
  C   C115      1.0  0.64665  0.38078  0.18752  1.0000
  C   C116      1.0  0.57211  0.4217399999999999  0.48827  1.0000
  C   C117      1.0  0.6641500000000001  0.26  0.08674  1.0000
  C   C118      1.0  0.8302800000000001  0.18575  0.32689  1.0000
  C   C119      1.0  0.93237  0.31854999999999994  0.8222899999999999  1.0000
  C   C120      1.0  0.76282  0.58161  0.8418  1.0000
  N   N1        1.0  0.64344  0.48879999999999996  0.90369  1.0000
  N   N2        1.0  0.63634  0.7597599999999999  0.08851  1.0000
  N   N3        1.0  0.09860999999999999  0.40457  0.61759  1.0000
  N   N4        1.0  0.034550000000000004  0.63864  0.27873  1.0000
  N   N5        1.0  0.9654700000000002  0.3613799999999999  0.72128  1.0000
  N   N6        1.0  0.35655000000000003  0.51118  0.09631  1.0000
  N   N7        1.0  0.9014100000000002  0.59544  0.3824  1.0000
  N   N8        1.0  0.36367000000000005  0.24025  0.9115  1.0000
  O   O1        1.0  0.10374999999999995  0.7501299999999999  0.46747  1.0000
  O   O2        1.0  0.49334  0.27491  0.8064900000000002  1.0000
  O   O3        1.0  0.27888  0.55977  0.3209  1.0000
  O   O4        1.0  0.31367  0.8901199999999999  0.7835  1.0000
  O   O5        1.0  0.6241200000000001  0.54164  0.11388  1.0000
  O   O6        1.0  0.6243100000000001  0.23835  0.8921600000000001  1.0000
  O   O7        1.0  0.37590000000000007  0.45834  0.88611  1.0000
  O   O8        1.0  0.8545100000000002  0.45770999999999995  0.61292  1.0000
  O   O9        1.0  0.2619600000000001  0.06859  0.35922  1.0000
  O   O10       1.0  0.14548  0.54228  0.38707  1.0000
  O   O11       1.0  0.68636  0.10989  0.21651  1.0000
  O   O12       1.0  0.4294799999999999  0.5936  0.98319  1.0000
  O   O13       1.0  0.69115  0.19389999999999996  0.52801  1.0000
  O   O14       1.0  0.8962700000000001  0.24985000000000004  0.5325400000000001  1.0000
  O   O15       1.0  0.37572  0.76164  0.10784  1.0000
  O   O16       1.0  0.30887  0.80609  0.47199  1.0000
  O   O17       1.0  0.72112  0.4402  0.67909  1.0000
  O   O18       1.0  0.57052  0.40639  0.01679  1.0000
  O   O19       1.0  0.73824  0.9314599999999997  0.64084  1.0000
  O   O20       1.0  0.5066799999999999  0.7250799999999998  0.19353  1.0000
