data_image0
_chemical_formula_structural       Cu8H96C96O56
_chemical_formula_sum              "Cu8 H96 C96 O56"
_cell_length_a       11.84811
_cell_length_b       18.44717
_cell_length_c       18.84673
_cell_angle_alpha    90.00721
_cell_angle_beta     90.0
_cell_angle_gamma    90.0

_space_group_name_H-M_alt    "P 1"
_space_group_IT_number       1

loop_
  _space_group_symop_operation_xyz
  'x, y, z'

loop_
  _atom_site_type_symbol
  _atom_site_label
  _atom_site_symmetry_multiplicity
  _atom_site_fract_x
  _atom_site_fract_y
  _atom_site_fract_z
  _atom_site_occupancy
  Cu  Cu1       1.0  0.08932000000000002  0.27909  0.27065  1.0000
  Cu  Cu2       1.0  0.9388400000000001  0.21254  0.20618999999999996  1.0000
  Cu  Cu3       1.0  0.08932000000000002  0.72091  0.72935  1.0000
  Cu  Cu4       1.0  0.9388400000000001  0.78745  0.7938199999999999  1.0000
  Cu  Cu5       1.0  0.9111  0.21975999999999998  0.7704199999999998  1.0000
  Cu  Cu6       1.0  0.06219000000000001  0.28605  0.7058199999999999  1.0000
  Cu  Cu7       1.0  0.9111  0.78024  0.22957999999999998  1.0000
  Cu  Cu8       1.0  0.06219000000000001  0.71395  0.2941799999999999  1.0000
  H   H1        1.0  0.9668700000000002  0.49560999999999994  0.25149  1.0000
  H   H2        1.0  0.66874  0.37517  0.19412999999999997  1.0000
  H   H3        1.0  0.65597  0.60881  0.21397  1.0000
  H   H4        1.0  0.4833400000000001  0.57116  0.25421  1.0000
  H   H5        1.0  0.47838  0.58589  0.1599  1.0000
  H   H6        1.0  0.32123000000000007  0.49389999999999995  0.1514  1.0000
  H   H7        1.0  0.28815  0.57112  0.20413  1.0000
  H   H8        1.0  0.17158000000000004  0.52897  0.29485  1.0000
  H   H9        1.0  0.15130000000000002  0.45591  0.23350999999999997  1.0000
  H   H10       1.0  0.10129000000000002  0.4186  0.35723999999999995  1.0000
  H   H11       1.0  0.24224  0.43877  0.3856299999999999  1.0000
  H   H12       1.0  0.02337  0.24863999999999997  0.9881099999999999  1.0000
  H   H13       1.0  0.29987  0.34816  0.09889999999999999  1.0000
  H   H14       1.0  0.29398  0.34611  0.8697099999999998  1.0000
  H   H15       1.0  0.45762  0.45797  0.05692  1.0000
  H   H16       1.0  0.46942000000000006  0.3632  0.07608  1.0000
  H   H17       1.0  0.6563900000000001  0.4273  0.05088  1.0000
  H   H18       1.0  0.61206  0.43421  0.9606599999999998  1.0000
  H   H19       1.0  0.7552900000000001  0.32595  0.9219899999999999  1.0000
  H   H20       1.0  0.80153  0.35101  0.008669999999999999  1.0000
  H   H21       1.0  0.7532600000000002  0.22886999999999996  0.05433  1.0000
  H   H22       1.0  0.8610500000000001  0.22689  0.98877  1.0000
  H   H23       1.0  0.28845  0.35568  0.28749  1.0000
  H   H24       1.0  0.72439  0.18587  0.9106499999999998  1.0000
  H   H25       1.0  0.9668700000000002  0.50439  0.74851  1.0000
  H   H26       1.0  0.66874  0.62483  0.8058699999999999  1.0000
  H   H27       1.0  0.65597  0.39119  0.7860299999999999  1.0000
  H   H28       1.0  0.4833400000000001  0.42883  0.74579  1.0000
  H   H29       1.0  0.47838  0.41411  0.8400999999999997  1.0000
  H   H30       1.0  0.32123000000000007  0.5061  0.8486  1.0000
  H   H31       1.0  0.28815  0.42888  0.79587  1.0000
  H   H32       1.0  0.17158000000000004  0.47103  0.70516  1.0000
  H   H33       1.0  0.15130000000000002  0.54409  0.7665  1.0000
  H   H34       1.0  0.10129000000000002  0.5814  0.6427599999999998  1.0000
  H   H35       1.0  0.24224  0.56123  0.6143799999999999  1.0000
  H   H36       1.0  0.02337  0.75136  0.0119  1.0000
  H   H37       1.0  0.29987  0.65184  0.9010999999999999  1.0000
  H   H38       1.0  0.29398  0.65389  0.13028999999999996  1.0000
  H   H39       1.0  0.45762  0.54203  0.94308  1.0000
  H   H40       1.0  0.46942000000000006  0.6368  0.92392  1.0000
  H   H41       1.0  0.6563900000000001  0.5727  0.9491199999999999  1.0000
  H   H42       1.0  0.61206  0.56579  0.03935  1.0000
  H   H43       1.0  0.7552900000000001  0.67405  0.07801  1.0000
  H   H44       1.0  0.80153  0.64898  0.99133  1.0000
  H   H45       1.0  0.7532600000000002  0.77113  0.9456699999999998  1.0000
  H   H46       1.0  0.8610500000000001  0.77311  0.011229999999999997  1.0000
  H   H47       1.0  0.28845  0.64431  0.7125099999999998  1.0000
  H   H48       1.0  0.72439  0.81413  0.08936  1.0000
  H   H49       1.0  0.03681  0.00606  0.75299  1.0000
  H   H50       1.0  0.3364  0.12430000000000001  0.6945399999999998  1.0000
  H   H51       1.0  0.34549  0.89063  0.71472  1.0000
  H   H52       1.0  0.51868  0.92693  0.75448  1.0000
  H   H53       1.0  0.52379  0.91222  0.6601899999999999  1.0000
  H   H54       1.0  0.6815300000000001  0.00316  0.6513899999999998  1.0000
  H   H55       1.0  0.71434  0.9263799999999999  0.7047999999999998  1.0000
  H   H56       1.0  0.83196  0.96944  0.7944699999999998  1.0000
  H   H57       1.0  0.85168  0.04265  0.7332899999999998  1.0000
  H   H58       1.0  0.90053  0.08038  0.8574699999999998  1.0000
  H   H59       1.0  0.75964  0.058899999999999994  0.8852299999999997  1.0000
  H   H60       1.0  0.97605  0.24942  0.48812999999999995  1.0000
  H   H61       1.0  0.69893  0.15103  0.59918  1.0000
  H   H62       1.0  0.70319  0.15411  0.3700499999999999  1.0000
  H   H63       1.0  0.53894  0.04192  0.5556699999999998  1.0000
  H   H64       1.0  0.5304100000000002  0.13595  0.57792  1.0000
  H   H65       1.0  0.34151  0.07141  0.5513699999999998  1.0000
  H   H66       1.0  0.38380000000000003  0.07242  0.46053999999999995  1.0000
  H   H67       1.0  0.24612000000000003  0.17495  0.42654999999999993  1.0000
  H   H68       1.0  0.19286000000000003  0.15187  0.51237  1.0000
  H   H69       1.0  0.23568  0.27659  0.55551  1.0000
  H   H70       1.0  0.13341000000000003  0.27402  0.4866199999999999  1.0000
  H   H71       1.0  0.71249  0.14179  0.78731  1.0000
  H   H72       1.0  0.27383  0.31366  0.4110999999999999  1.0000
  H   H73       1.0  0.03681  0.9939400000000002  0.24701  1.0000
  H   H74       1.0  0.3364  0.87569  0.30545999999999995  1.0000
  H   H75       1.0  0.34549  0.10936000000000001  0.28529  1.0000
  H   H76       1.0  0.51868  0.07307  0.24553  1.0000
  H   H77       1.0  0.52379  0.08778  0.33981  1.0000
  H   H78       1.0  0.6815300000000001  0.99684  0.34861  1.0000
  H   H79       1.0  0.71434  0.07362  0.29521  1.0000
  H   H80       1.0  0.83196  0.030560000000000004  0.20552999999999993  1.0000
  H   H81       1.0  0.85168  0.95735  0.26671  1.0000
  H   H82       1.0  0.90053  0.9196200000000001  0.14254  1.0000
  H   H83       1.0  0.75964  0.9411  0.11477  1.0000
  H   H84       1.0  0.97605  0.75057  0.5118699999999999  1.0000
  H   H85       1.0  0.69893  0.84897  0.40081999999999995  1.0000
  H   H86       1.0  0.70319  0.84589  0.6299499999999999  1.0000
  H   H87       1.0  0.53894  0.95808  0.44433  1.0000
  H   H88       1.0  0.5304100000000002  0.86405  0.42209  1.0000
  H   H89       1.0  0.34151  0.92858  0.44863  1.0000
  H   H90       1.0  0.38380000000000003  0.9275799999999998  0.5394599999999999  1.0000
  H   H91       1.0  0.24612000000000003  0.82505  0.57345  1.0000
  H   H92       1.0  0.19286000000000003  0.84812  0.48762999999999995  1.0000
  H   H93       1.0  0.23568  0.72341  0.44449  1.0000
  H   H94       1.0  0.13341000000000003  0.72598  0.5133799999999998  1.0000
  H   H95       1.0  0.71249  0.85821  0.21269  1.0000
  H   H96       1.0  0.27383  0.68634  0.58891  1.0000
  C   C1        1.0  0.8168500000000002  0.55869  0.23345999999999997  1.0000
  C   C2        1.0  0.8782500000000001  0.49431  0.23727999999999996  1.0000
  C   C3        1.0  0.8252200000000001  0.42831  0.22164  1.0000
  C   C4        1.0  0.71029  0.42652  0.20506999999999995  1.0000
  C   C5        1.0  0.64747  0.49111999999999995  0.20474  1.0000
  C   C6        1.0  0.70124  0.55771  0.21664999999999998  1.0000
  C   C7        1.0  0.87596  0.62899  0.24687999999999996  1.0000
  C   C8        1.0  0.8922400000000003  0.3598  0.22515999999999997  1.0000
  C   C9        1.0  0.46362000000000003  0.54626  0.20268  1.0000
  C   C10       1.0  0.34155  0.52216  0.20136  1.0000
  C   C11       1.0  0.20178  0.47461999999999993  0.27907  1.0000
  C   C12       1.0  0.18956000000000006  0.42251  0.34041999999999994  1.0000
  C   C13       1.0  0.15128  0.29742  0.9216899999999999  1.0000
  C   C14       1.0  0.1031  0.27748  0.98664  1.0000
  C   C15       1.0  0.15847  0.29553  0.04957  1.0000
  C   C16       1.0  0.26111  0.33394  0.0486  1.0000
  C   C17       1.0  0.31002  0.35237  0.9834299999999999  1.0000
  C   C18       1.0  0.25505  0.33321  0.9202199999999999  1.0000
  C   C19       1.0  0.09138  0.28181  0.85367  1.0000
  C   C20       1.0  0.10682  0.27506  0.11904  1.0000
  C   C21       1.0  0.4802  0.40471  0.03498  1.0000
  C   C22       1.0  0.60174  0.40247  0.00996  1.0000
  C   C23       1.0  0.7434900000000001  0.31517  0.97915  1.0000
  C   C24       1.0  0.7704600000000001  0.2367  0.9975699999999998  1.0000
  C   C25       1.0  0.8168500000000002  0.44129999999999997  0.76654  1.0000
  C   C26       1.0  0.8782500000000001  0.50569  0.7627199999999998  1.0000
  C   C27       1.0  0.8252200000000001  0.57168  0.7783599999999999  1.0000
  C   C28       1.0  0.71029  0.57347  0.79493  1.0000
  C   C29       1.0  0.64747  0.50887  0.7952599999999997  1.0000
  C   C30       1.0  0.70124  0.44229  0.7833499999999998  1.0000
  C   C31       1.0  0.87596  0.371  0.7531199999999998  1.0000
  C   C32       1.0  0.8922400000000003  0.6402  0.7748399999999999  1.0000
  C   C33       1.0  0.46362000000000003  0.4537399999999999  0.79733  1.0000
  C   C34       1.0  0.34155  0.47784000000000004  0.79864  1.0000
  C   C35       1.0  0.20178  0.52537  0.72093  1.0000
  C   C36       1.0  0.18956000000000006  0.57749  0.65959  1.0000
  C   C37       1.0  0.15128  0.70258  0.07830999999999999  1.0000
  C   C38       1.0  0.1031  0.72252  0.013359999999999999  1.0000
  C   C39       1.0  0.15847  0.70446  0.95043  1.0000
  C   C40       1.0  0.26111  0.66605  0.9513999999999999  1.0000
  C   C41       1.0  0.31002  0.64762  0.01658  1.0000
  C   C42       1.0  0.25505  0.66679  0.07978  1.0000
  C   C43       1.0  0.09138  0.71819  0.14633  1.0000
  C   C44       1.0  0.10682  0.72494  0.88096  1.0000
  C   C45       1.0  0.4802  0.59529  0.9650199999999999  1.0000
  C   C46       1.0  0.60174  0.59752  0.99005  1.0000
  C   C47       1.0  0.7434900000000001  0.68483  0.02086  1.0000
  C   C48       1.0  0.7704600000000001  0.7633  0.0024299999999999994  1.0000
  C   C49       1.0  0.18557  0.94191  0.73467  1.0000
  C   C50       1.0  0.12538000000000002  0.00667  0.73871  1.0000
  C   C51       1.0  0.17938000000000007  0.07218  0.72277  1.0000
  C   C52       1.0  0.2942  0.07326  0.70593  1.0000
  C   C53       1.0  0.35589000000000004  0.0082  0.70552  1.0000
  C   C54       1.0  0.30109  0.9420399999999999  0.7176399999999997  1.0000
  C   C55       1.0  0.12475000000000003  0.8722199999999999  0.7473099999999999  1.0000
  C   C56       1.0  0.11254000000000002  0.14068  0.72543  1.0000
  C   C57       1.0  0.5389  0.95178  0.7029999999999997  1.0000
  C   C58       1.0  0.66122  0.9754200000000001  0.7016199999999999  1.0000
  C   C59       1.0  0.80136  0.02371  0.77883  1.0000
  C   C60       1.0  0.81248  0.07582  0.8403099999999998  1.0000
  C   C61       1.0  0.8473900000000002  0.20148  0.42172  1.0000
  C   C62       1.0  0.8960100000000001  0.22098999999999996  0.48669  1.0000
  C   C63       1.0  0.8408600000000002  0.20301  0.5497199999999999  1.0000
  C   C64       1.0  0.7376000000000003  0.16527  0.5488599999999999  1.0000
  C   C65       1.0  0.6877500000000002  0.14779  0.48371999999999993  1.0000
  C   C66       1.0  0.7428700000000003  0.16658  0.42044  1.0000
  C   C67       1.0  0.90759  0.21672  0.35365  1.0000
  C   C68       1.0  0.89314  0.22313  0.61913  1.0000
  C   C69       1.0  0.51711  0.09604  0.53559  1.0000
  C   C70       1.0  0.39490000000000003  0.09994  0.5121  1.0000
  C   C71       1.0  0.25311  0.18706  0.48371999999999993  1.0000
  C   C72       1.0  0.22352000000000005  0.26589  0.49868  1.0000
  C   C73       1.0  0.18557  0.05809  0.2653299999999999  1.0000
  C   C74       1.0  0.12538000000000002  0.99333  0.26129  1.0000
  C   C75       1.0  0.17938000000000007  0.92782  0.27723  1.0000
  C   C76       1.0  0.2942  0.9267400000000001  0.29407  1.0000
  C   C77       1.0  0.35589000000000004  0.9917999999999999  0.29448  1.0000
  C   C78       1.0  0.30109  0.05795999999999999  0.28236  1.0000
  C   C79       1.0  0.12475000000000003  0.12777  0.25269  1.0000
  C   C80       1.0  0.11254000000000002  0.85931  0.27458  1.0000
  C   C81       1.0  0.5389  0.04822  0.29701  1.0000
  C   C82       1.0  0.66122  0.02458  0.29839  1.0000
  C   C83       1.0  0.80136  0.9762900000000001  0.22116999999999998  1.0000
  C   C84       1.0  0.81248  0.92417  0.15969  1.0000
  C   C85       1.0  0.8473900000000002  0.79852  0.57828  1.0000
  C   C86       1.0  0.8960100000000001  0.77901  0.51332  1.0000
  C   C87       1.0  0.8408600000000002  0.79699  0.45028999999999997  1.0000
  C   C88       1.0  0.7376000000000003  0.83472  0.45114  1.0000
  C   C89       1.0  0.6877500000000002  0.85221  0.51629  1.0000
  C   C90       1.0  0.7428700000000003  0.83342  0.57956  1.0000
  C   C91       1.0  0.90759  0.78328  0.6463599999999999  1.0000
  C   C92       1.0  0.89314  0.77687  0.3808699999999999  1.0000
  C   C93       1.0  0.51711  0.9039600000000001  0.46440999999999993  1.0000
  C   C94       1.0  0.39490000000000003  0.9000599999999999  0.4878999999999999  1.0000
  C   C95       1.0  0.25311  0.81294  0.51628  1.0000
  C   C96       1.0  0.22352000000000005  0.73411  0.5013199999999999  1.0000
  O   O1        1.0  0.8503900000000001  0.30294  0.19655  1.0000
  O   O2        1.0  0.9873600000000001  0.36369  0.25712  1.0000
  O   O3        1.0  0.9712800000000003  0.62544  0.27889  1.0000
  O   O4        1.0  0.8279900000000002  0.68682  0.22478999999999996  1.0000
  O   O5        1.0  0.53418  0.48328  0.19227  1.0000
  O   O6        1.0  0.31972000000000006  0.4764399999999999  0.26119  1.0000
  O   O7        1.0  0.22327  0.34933  0.3187  1.0000
  O   O8        1.0  0.13785  0.30548  0.7967  1.0000
  O   O9        1.0  0.9982000000000001  0.24714  0.85729  1.0000
  O   O10       1.0  0.01747  0.23600999999999997  0.11732999999999999  1.0000
  O   O11       1.0  0.15525000000000003  0.29848  0.17515999999999998  1.0000
  O   O12       1.0  0.40927  0.38918  0.9743999999999999  1.0000
  O   O13       1.0  0.62886  0.32818  0.9999899999999999  1.0000
  O   O14       1.0  0.70272  0.18504  0.96072  1.0000
  O   O15       1.0  0.8503900000000001  0.69706  0.80345  1.0000
  O   O16       1.0  0.9873600000000001  0.63631  0.7428799999999999  1.0000
  O   O17       1.0  0.9712800000000003  0.37456  0.72111  1.0000
  O   O18       1.0  0.8279900000000002  0.31318  0.77521  1.0000
  O   O19       1.0  0.53418  0.51671  0.80773  1.0000
  O   O20       1.0  0.31972000000000006  0.52356  0.73881  1.0000
  O   O21       1.0  0.22327  0.65067  0.6813  1.0000
  O   O22       1.0  0.13785  0.69452  0.20331  1.0000
  O   O23       1.0  0.9982000000000001  0.75286  0.14271  1.0000
  O   O24       1.0  0.01747  0.76398  0.88267  1.0000
  O   O25       1.0  0.15525000000000003  0.70152  0.8248399999999999  1.0000
  O   O26       1.0  0.40927  0.61081  0.025609999999999994  1.0000
  O   O27       1.0  0.62886  0.67181  1e-05  1.0000
  O   O28       1.0  0.70272  0.81496  0.03928  1.0000
  O   O29       1.0  0.15458  0.19705  0.6961599999999998  1.0000
  O   O30       1.0  0.01721  0.13727  0.7571  1.0000
  O   O31       1.0  0.029090000000000005  0.87625  0.77885  1.0000
  O   O32       1.0  0.17196000000000006  0.81431  0.7247599999999998  1.0000
  O   O33       1.0  0.46909000000000006  0.015059999999999999  0.69242  1.0000
  O   O34       1.0  0.68351  0.02162  0.7610299999999999  1.0000
  O   O35       1.0  0.77732  0.14876  0.8186799999999997  1.0000
  O   O36       1.0  0.86159  0.19278  0.29662  1.0000
  O   O37       1.0  0.0007800000000000001  0.2514  0.35722999999999994  1.0000
  O   O38       1.0  0.9827  0.262  0.61733  1.0000
  O   O39       1.0  0.84488  0.1997  0.67529  1.0000
  O   O40       1.0  0.5872400000000001  0.1125  0.47469999999999996  1.0000
  O   O41       1.0  0.36615  0.17452  0.50769  1.0000
  O   O42       1.0  0.29224  0.31682  0.46151  1.0000
  O   O43       1.0  0.15458  0.80294  0.30384  1.0000
  O   O44       1.0  0.01721  0.86273  0.24289999999999998  1.0000
  O   O45       1.0  0.029090000000000005  0.12374  0.22115  1.0000
  O   O46       1.0  0.17196000000000006  0.18569  0.27523999999999993  1.0000
  O   O47       1.0  0.46909000000000006  0.98494  0.3075899999999999  1.0000
  O   O48       1.0  0.68351  0.9783799999999999  0.23896999999999993  1.0000
  O   O49       1.0  0.77732  0.85124  0.18132  1.0000
  O   O50       1.0  0.86159  0.80722  0.70338  1.0000
  O   O51       1.0  0.0007800000000000001  0.7486  0.6427699999999998  1.0000
  O   O52       1.0  0.9827  0.738  0.38266999999999995  1.0000
  O   O53       1.0  0.84488  0.8003  0.32471  1.0000
  O   O54       1.0  0.5872400000000001  0.8875000000000001  0.5253  1.0000
  O   O55       1.0  0.36615  0.82548  0.49231  1.0000
  O   O56       1.0  0.29224  0.68318  0.5384999999999999  1.0000
