data_image0
_chemical_formula_structural       Cd6H126C162N30O30
_chemical_formula_sum              "Cd6 H126 C162 N30 O30"
_cell_length_a       10.88276
_cell_length_b       20.91804
_cell_length_c       20.918569999999995
_cell_angle_alpha    120.09147
_cell_angle_beta     89.96210999999998
_cell_angle_gamma    90.0315

_space_group_name_H-M_alt    "P 1"
_space_group_IT_number       1

loop_
  _space_group_symop_operation_xyz
  'x, y, z'

loop_
  _atom_site_type_symbol
  _atom_site_label
  _atom_site_symmetry_multiplicity
  _atom_site_fract_x
  _atom_site_fract_y
  _atom_site_fract_z
  _atom_site_occupancy
  Cd  Cd1       1.0  0.93152  0.97998  0.54921  1.0000
  Cd  Cd2       1.0  0.60181  0.57115  0.01993  1.0000
  Cd  Cd3       1.0  0.26503  0.45003000000000004  0.43014  1.0000
  Cd  Cd4       1.0  0.43337  0.02005999999999998  0.44903  1.0000
  Cd  Cd5       1.0  0.10055999999999998  0.4295  0.9801199999999999  1.0000
  Cd  Cd6       1.0  0.76734  0.55143  0.57097  1.0000
  H   H1        1.0  0.84841  0.09346999999999997  0.22941  1.0000
  H   H2        1.0  0.06011999999999999  0.0718  0.26407  1.0000
  H   H3        1.0  0.08107  0.03516  0.35936  1.0000
  H   H4        1.0  0.6089  0.97442  0.20454  1.0000
  H   H5        1.0  0.39043999999999995  0.99169  0.18413  1.0000
  H   H6        1.0  0.42991  0.22265  0.35772  1.0000
  H   H7        1.0  0.64692  0.19411  0.37046  1.0000
  H   H8        1.0  0.64784  0.90218  0.51434  1.0000
  H   H9        1.0  0.6032  0.75757  0.48018  1.0000
  H   H10       1.0  0.9866999999999999  0.79863  0.5044  1.0000
  H   H11       1.0  0.77237  0.6640299999999999  0.50011  1.0000
  H   H12       1.0  0.9187699999999999  0.66948  0.46651999999999993  1.0000
  H   H13       1.0  0.68501  0.5516  0.40742999999999996  1.0000
  H   H14       1.0  0.61982  0.46859  0.27931  1.0000
  H   H15       1.0  0.7865499999999999  0.61417  0.21397999999999998  1.0000
  H   H16       1.0  0.8522299999999999  0.6972999999999999  0.3429799999999999  1.0000
  H   H17       1.0  0.60683  0.43896  0.1505  1.0000
  H   H18       1.0  0.63473  0.5093499999999999  0.129  1.0000
  H   H19       1.0  0.8072  0.36405  0.15442  1.0000
  H   H20       1.0  0.027609999999999996  0.33764  0.07914  1.0000
  H   H21       1.0  0.8370199999999998  0.50811  0.06727  1.0000
  H   H22       1.0  0.51539  0.1374899999999999  0.9063599999999999  1.0000
  H   H23       1.0  0.7272  0.1939700000000001  0.92813  1.0000
  H   H24       1.0  0.7485399999999999  0.32599  0.9648799999999998  1.0000
  H   H25       1.0  0.27673  0.2312  0.02511  1.0000
  H   H26       1.0  0.05992999999999999  0.19202  0.00793  1.0000
  H   H27       1.0  0.09685  0.13531999999999997  0.77703  1.0000
  H   H28       1.0  0.31352  0.17839  0.80581  1.0000
  H   H29       1.0  0.31794999999999995  0.6119400000000002  0.0976  1.0000
  H   H30       1.0  0.27223  0.7213  0.24269999999999997  1.0000
  H   H31       1.0  0.65571  0.70729  0.20207  1.0000
  H   H32       1.0  0.44072999999999996  0.83604  0.33681  1.0000
  H   H33       1.0  0.58685  0.7969300000000001  0.33168999999999993  1.0000
  H   H34       1.0  0.35145999999999994  0.8553199999999999  0.4486  1.0000
  H   H35       1.0  0.2855599999999999  0.80978  0.53099  1.0000
  H   H36       1.0  0.4530799999999999  0.5989  0.38521  1.0000
  H   H37       1.0  0.5193299999999998  0.6451599999999997  0.30258999999999997  1.0000
  H   H38       1.0  0.27282  0.71019  0.56023  1.0000
  H   H39       1.0  0.30197  0.61835  0.48974  1.0000
  H   H40       1.0  0.4727199999999999  0.79027  0.6352699999999999  1.0000
  H   H41       1.0  0.69355  0.74239  0.66212  1.0000
  H   H42       1.0  0.5043  0.55874  0.49156000000000005  1.0000
  H   H43       1.0  0.1815  0.7701900000000002  0.8639499999999999  1.0000
  H   H44       1.0  0.39342  0.7355  0.80741  1.0000
  H   H45       1.0  0.41487  0.64005  0.6753399999999999  1.0000
  H   H46       1.0  0.9427199999999999  0.79522  0.76976  1.0000
  H   H47       1.0  0.7253  0.8163299999999999  0.8080799999999999  1.0000
  H   H48       1.0  0.76349  0.6428900000000001  0.86553  1.0000
  H   H49       1.0  0.98058  0.62945  0.82339  1.0000
  H   H50       1.0  0.98189  0.48545999999999995  0.38789999999999997  1.0000
  H   H51       1.0  0.9373299999999999  0.51994  0.2778  1.0000
  H   H52       1.0  0.32071999999999995  0.49488000000000004  0.29376  1.0000
  H   H53       1.0  0.10704  0.49932  0.1637  1.0000
  H   H54       1.0  0.25303  0.53338  0.20313  1.0000
  H   H55       1.0  0.01835  0.59196  0.14424  1.0000
  H   H56       1.0  0.9527699999999999  0.72005  0.18972999999999998  1.0000
  H   H57       1.0  0.12012999999999999  0.7856  0.40064  1.0000
  H   H58       1.0  0.18595999999999996  0.65659  0.35440999999999995  1.0000
  H   H59       1.0  0.9396099999999998  0.84918  0.28975  1.0000
  H   H60       1.0  0.9690099999999999  0.87054  0.38148  1.0000
  H   H61       1.0  0.14021  0.84402  0.20968999999999993  1.0000
  H   H62       1.0  0.36076  0.9191800000000002  0.25785  1.0000
  H   H63       1.0  0.17059  0.93275  0.4413  1.0000
  H   H64       1.0  0.3456199999999999  0.9063699999999999  0.76845  1.0000
  H   H65       1.0  0.55733  0.92871  0.73421  1.0000
  H   H66       1.0  0.57865  0.96577  0.63916  1.0000
  H   H67       1.0  0.10552999999999998  0.02584999999999999  0.79246  1.0000
  H   H68       1.0  0.8887499999999999  0.008490000000000043  0.81442  1.0000
  H   H69       1.0  0.92785  0.77682  0.64246  1.0000
  H   H70       1.0  0.14448  0.80566  0.628  1.0000
  H   H71       1.0  0.15015  0.09771999999999995  0.48552999999999996  1.0000
  H   H72       1.0  0.10477999999999998  0.24245999999999998  0.52035  1.0000
  H   H73       1.0  0.48827  0.20174999999999998  0.49445  1.0000
  H   H74       1.0  0.27307  0.33619999999999994  0.49971  1.0000
  H   H75       1.0  0.4196  0.33107  0.53318  1.0000
  H   H76       1.0  0.18549999999999994  0.44865  0.59279  1.0000
  H   H77       1.0  0.12072  0.5313799999999999  0.7210599999999999  1.0000
  H   H78       1.0  0.28764  0.38534  0.7856  1.0000
  H   H79       1.0  0.35306  0.30251999999999996  0.65642  1.0000
  H   H80       1.0  0.10830999999999999  0.5606999999999999  0.84995  1.0000
  H   H81       1.0  0.13698  0.4902  0.87117  1.0000
  H   H82       1.0  0.30861  0.6356399999999999  0.8452999999999999  1.0000
  H   H83       1.0  0.5289199999999998  0.6625599999999999  0.9205499999999999  1.0000
  H   H84       1.0  0.33919  0.49178999999999995  0.9326299999999998  1.0000
  H   H85       1.0  0.01611  0.86346  0.09495  1.0000
  H   H86       1.0  0.22758999999999996  0.8067399999999999  0.0724  1.0000
  H   H87       1.0  0.24917  0.67492  0.03584  1.0000
  H   H88       1.0  0.77632  0.76944  0.9746499999999999  1.0000
  H   H89       1.0  0.55883  0.80736  0.99183  1.0000
  H   H90       1.0  0.59664  0.86466  0.22252999999999998  1.0000
  H   H91       1.0  0.81393  0.8227199999999999  0.19407  1.0000
  H   H92       1.0  0.81722  0.38854  0.90211  1.0000
  H   H93       1.0  0.7722  0.27835  0.75728  1.0000
  H   H94       1.0  0.15562  0.29344999999999993  0.7984  1.0000
  H   H95       1.0  0.9415799999999999  0.16377999999999995  0.66348  1.0000
  H   H96       1.0  0.08754999999999999  0.20322999999999997  0.66885  1.0000
  H   H97       1.0  0.85202  0.14442999999999995  0.55179  1.0000
  H   H98       1.0  0.7852799999999999  0.18993999999999994  0.46963  1.0000
  H   H99       1.0  0.95357  0.4008299999999999  0.6148799999999999  1.0000
  H   H100      1.0  0.02033  0.35464  0.69737  1.0000
  H   H101      1.0  0.77156  0.28935  0.44048  1.0000
  H   H102      1.0  0.8000599999999999  0.38128  0.51088  1.0000
  H   H103      1.0  0.97172  0.21021  0.36447  1.0000
  H   H104      1.0  0.19235  0.25906  0.33826999999999996  1.0000
  H   H105      1.0  0.0020200000000000005  0.44162  0.50943  1.0000
  H   H106      1.0  0.67959  0.23047  0.13759  1.0000
  H   H107      1.0  0.89117  0.26509  0.19429  1.0000
  H   H108      1.0  0.91215  0.36063  0.32633  1.0000
  H   H109      1.0  0.43971  0.20556999999999997  0.23123999999999997  1.0000
  H   H110      1.0  0.22242999999999993  0.18405  0.19217  1.0000
  H   H111      1.0  0.26198999999999995  0.35777  0.13536  1.0000
  H   H112      1.0  0.47835  0.37162  0.17818  1.0000
  H   H113      1.0  0.48414  0.5142  0.61183  1.0000
  H   H114      1.0  0.43934999999999996  0.47935  0.72174  1.0000
  H   H115      1.0  0.82262  0.5058499999999998  0.7066799999999998  1.0000
  H   H116      1.0  0.60908  0.50058  0.83625  1.0000
  H   H117      1.0  0.75486  0.4663399999999999  0.7965899999999999  1.0000
  H   H118      1.0  0.5198  0.4080599999999999  0.85566  1.0000
  H   H119      1.0  0.45294  0.2802299999999999  0.8100799999999999  1.0000
  H   H120      1.0  0.61983  0.21443999999999988  0.5989399999999999  1.0000
  H   H121      1.0  0.6867  0.34328  0.64521  1.0000
  H   H122      1.0  0.43881  0.15151  0.71058  1.0000
  H   H123      1.0  0.46718999999999994  0.12981  0.61862  1.0000
  H   H124      1.0  0.63899  0.15510999999999994  0.78961  1.0000
  H   H125      1.0  0.85951  0.07991  0.7407  1.0000
  H   H126      1.0  0.66901  0.06765999999999998  0.55813  1.0000
  C   C1        1.0  0.8982799999999997  0.011480000000000034  0.43549  1.0000
  C   C2        1.0  0.65363  0.03927999999999995  0.39546999999999993  1.0000
  C   C3        1.0  0.88653  0.033990000000000006  0.37778  1.0000
  C   C4        1.0  0.76806  0.04572  0.35815  1.0000
  C   C5        1.0  0.7570799999999999  0.06764000000000003  0.30501  1.0000
  C   C6        1.0  0.86057  0.07624000000000003  0.27024  1.0000
  C   C7        1.0  0.9779099999999997  0.06393999999999997  0.28941  1.0000
  C   C8        1.0  0.99006  0.04362  0.34343  1.0000
  C   C9        1.0  0.56304  0.027330000000000007  0.23606  1.0000
  C   C10       1.0  0.44256  0.038269999999999985  0.22615999999999997  1.0000
  C   C11       1.0  0.383  0.10938000000000003  0.27081  1.0000
  C   C12       1.0  0.4648799999999999  0.16668  0.32377  1.0000
  C   C13       1.0  0.5848  0.15234  0.33095  1.0000
  C   C14       1.0  0.71184  0.8594199999999999  0.5075699999999999  1.0000
  C   C15       1.0  0.6879  0.7882299999999999  0.49067999999999995  1.0000
  C   C16       1.0  0.8892999999999999  0.8077500000000001  0.50245  1.0000
  C   C17       1.0  0.82006  0.6778299999999998  0.46240999999999993  1.0000
  C   C18       1.0  0.77519  0.62935  0.384  1.0000
  C   C19       1.0  0.7082399999999999  0.56533  0.36522  1.0000
  C   C20       1.0  0.67119  0.51831  0.29232  1.0000
  C   C21       1.0  0.69972  0.53522  0.23737999999999998  1.0000
  C   C22       1.0  0.76357  0.60073  0.25656  1.0000
  C   C23       1.0  0.80102  0.64732  0.32916999999999996  1.0000
  C   C24       1.0  0.67283  0.48151000000000005  0.15715  1.0000
  C   C25       1.0  0.84646  0.38883  0.12446  1.0000
  C   C26       1.0  0.95554  0.37674  0.08713999999999998  1.0000
  C   C27       1.0  0.86019  0.46534  0.08001  1.0000
  C   C28       1.0  0.5655  0.42544  0.9879  1.0000
  C   C29       1.0  0.32177  0.35753999999999997  0.9604000000000001  1.0000
  C   C30       1.0  0.55407  0.3452799999999998  0.9656199999999999  1.0000
  C   C31       1.0  0.43579  0.31387000000000004  0.95391  1.0000
  C   C32       1.0  0.42435  0.23882999999999988  0.9319099999999999  1.0000
  C   C33       1.0  0.52774  0.19552  0.92337  1.0000
  C   C34       1.0  0.6451099999999999  0.22709999999999997  0.93585  1.0000
  C   C35       1.0  0.65754  0.3014599999999999  0.9561799999999999  1.0000
  C   C36       1.0  0.23085  0.20971999999999996  0.9721899999999999  1.0000
  C   C37       1.0  0.11075999999999998  0.18800999999999987  0.9612099999999999  1.0000
  C   C38       1.0  0.05053  0.1616100000000001  0.8903100000000002  1.0000
  C   C39       1.0  0.13195  0.15767999999999996  0.833  1.0000
  C   C40       1.0  0.25158  0.18006999999999998  0.84738  1.0000
  C   C41       1.0  0.38155999999999995  0.64818  0.14061  1.0000
  C   C42       1.0  0.35707999999999995  0.7019  0.21202  1.0000
  C   C43       1.0  0.55847  0.69561  0.19273  1.0000
  C   C44       1.0  0.48816  0.78443  0.3229  1.0000
  C   C45       1.0  0.44229  0.75421  0.37083  1.0000
  C   C46       1.0  0.3748099999999999  0.7993099999999999  0.4347  1.0000
  C   C47       1.0  0.33734  0.77319  0.48138  1.0000
  C   C48       1.0  0.36602  0.7012699999999998  0.46427  1.0000
  C   C49       1.0  0.43014  0.655  0.3988  1.0000
  C   C50       1.0  0.46793  0.68125  0.35254  1.0000
  C   C51       1.0  0.33928  0.67462  0.51778  1.0000
  C   C52       1.0  0.51241  0.7355999999999998  0.61066  1.0000
  C   C53       1.0  0.6217  0.71085  0.62297  1.0000
  C   C54       1.0  0.52707  0.61445  0.53437  1.0000
  C   C55       1.0  0.23238999999999999  0.56375  0.5756099999999998  1.0000
  C   C56       1.0  0.9879  0.60452  0.64353  1.0000
  C   C57       1.0  0.22058999999999995  0.62168  0.65582  1.0000
  C   C58       1.0  0.10216999999999997  0.64154  0.6871599999999999  1.0000
  C   C59       1.0  0.09068  0.69458  0.7623  1.0000
  C   C60       1.0  0.19393999999999995  0.72924  0.80584  1.0000
  C   C61       1.0  0.31133  0.71007  0.77429  1.0000
  C   C62       1.0  0.32389  0.65604  0.69986  1.0000
  C   C63       1.0  0.8969  0.76371  0.79114  1.0000
  C   C64       1.0  0.77653  0.77391  0.81231  1.0000
  C   C65       1.0  0.7166999999999999  0.72933  0.83868  1.0000
  C   C66       1.0  0.79841  0.67635  0.84299  1.0000
  C   C67       1.0  0.9183  0.6689  0.8212  1.0000
  C   C68       1.0  0.045869999999999994  0.49212  0.3518  1.0000
  C   C69       1.0  0.02199  0.50917  0.29766999999999993  1.0000
  C   C70       1.0  0.22333  0.49695  0.30496  1.0000
  C   C71       1.0  0.15422  0.53722  0.21538  1.0000
  C   C72       1.0  0.10883  0.61551  0.24539999999999998  1.0000
  C   C73       1.0  0.04164000000000001  0.63422  0.20027  1.0000
  C   C74       1.0  0.004370000000000001  0.70711  0.22636999999999996  1.0000
  C   C75       1.0  0.03306  0.76209  0.29832  1.0000
  C   C76       1.0  0.09708  0.74296  0.34455  1.0000
  C   C77       1.0  0.13463  0.67037  0.31833  1.0000
  C   C78       1.0  0.006250000000000003  0.84236  0.32517999999999997  1.0000
  C   C79       1.0  0.17959  0.87434  0.26442  1.0000
  C   C80       1.0  0.28873  0.91168  0.28933  1.0000
  C   C81       1.0  0.19363  0.9197  0.38562  1.0000
  C   C82       1.0  0.39694999999999997  0.98876  0.56279  1.0000
  C   C83       1.0  0.15209  0.96042  0.60231  1.0000
  C   C84       1.0  0.38434999999999997  0.96631  0.62044  1.0000
  C   C85       1.0  0.26601  0.95424  0.63981  1.0000
  C   C86       1.0  0.25452  0.9322300000000001  0.69283  1.0000
  C   C87       1.0  0.35786  0.92369  0.72767  1.0000
  C   C88       1.0  0.47524  0.9363099999999999  0.70871  1.0000
  C   C89       1.0  0.48771  0.95688  0.6549  1.0000
  C   C90       1.0  0.06024  0.9726699999999998  0.7615099999999999  1.0000
  C   C91       1.0  0.94015  0.96162  0.77219  1.0000
  C   C92       1.0  0.88066  0.8903600000000002  0.7284099999999998  1.0000
  C   C93       1.0  0.9625999999999999  0.83293  0.67557  1.0000
  C   C94       1.0  0.08221  0.8473399999999998  0.6675499999999998  1.0000
  C   C95       1.0  0.21387  0.14060999999999998  0.49213999999999997  1.0000
  C   C96       1.0  0.18958  0.21182  0.50934  1.0000
  C   C97       1.0  0.39095  0.19252000000000005  0.49669  1.0000
  C   C98       1.0  0.32098  0.32247  0.53736  1.0000
  C   C99       1.0  0.27604999999999996  0.37074999999999997  0.6158199999999999  1.0000
  C   C100      1.0  0.20901  0.43478  0.63486  1.0000
  C   C101      1.0  0.17216  0.48165  0.70786  1.0000
  C   C102      1.0  0.20095  0.4645699999999999  0.7626399999999999  1.0000
  C   C103      1.0  0.26468  0.3989799999999999  0.7431699999999999  1.0000
  C   C104      1.0  0.30194  0.35256  0.67047  1.0000
  C   C105      1.0  0.17454  0.51817  0.84299  1.0000
  C   C106      1.0  0.34798  0.611  0.87533  1.0000
  C   C107      1.0  0.4570199999999999  0.6233699999999999  0.9126699999999999  1.0000
  C   C108      1.0  0.3621  0.5346499999999998  0.91994  1.0000
  C   C109      1.0  0.06699  0.57513  0.0125  1.0000
  C   C110      1.0  0.8220799999999999  0.64226  0.03702  1.0000
  C   C111      1.0  0.05473999999999998  0.65507  0.03395  1.0000
  C   C112      1.0  0.9363499999999998  0.6862699999999999  0.04487  1.0000
  C   C113      1.0  0.92467  0.76152  0.06754  1.0000
  C   C114      1.0  0.028109999999999993  0.80517  0.07701  1.0000
  C   C115      1.0  0.14545  0.77359  0.06451  1.0000
  C   C116      1.0  0.15809  0.6992  0.043959999999999985  1.0000
  C   C117      1.0  0.73043  0.79042  0.02749  1.0000
  C   C118      1.0  0.60991  0.8113999999999999  0.03845  1.0000
  C   C119      1.0  0.54961  0.83706  0.10922999999999997  1.0000
  C   C120      1.0  0.63191  0.84204  0.16656  1.0000
  C   C121      1.0  0.7518499999999999  0.82035  0.15228  1.0000
  C   C122      1.0  0.88106  0.3522099999999999  0.85927  1.0000
  C   C123      1.0  0.85695  0.29806000000000005  0.788  1.0000
  C   C124      1.0  0.05828  0.3049000000000001  0.80751  1.0000
  C   C125      1.0  0.98877  0.21548999999999993  0.67741  1.0000
  C   C126      1.0  0.94301  0.24558  0.62937  1.0000
  C   C127      1.0  0.8753  0.20045  0.56564  1.0000
  C   C128      1.0  0.83742  0.22655999999999998  0.51906  1.0000
  C   C129      1.0  0.8659599999999998  0.29849  0.53609  1.0000
  C   C130      1.0  0.9306  0.34473  0.60134  1.0000
  C   C131      1.0  0.96872  0.31852  0.64754  1.0000
  C   C132      1.0  0.8380499999999997  0.32516999999999996  0.48273999999999995  1.0000
  C   C133      1.0  0.01108  0.265  0.38944  1.0000
  C   C134      1.0  0.12023  0.29021  0.37741  1.0000
  C   C135      1.0  0.025  0.38608  0.4662899999999999  1.0000
  C   C136      1.0  0.73022  0.43733  0.42576  1.0000
  C   C137      1.0  0.48561  0.39666999999999997  0.35763  1.0000
  C   C138      1.0  0.71791  0.37935  0.34563  1.0000
  C   C139      1.0  0.5997199999999999  0.35953999999999997  0.31414999999999993  1.0000
  C   C140      1.0  0.5882  0.30628  0.23908  1.0000
  C   C141      1.0  0.69161  0.27148  0.1957  1.0000
  C   C142      1.0  0.80894  0.2907  0.22729  1.0000
  C   C143      1.0  0.82128  0.34483  0.30168  1.0000
  C   C144      1.0  0.39412  0.23711  0.2099  1.0000
  C   C145      1.0  0.27395  0.22667  0.18836999999999998  1.0000
  C   C146      1.0  0.21435  0.27117  0.16192  1.0000
  C   C147      1.0  0.2964  0.32422  0.15783999999999998  1.0000
  C   C148      1.0  0.41605  0.33197  0.18005  1.0000
  C   C149      1.0  0.54799  0.50771  0.64807  1.0000
  C   C150      1.0  0.52401  0.49045  0.70205  1.0000
  C   C151      1.0  0.7252799999999999  0.50345  0.69528  1.0000
  C   C152      1.0  0.65604  0.46265  0.78447  1.0000
  C   C153      1.0  0.6101799999999998  0.38443  0.75441  1.0000
  C   C154      1.0  0.54279  0.36582  0.79958  1.0000
  C   C155      1.0  0.50487  0.29304000000000013  0.77344  1.0000
  C   C156      1.0  0.53303  0.23804  0.70143  1.0000
  C   C157      1.0  0.59723  0.25706  0.65513  1.0000
  C   C158      1.0  0.63541  0.32956  0.68138  1.0000
  C   C159      1.0  0.50519  0.15791  0.67471  1.0000
  C   C160      1.0  0.6783  0.12508000000000002  0.73481  1.0000
  C   C161      1.0  0.78737  0.08775  0.70956  1.0000
  C   C162      1.0  0.69205  0.08036000000000003  0.61369  1.0000
  N   N1        1.0  0.83784  0.8708900000000002  0.51504  1.0000
  N   N2        1.0  0.80094  0.75614  0.48750000000000004  1.0000
  N   N3        1.0  0.78669  0.44439  0.11877999999999998  1.0000
  N   N4        1.0  0.9629299999999998  0.425  0.05981999999999999  1.0000
  N   N5        1.0  0.6356599999999999  0.08332  0.2881  1.0000
  N   N6        1.0  0.50754  0.6451  0.12926999999999997  1.0000
  N   N7        1.0  0.46976999999999997  0.73137  0.24441999999999997  1.0000
  N   N8        1.0  0.45311999999999997  0.67394  0.55511  1.0000
  N   N9        1.0  0.62965  0.63512  0.57484  1.0000
  N   N10       1.0  0.30274  0.20645000000000005  0.9163099999999998  1.0000
  N   N11       1.0  0.17182  0.48435999999999996  0.3555  1.0000
  N   N12       1.0  0.13502  0.51215  0.26856  1.0000
  N   N13       1.0  0.11999999999999997  0.8805900000000001  0.326  1.0000
  N   N14       1.0  0.29629  0.93958  0.36509  1.0000
  N   N15       1.0  0.96916  0.71147  0.79478  1.0000
  N   N16       1.0  0.33986  0.12926999999999994  0.4841  1.0000
  N   N17       1.0  0.30236  0.24408999999999992  0.5121599999999998  1.0000
  N   N18       1.0  0.2885  0.55537  0.8811  1.0000
  N   N19       1.0  0.4646399999999999  0.5752200000000001  0.94012  1.0000
  N   N20       1.0  0.13282  0.91659  0.70954  1.0000
  N   N21       1.0  0.007009999999999995  0.35563  0.87074  1.0000
  N   N22       1.0  0.9698199999999999  0.26866  0.75583  1.0000
  N   N23       1.0  0.9514  0.32635  0.44519  1.0000
  N   N24       1.0  0.12768  0.36589  0.42588  1.0000
  N   N25       1.0  0.80281  0.79375  0.08319  1.0000
  N   N26       1.0  0.67391  0.51598  0.64472  1.0000
  N   N27       1.0  0.63692  0.48780999999999997  0.73138  1.0000
  N   N28       1.0  0.61856  0.11922999999999992  0.6734599999999998  1.0000
  N   N29       1.0  0.79471  0.06022000000000001  0.63384  1.0000
  N   N30       1.0  0.46663999999999994  0.28945  0.20655  1.0000
  O   O1        1.0  0.99918  0.025579999999999978  0.47226  1.0000
  O   O2        1.0  0.80793  0.9797199999999999  0.44606  1.0000
  O   O3        1.0  0.63008  0.09197999999999999  0.4601799999999999  1.0000
  O   O4        1.0  0.58359  0.9839299999999999  0.35801  1.0000
  O   O5        1.0  0.27169  0.12129000000000001  0.26386  1.0000
  O   O6        1.0  0.66694  0.44791  0.97422  1.0000
  O   O7        1.0  0.47487  0.46774  0.01891  1.0000
  O   O8        1.0  0.29647  0.36802  0.90705  1.0000
  O   O9        1.0  0.25354  0.37658  0.01666  1.0000
  O   O10       1.0  0.9392  0.14261000000000007  0.87865  1.0000
  O   O11       1.0  0.33325999999999995  0.52704  0.55286  1.0000
  O   O12       1.0  0.14196  0.55293  0.53329  1.0000
  O   O13       1.0  0.9631699999999999  0.5401  0.63183  1.0000
  O   O14       1.0  0.91889  0.64215  0.62554  1.0000
  O   O15       1.0  0.60532  0.73635  0.85758  1.0000
  O   O16       1.0  0.49825  0.97427  0.5264  1.0000
  O   O17       1.0  0.30771  0.020759999999999997  0.55178  1.0000
  O   O18       1.0  0.12726  0.9069899999999999  0.53828  1.0000
  O   O19       1.0  0.08372  0.016659999999999977  0.6391999999999999  1.0000
  O   O20       1.0  0.7694499999999999  0.87855  0.73593  1.0000
  O   O21       1.0  0.16867999999999997  0.55283  0.02598  1.0000
  O   O22       1.0  0.97631  0.53254  0.9820099999999999  1.0000
  O   O23       1.0  0.7936899999999999  0.63255  0.09062999999999999  1.0000
  O   O24       1.0  0.75637  0.62214  0.97978  1.0000
  O   O25       1.0  0.43765  0.85466  0.12107  1.0000
  O   O26       1.0  0.83133  0.47395999999999994  0.44763  1.0000
  O   O27       1.0  0.6411999999999999  0.44817  0.46892  1.0000
  O   O28       1.0  0.46034999999999987  0.4607399999999999  0.36861  1.0000
  O   O29       1.0  0.41728  0.3594  0.37640999999999997  1.0000
  O   O30       1.0  0.10306999999999998  0.2639  0.14281  1.0000
