data_image0
_chemical_formula_structural       Cu8H128C160N32
_chemical_formula_sum              "Cu8 H128 C160 N32"
_cell_length_a       17.55813
_cell_length_b       22.35451
_cell_length_c       22.36466
_cell_angle_alpha    80.92501
_cell_angle_beta     66.66126
_cell_angle_gamma    66.69439

_symmetry_space_group_name_H-M    'P 1'
_symmetry_Int_Tables_number       1

loop_
  _symmetry_equiv_pos_as_xyz
  'x,y,z'

loop_
  _atom_site_type_symbol
  _atom_site_label
  _atom_site_symmetry_multiplicity
  _atom_site_fract_x
  _atom_site_fract_y
  _atom_site_fract_z
  _atom_site_occupancy
  Cu  Cu1       1.0  0.76468  0.48712  0.48567999999999995  1.0000
  Cu  Cu2       1.0  0.73545  0.01449  0.013020000000000002  1.0000
  Cu  Cu3       1.0  0.7497899999999998  0.5136  0.9864200000000001  1.0000
  Cu  Cu4       1.0  0.25005  0.9860400000000001  0.51394  1.0000
  Cu  Cu5       1.0  0.25076999999999994  0.48606000000000005  0.0127  1.0000
  Cu  Cu6       1.0  0.75002  0.01369  0.48567  1.0000
  Cu  Cu7       1.0  0.2361799999999999  0.51356  0.51299  1.0000
  Cu  Cu8       1.0  0.26400999999999997  0.9859800000000001  0.9860700000000001  1.0000
  H   H1        1.0  0.16369  0.06467  0.43235  1.0000
  H   H2        1.0  0.9287299999999998  0.43954  0.52642  1.0000
  H   H3        1.0  0.18209999999999993  0.12076  0.59276  1.0000
  H   H4        1.0  0.8333899999999999  0.3575  0.43084  1.0000
  H   H5        1.0  0.07085999999999995  0.23087  0.59224  1.0000
  H   H6        1.0  0.024519999999999962  0.33206  0.55135  1.0000
  H   H7        1.0  0.92667  0.24690000000000004  0.44968  1.0000
  H   H8        1.0  0.048860000000000015  0.17048  0.42678  1.0000
  H   H9        1.0  0.6597400000000001  0.43563  0.06814  1.0000
  H   H10       1.0  0.89496  0.06079000000000001  0.97172  1.0000
  H   H11       1.0  0.89665  0.37937  0.9079600000000001  1.0000
  H   H12       1.0  0.62072  0.14363000000000004  0.06818  1.0000
  H   H13       1.0  0.8955300000000003  0.26951  0.9081600000000001  1.0000
  H   H14       1.0  0.9086  0.16789000000000004  0.9478100000000002  1.0000
  H   H15       1.0  0.6224800000000001  0.25396  0.05011999999999999  1.0000
  H   H16       1.0  0.64561  0.32999  0.0738  1.0000
  H   H17       1.0  0.33682999999999996  0.06763  0.43538  1.0000
  H   H18       1.0  0.5721499999999999  0.9731700000000001  0.06054  1.0000
  H   H19       1.0  0.31766999999999995  0.90745  0.37943  1.0000
  H   H20       1.0  0.66728  0.06887  0.14279  1.0000
  H   H21       1.0  0.42860999999999994  0.90802  0.26925  1.0000
  H   H22       1.0  0.47585999999999995  0.9485400000000003  0.16789  1.0000
  H   H23       1.0  0.57346  0.05029  0.25322  1.0000
  H   H24       1.0  0.45132999999999995  0.0733  0.32951  1.0000
  H   H25       1.0  0.8388499999999999  0.43184  0.06513  1.0000
  H   H26       1.0  0.6053599999999999  0.5283500000000001  0.43982000000000004  1.0000
  H   H27       1.0  0.60214  0.59213  0.12174000000000001  1.0000
  H   H28       1.0  0.87952  0.43229000000000006  0.35617  1.0000
  H   H29       1.0  0.6037799999999999  0.59199  0.23132  1.0000
  H   H30       1.0  0.59103  0.55215  0.33293  1.0000
  H   H31       1.0  0.8771399999999999  0.4502300000000001  0.24610999999999997  1.0000
  H   H32       1.0  0.85336  0.42621  0.17057  1.0000
  H   H33       1.0  0.7740099999999998  0.56715  0.56412  1.0000
  H   H34       1.0  0.63313  0.47251  0.93964  1.0000
  H   H35       1.0  0.6963699999999999  0.40791000000000005  0.62185  1.0000
  H   H36       1.0  0.8096299999999998  0.5695  0.85691  1.0000
  H   H37       1.0  0.6972299999999999  0.40851000000000004  0.73159  1.0000
  H   H38       1.0  0.64445  0.44815  0.83255  1.0000
  H   H39       1.0  0.8265  0.55142  0.74664  1.0000
  H   H40       1.0  0.7825  0.57306  0.66955  1.0000
  H   H41       1.0  0.90409  0.93171  0.9356  1.0000
  H   H42       1.0  0.04471000000000001  0.027550000000000005  0.56094  1.0000
  H   H43       1.0  0.72399  0.09254000000000001  0.87971  1.0000
  H   H44       1.0  0.23593999999999987  0.93143  0.64349  1.0000
  H   H45       1.0  0.83553  0.09214  0.76952  1.0000
  H   H46       1.0  0.92346  0.05196  0.66826  1.0000
  H   H47       1.0  0.12316000000000007  0.94999  0.75396  1.0000
  H   H48       1.0  0.024329999999999827  0.92619  0.8297100000000001  1.0000
  H   H49       1.0  0.7271600000000001  0.93547  0.93318  1.0000
  H   H50       1.0  0.8659899999999997  0.56006  0.02835  1.0000
  H   H51       1.0  0.8047099999999999  0.87795  0.09226  1.0000
  H   H52       1.0  0.68987  0.64333  0.9312500000000001  1.0000
  H   H53       1.0  0.8033300000000002  0.76821  0.0921  1.0000
  H   H54       1.0  0.8550200000000001  0.66703  0.05288  1.0000
  H   H55       1.0  0.6734299999999999  0.7535100000000001  0.94945  1.0000
  H   H56       1.0  0.7181999999999998  0.83004  0.92754  1.0000
  H   H57       1.0  0.5966099999999998  0.5644100000000001  0.56835  1.0000
  H   H58       1.0  0.45547  0.9390600000000001  0.4725599999999999  1.0000
  H   H59       1.0  0.77626  0.6207100000000001  0.40737000000000007  1.0000
  H   H60       1.0  0.2641899999999999  0.8565300000000001  0.56892  1.0000
  H   H61       1.0  0.6642600000000001  0.73071  0.40777  1.0000
  H   H62       1.0  0.57668  0.83168  0.44809999999999994  1.0000
  H   H63       1.0  0.37684999999999996  0.74601  0.55034  1.0000
  H   H64       1.0  0.47597  0.6701  0.57384  1.0000
  H   H65       1.0  0.22728  0.43304  0.43509  1.0000
  H   H66       1.0  0.36729  0.52751  0.059719999999999995  1.0000
  H   H67       1.0  0.30490999999999996  0.59226  0.37739  1.0000
  H   H68       1.0  0.19061999999999998  0.43073  0.1429  1.0000
  H   H69       1.0  0.30346  0.5919500000000001  0.26779  1.0000
  H   H70       1.0  0.35622999999999994  0.5520400000000001  0.16665  1.0000
  H   H71       1.0  0.17378  0.44914  0.25306  1.0000
  H   H72       1.0  0.21827  0.42736  0.3298  1.0000
  H   H73       1.0  0.09575  0.06816  0.06422  1.0000
  H   H74       1.0  0.9552099999999999  0.9723200000000001  0.43896999999999997  1.0000
  H   H75       1.0  0.2761099999999999  0.9074700000000001  0.12001  1.0000
  H   H76       1.0  0.76416  0.06865  0.35635  1.0000
  H   H77       1.0  0.1646899999999998  0.9079200000000002  0.23031000000000001  1.0000
  H   H78       1.0  0.07653999999999989  0.9478400000000001  0.33169  1.0000
  H   H79       1.0  0.87691  0.04999  0.24592  1.0000
  H   H80       1.0  0.9756799999999997  0.07377000000000002  0.17016  1.0000
  H   H81       1.0  0.27202000000000004  0.06463  0.06694  1.0000
  H   H82       1.0  0.13404  0.4399000000000001  0.9712599999999999  1.0000
  H   H83       1.0  0.19505  0.12214000000000001  0.9075  1.0000
  H   H84       1.0  0.31007999999999986  0.35662000000000005  0.06843  1.0000
  H   H85       1.0  0.19663000000000008  0.23171  0.90771  1.0000
  H   H86       1.0  0.14470999999999998  0.33292  0.9470000000000001  1.0000
  H   H87       1.0  0.32628  0.2465  0.050440000000000006  1.0000
  H   H88       1.0  0.28093  0.17009  0.07257  1.0000
  H   H89       1.0  0.4043600000000001  0.43571  0.43096  1.0000
  H   H90       1.0  0.54456  0.06114000000000001  0.52732  1.0000
  H   H91       1.0  0.2245200000000001  0.37984  0.59212  1.0000
  H   H92       1.0  0.73624  0.14332  0.4309  1.0000
  H   H93       1.0  0.33620000000000005  0.26971  0.5917  1.0000
  H   H94       1.0  0.4235600000000001  0.16856  0.55152  1.0000
  H   H95       1.0  0.62383  0.25389  0.4492300000000001  1.0000
  H   H96       1.0  0.52472  0.32989  0.42541000000000007  1.0000
  H   H97       1.0  0.83589  0.93498  0.5679  1.0000
  H   H98       1.0  0.07261000000000002  0.56039  0.47259  1.0000
  H   H99       1.0  0.81751  0.87926  0.40729  1.0000
  H   H100      1.0  0.16702  0.64283  0.56858  1.0000
  H   H101      1.0  0.9285600000000002  0.76922  0.40765  1.0000
  H   H102      1.0  0.9761299999999999  0.66776  0.44800000000000006  1.0000
  H   H103      1.0  0.07289999999999996  0.75327  0.55023  1.0000
  H   H104      1.0  0.9505200000000001  0.8290200000000001  0.57338  1.0000
  H   H105      1.0  0.34049  0.56432  0.9315900000000001  1.0000
  H   H106      1.0  0.10499  0.93904  0.028219999999999995  1.0000
  H   H107      1.0  0.10373000000000003  0.62054  0.09188  1.0000
  H   H108      1.0  0.37914000000000003  0.85663  0.9315900000000001  1.0000
  H   H109      1.0  0.10500999999999996  0.7302800000000002  0.09178  1.0000
  H   H110      1.0  0.09159999999999993  0.8319200000000001  0.05202  1.0000
  H   H111      1.0  0.3778099999999998  0.7462200000000001  0.94949  1.0000
  H   H112      1.0  0.3548600000000001  0.66976  0.92601  1.0000
  H   H113      1.0  0.6630799999999999  0.93258  0.56452  1.0000
  H   H114      1.0  0.42704999999999993  0.02733  0.93942  1.0000
  H   H115      1.0  0.6827200000000001  0.09257  0.62042  1.0000
  H   H116      1.0  0.33303999999999984  0.9310100000000001  0.85694  1.0000
  H   H117      1.0  0.5718800000000002  0.09205  0.73067  1.0000
  H   H118      1.0  0.5233799999999998  0.052140000000000006  0.83217  1.0000
  H   H119      1.0  0.42692  0.9496700000000001  0.74655  1.0000
  H   H120      1.0  0.5487599999999999  0.92689  0.67047  1.0000
  H   H121      1.0  0.16101000000000001  0.56793  0.9347000000000001  1.0000
  H   H122      1.0  0.39526  0.47195  0.55994  1.0000
  H   H123      1.0  0.39792  0.40777  0.87796  1.0000
  H   H124      1.0  0.12097999999999992  0.56793  0.64318  1.0000
  H   H125      1.0  0.39612  0.4079400000000001  0.76834  1.0000
  H   H126      1.0  0.4091299999999998  0.448  0.66699  1.0000
  H   H127      1.0  0.12299999999999997  0.54985  0.7534  1.0000
  H   H128      1.0  0.14636000000000005  0.57346  0.82928  1.0000
  C   C1        1.0  0.14025999999999997  0.10253000000000002  0.46758  1.0000
  C   C2        1.0  0.9877  0.2775  0.50151  1.0000
  C   C3        1.0  0.04897000000000001  0.21286  0.50834  1.0000
  C   C4        1.0  0.93006  0.39562  0.51018  1.0000
  C   C5        1.0  0.15200999999999998  0.134  0.55604  1.0000
  C   C6        1.0  0.87801  0.34999  0.45622  1.0000
  C   C7        1.0  0.08915999999999993  0.19574  0.55566  1.0000
  C   C8        1.0  0.9832200000000001  0.33488  0.52459  1.0000
  C   C9        1.0  0.9305900000000001  0.28783000000000003  0.4672700000000001  1.0000
  C   C10       1.0  0.07559000000000003  0.16212  0.46497  1.0000
  C   C11       1.0  0.70983  0.39777  0.03287  1.0000
  C   C12       1.0  0.76672  0.22301  0.99827  1.0000
  C   C13       1.0  0.77034  0.2874900000000001  0.99184  1.0000
  C   C14       1.0  0.83594  0.10483000000000002  0.98853  1.0000
  C   C15       1.0  0.8425999999999999  0.36621  0.9444300000000001  1.0000
  C   C16       1.0  0.68362  0.15089000000000002  0.04292  1.0000
  C   C17       1.0  0.8412699999999997  0.30456  0.9447  1.0000
  C   C18       1.0  0.8429400000000002  0.16545000000000004  0.97464  1.0000
  C   C19       1.0  0.68522  0.21291  0.03231  1.0000
  C   C20       1.0  0.70236  0.33824  0.0354  1.0000
  C   C21       1.0  0.36008  0.03242  0.3975699999999999  1.0000
  C   C22       1.0  0.51249  0.9984500000000001  0.22254  1.0000
  C   C23       1.0  0.45110999999999984  0.9917100000000001  0.28717  1.0000
  C   C24       1.0  0.5707100000000002  0.98949  0.10445  1.0000
  C   C25       1.0  0.34793  0.9440800000000001  0.36617  1.0000
  C   C26       1.0  0.62264  0.0435  0.15018  1.0000
  C   C27       1.0  0.4106999999999999  0.94449  0.30437  1.0000
  C   C28       1.0  0.51723  0.97526  0.16513  1.0000
  C   C29       1.0  0.56975  0.03261  0.21225  1.0000
  C   C30       1.0  0.42465  0.03505  0.3379  1.0000
  C   C31       1.0  0.78886  0.46719000000000005  0.10296  1.0000
  C   C32       1.0  0.73279  0.5019200000000001  0.2775  1.0000
  C   C33       1.0  0.72879  0.50818  0.21318  1.0000
  C   C34       1.0  0.6642099999999999  0.51168  0.39566  1.0000
  C   C35       1.0  0.6562800000000001  0.55563  0.13473  1.0000
  C   C36       1.0  0.81652  0.4575  0.34913  1.0000
  C   C37       1.0  0.65777  0.55531  0.19631000000000004  1.0000
  C   C38       1.0  0.65681  0.52547  0.33518  1.0000
  C   C39       1.0  0.8145099999999998  0.4680100000000001  0.28724  1.0000
  C   C40       1.0  0.79651  0.4645500000000001  0.16241  1.0000
  C   C41       1.0  0.75885  0.53219  0.60228  1.0000
  C   C42       1.0  0.73539  0.4987500000000001  0.77744  1.0000
  C   C43       1.0  0.73875  0.4918900000000001  0.71293  1.0000
  C   C44       1.0  0.6753799999999996  0.48924  0.8956200000000001  1.0000
  C   C45       1.0  0.71403  0.44436  0.63458  1.0000
  C   C46       1.0  0.7725700000000002  0.54395  0.84964  1.0000
  C   C47       1.0  0.7149799999999997  0.4448200000000001  0.69623  1.0000
  C   C48       1.0  0.68284  0.47515  0.8349999999999999  1.0000
  C   C49       1.0  0.7819699999999999  0.53324  0.78761  1.0000
  C   C50       1.0  0.76367  0.53493  0.66178  1.0000
  C   C51       1.0  0.89201  0.96712  0.89781  1.0000
  C   C52       1.0  0.010289999999999999  0.0016500000000000002  0.72296  1.0000
  C   C53       1.0  0.94209  0.008160000000000002  0.78749  1.0000
  C   C54       1.0  0.05954  0.01099  0.60492  1.0000
  C   C55       1.0  0.7910799999999999  0.05584  0.8663700000000001  1.0000
  C   C56       1.0  0.16575999999999994  0.95673  0.65081  1.0000
  C   C57       1.0  0.8542299999999999  0.05548  0.8046200000000001  1.0000
  C   C58       1.0  0.9916899999999998  0.025140000000000003  0.66555  1.0000
  C   C59       1.0  0.10186999999999999  0.96757  0.71285  1.0000
  C   C60       1.0  0.9591900000000002  0.9645300000000001  0.83817  1.0000
  C   C61       1.0  0.7421900000000003  0.89731  0.9681699999999999  1.0000
  C   C62       1.0  0.76456  0.72238  0.00207  1.0000
  C   C63       1.0  0.76158  0.78682  0.00885  1.0000
  C   C64       1.0  0.8239700000000001  0.60416  0.01157  1.0000
  C   C65       1.0  0.7869299999999999  0.8651200000000001  0.05595  1.0000
  C   C66       1.0  0.7269999999999999  0.65046  0.9568  1.0000
  C   C67       1.0  0.7855900000000001  0.80352  0.05577000000000001  1.0000
  C   C68       1.0  0.81677  0.6647  0.02572  1.0000
  C   C69       1.0  0.71787  0.71243  0.96756  1.0000
  C   C70       1.0  0.7369800000000002  0.8379  0.96565  1.0000
  C   C71       1.0  0.60852  0.60227  0.53297  1.0000
  C   C72       1.0  0.48976999999999965  0.777  0.49847  1.0000
  C   C73       1.0  0.5580300000000002  0.71249  0.49187999999999993  1.0000
  C   C74       1.0  0.44062  0.89507  0.48918  1.0000
  C   C75       1.0  0.7092099999999999  0.6339100000000001  0.44414  1.0000
  C   C76       1.0  0.33437999999999996  0.84918  0.54356  1.0000
  C   C77       1.0  0.6458299999999999  0.6955400000000002  0.44448  1.0000
  C   C78       1.0  0.50842  0.8344200000000002  0.47498  1.0000
  C   C79       1.0  0.39819999999999994  0.78711  0.53267  1.0000
  C   C80       1.0  0.54112  0.66177  0.53554  1.0000
  C   C81       1.0  0.2422900000000001  0.46809  0.397  1.0000
  C   C82       1.0  0.26501  0.50171  0.22201  1.0000
  C   C83       1.0  0.26181999999999994  0.50857  0.28647  1.0000
  C   C84       1.0  0.32503999999999994  0.51086  0.10379  1.0000
  C   C85       1.0  0.28708000000000006  0.55593  0.36462  1.0000
  C   C86       1.0  0.22772999999999996  0.45632  0.15001  1.0000
  C   C87       1.0  0.28581999999999996  0.55556  0.30308  1.0000
  C   C88       1.0  0.31765  0.52512  0.16435  1.0000
  C   C89       1.0  0.21833000000000008  0.4672  0.21201  1.0000
  C   C90       1.0  0.23717  0.4654400000000001  0.33761  1.0000
  C   C91       1.0  0.1079  0.03277  0.102  1.0000
  C   C92       1.0  0.98981  0.99826  0.2769  1.0000
  C   C93       1.0  0.057979999999999955  0.99173  0.21232  1.0000
  C   C94       1.0  0.9404799999999999  0.98897  0.39496  1.0000
  C   C95       1.0  0.20897  0.94411  0.13335  1.0000
  C   C96       1.0  0.8343300000000001  0.043320000000000004  0.34903  1.0000
  C   C97       1.0  0.14586999999999997  0.94446  0.19516  1.0000
  C   C98       1.0  0.008360000000000077  0.97477  0.33433  1.0000
  C   C99       1.0  0.89823  0.0324  0.28701  1.0000
  C   C100      1.0  0.040759999999999984  0.03536  0.16168  1.0000
  C   C101      1.0  0.25708  0.10272000000000002  0.03188  1.0000
  C   C102      1.0  0.23510999999999999  0.27759  0.99783  1.0000
  C   C103      1.0  0.23779000000000003  0.21321000000000004  0.99124  1.0000
  C   C104      1.0  0.17601999999999995  0.39581000000000005  0.98808  1.0000
  C   C105      1.0  0.21265999999999988  0.13494000000000003  0.9439300000000002  1.0000
  C   C106      1.0  0.27295  0.34951000000000004  0.04289  1.0000
  C   C107      1.0  0.21398  0.19651  0.94422  1.0000
  C   C108      1.0  0.18303  0.33525  0.97409  1.0000
  C   C109      1.0  0.28186  0.28753  0.0323  1.0000
  C   C110      1.0  0.26218  0.16215  0.03449  1.0000
  C   C111      1.0  0.39235000000000003  0.39791  0.46637  1.0000
  C   C112      1.0  0.51066  0.22312000000000004  0.50109  1.0000
  C   C113      1.0  0.44254000000000004  0.28769  0.50754  1.0000
  C   C114      1.0  0.55954  0.10507000000000002  0.51059  1.0000
  C   C115      1.0  0.29152999999999996  0.36654  0.55529  1.0000
  C   C116      1.0  0.666  0.15077  0.45618999999999993  1.0000
  C   C117      1.0  0.35475000000000007  0.30481  0.55496  1.0000
  C   C118      1.0  0.49185000000000006  0.16577  0.52467  1.0000
  C   C119      1.0  0.6022800000000003  0.21287  0.46695  1.0000
  C   C120      1.0  0.45962999999999987  0.33831000000000006  0.4638  1.0000
  C   C121      1.0  0.8593600000000003  0.89731  0.53249  1.0000
  C   C122      1.0  0.012219999999999903  0.7224400000000001  0.49827000000000005  1.0000
  C   C123      1.0  0.95069  0.7870100000000001  0.49157  1.0000
  C   C124      1.0  0.07080000000000004  0.60435  0.48908999999999997  1.0000
  C   C125      1.0  0.8477000000000001  0.86599  0.44393  1.0000
  C   C126      1.0  0.12231999999999996  0.6502100000000001  0.54331  1.0000
  C   C127      1.0  0.9104500000000001  0.8042000000000001  0.44430000000000003  1.0000
  C   C128      1.0  0.017249999999999988  0.6650200000000001  0.47489  1.0000
  C   C129      1.0  0.06927999999999998  0.71228  0.53251  1.0000
  C   C130      1.0  0.9238800000000001  0.8376299999999998  0.53512  1.0000
  C   C131      1.0  0.29046000000000005  0.60214  0.96692  1.0000
  C   C132      1.0  0.23355999999999996  0.7769  0.0016299999999999997  1.0000
  C   C133      1.0  0.23006999999999997  0.71236  0.00803  1.0000
  C   C134      1.0  0.16410000000000002  0.89508  0.01139  1.0000
  C   C135      1.0  0.1578  0.6336300000000001  0.05537000000000001  1.0000
  C   C136      1.0  0.3163699999999998  0.8492200000000001  0.9569100000000001  1.0000
  C   C137      1.0  0.15917999999999996  0.6952600000000001  0.05517  1.0000
  C   C138      1.0  0.15724999999999997  0.83441  0.025270000000000004  1.0000
  C   C139      1.0  0.31495999999999996  0.7871300000000001  0.9674899999999999  1.0000
  C   C140      1.0  0.2980300000000001  0.6616300000000002  0.9644299999999999  1.0000
  C   C141      1.0  0.63991  0.9677600000000001  0.60236  1.0000
  C   C142      1.0  0.48752999999999996  0.00177  0.77735  1.0000
  C   C143      1.0  0.5489900000000001  0.00853  0.71275  1.0000
  C   C144      1.0  0.42890999999999996  0.01082  0.89545  1.0000
  C   C145      1.0  0.65233  0.056  0.63369  1.0000
  C   C146      1.0  0.37760000000000005  0.9564499999999999  0.84957  1.0000
  C   C147      1.0  0.58958  0.05566000000000001  0.69552  1.0000
  C   C148      1.0  0.48241999999999996  0.025140000000000003  0.83481  1.0000
  C   C149      1.0  0.43053  0.96742  0.7875300000000001  1.0000
  C   C150      1.0  0.57539  0.96517  0.66205  1.0000
  C   C151      1.0  0.21111000000000002  0.5327300000000001  0.89676  1.0000
  C   C152      1.0  0.26726  0.49808  0.7222  1.0000
  C   C153      1.0  0.2711399999999999  0.49171  0.78658  1.0000
  C   C154      1.0  0.33627000000000007  0.48851  0.60403  1.0000
  C   C155      1.0  0.3438300000000001  0.44434  0.86494  1.0000
  C   C156      1.0  0.18393  0.54261  0.65029  1.0000
  C   C157      1.0  0.34220000000000006  0.4445900000000001  0.80342  1.0000
  C   C158      1.0  0.34341999999999995  0.4746100000000001  0.6646  1.0000
  C   C159      1.0  0.18566  0.53204  0.71229  1.0000
  C   C160      1.0  0.20335000000000011  0.53525  0.8373699999999998  1.0000
  N   N1        1.0  0.8773699999999999  0.40525  0.4754300000000001  1.0000
  N   N2        1.0  0.18117  0.08699000000000001  0.51161  1.0000
  N   N3        1.0  0.75771  0.09548000000000001  0.02337  1.0000
  N   N4        1.0  0.7796099999999999  0.41323000000000004  0.98886  1.0000
  N   N5        1.0  0.62349  0.02421  0.09487  1.0000
  N   N6        1.0  0.31904999999999983  0.9884200000000001  0.4132  1.0000
  N   N7        1.0  0.7426699999999998  0.4770500000000001  0.40468  1.0000
  N   N8        1.0  0.71913  0.5113000000000001  0.0876  1.0000
  N   N9        1.0  0.7182900000000001  0.52419  0.90504  1.0000
  N   N10       1.0  0.7328199999999999  0.4884300000000001  0.5872  1.0000
  N   N11       1.0  0.14718999999999977  0.9761300000000002  0.59549  1.0000
  N   N12       1.0  0.80678  0.011320000000000004  0.9134  1.0000
  N   N13       1.0  0.78107  0.59493  0.9765300000000001  1.0000
  N   N14       1.0  0.76835  0.9124300000000001  0.01179  1.0000
  N   N15       1.0  0.35297  0.90451  0.52411  1.0000
  N   N16       1.0  0.6937400000000001  0.58689  0.4887599999999999  1.0000
  N   N17       1.0  0.2820199999999999  0.4759300000000001  0.09451  1.0000
  N   N18       1.0  0.2684699999999998  0.51181  0.41200000000000003  1.0000
  N   N19       1.0  0.85286  0.02391  0.40436999999999995  1.0000
  N   N20       1.0  0.19313  0.9886100000000001  0.08634  1.0000
  N   N21       1.0  0.21907000000000001  0.40502  0.02301  1.0000
  N   N22       1.0  0.23114999999999997  0.08758  0.98809  1.0000
  N   N23       1.0  0.6472399999999999  0.0955  0.47570000000000007  1.0000
  N   N24       1.0  0.30716999999999994  0.41347  0.51062  1.0000
  N   N25       1.0  0.12345999999999996  0.59488  0.52384  1.0000
  N   N26       1.0  0.8186499999999999  0.9130100000000001  0.48832000000000003  1.0000
  N   N27       1.0  0.24219999999999997  0.9045700000000001  0.9764900000000001  1.0000
  N   N28       1.0  0.22071999999999997  0.58666  0.01088  1.0000
  N   N29       1.0  0.37648999999999994  0.97585  0.9049000000000001  1.0000
  N   N30       1.0  0.681  0.01172  0.58667  1.0000
  N   N31       1.0  0.25793999999999995  0.52318  0.59482  1.0000
  N   N32       1.0  0.281  0.48873000000000005  0.9120300000000001  1.0000
