data_image0
_chemical_formula_structural       Cu8H104C192O40
_chemical_formula_sum              "Cu8 H104 C192 O40"
_cell_length_a       24.2298
_cell_length_b       24.228280000000005
_cell_length_c       40.30261
_cell_angle_alpha    107.43601
_cell_angle_beta     107.43648
_cell_angle_gamma    90.04325

_space_group_name_H-M_alt    "P 1"
_space_group_IT_number       1

loop_
  _space_group_symop_operation_xyz
  'x, y, z'

loop_
  _atom_site_type_symbol
  _atom_site_label
  _atom_site_symmetry_multiplicity
  _atom_site_fract_x
  _atom_site_fract_y
  _atom_site_fract_z
  _atom_site_occupancy
  Cu  Cu1       1.0  0.8273800000000002  0.8986699999999999  0.72852  1.0000
  Cu  Cu2       1.0  0.90026  0.8295899999999999  0.72819  1.0000
  Cu  Cu3       1.0  0.64874  0.1506  0.22814  1.0000
  Cu  Cu4       1.0  0.58014  0.07743999999999997  0.22849  1.0000
  Cu  Cu5       1.0  0.9225600000000003  0.41987  0.77151  1.0000
  Cu  Cu6       1.0  0.8493900000000001  0.35125  0.77186  1.0000
  Cu  Cu7       1.0  0.10133000000000002  0.17262  0.27148  1.0000
  Cu  Cu8       1.0  0.17041000000000003  0.09973  0.27181  1.0000
  H   H1        1.0  0.012799999999999997  0.23945999999999995  0.63723  1.0000
  H   H2        1.0  0.9927600000000002  0.31665  0.68771  1.0000
  H   H3        1.0  0.8643000000000002  0.19851999999999995  0.69131  1.0000
  H   H4        1.0  0.88244  0.12138999999999997  0.64011  1.0000
  H   H5        1.0  0.012190000000000012  0.8969999999999999  0.60849  1.0000
  H   H6        1.0  0.9840400000000001  0.86466  0.65495  1.0000
  H   H7        1.0  0.8347  0.9607  0.64038  1.0000
  H   H8        1.0  0.8610500000000001  0.9912600000000001  0.59281  1.0000
  H   H9        1.0  0.9631500000000001  0.8777799999999999  0.53875  1.0000
  H   H10       1.0  0.97613  0.18847  0.57647  1.0000
  H   H11       1.0  0.9943200000000002  0.11233999999999997  0.52568  1.0000
  H   H12       1.0  0.9454600000000001  0.05941  0.62412  1.0000
  H   H13       1.0  0.99959  0.91131  0.46868999999999994  1.0000
  H   H14       1.0  0.62453  0.39783  0.63755  1.0000
  H   H15       1.0  0.6952600000000002  0.3705  0.6877  1.0000
  H   H16       1.0  0.8270600000000002  0.4922099999999999  0.69107  1.0000
  H   H17       1.0  0.7575700000000001  0.51884  0.64026  1.0000
  H   H18       1.0  0.59588  0.7115399999999998  0.60833  1.0000
  H   H19       1.0  0.6704  0.79028  0.65463  1.0000
  H   H20       1.0  0.8052000000000001  0.6797  0.64006  1.0000
  H   H21       1.0  0.73143  0.6015700000000002  0.5926600000000001  1.0000
  H   H22       1.0  0.57488  0.6610299999999999  0.53888  1.0000
  H   H23       1.0  0.60039  0.38783999999999996  0.57655  1.0000
  H   H24       1.0  0.5318200000000001  0.41321  0.52564  1.0000
  H   H25       1.0  0.6785  0.56452  0.62409  1.0000
  H   H26       1.0  0.46853000000000006  0.55709  0.46901  1.0000
  H   H27       1.0  0.9897800000000001  0.87466  0.13751  1.0000
  H   H28       1.0  0.06707000000000003  0.9454799999999999  0.18775  1.0000
  H   H29       1.0  0.9488700000000002  0.07711999999999997  0.19119  1.0000
  H   H30       1.0  0.8715400000000002  0.007709999999999999  0.14028  1.0000
  H   H31       1.0  0.64712  0.84609  0.10852  1.0000
  H   H32       1.0  0.6144700000000001  0.92067  0.15479  1.0000
  H   H33       1.0  0.7106100000000001  0.05541000000000002  0.14003000000000002  1.0000
  H   H34       1.0  0.7414700000000001  0.98153  0.09271  1.0000
  H   H35       1.0  0.6279700000000001  0.82512  0.03905  1.0000
  H   H36       1.0  0.9386200000000001  0.85039  0.07656  1.0000
  H   H37       1.0  0.86245  0.78158  0.025820000000000003  1.0000
  H   H38       1.0  0.8095900000000001  0.92861  0.12416000000000002  1.0000
  H   H39       1.0  0.66138  0.71838  0.96909  1.0000
  H   H40       1.0  0.14795  0.263  0.1371  1.0000
  H   H41       1.0  0.12082000000000002  0.24315  0.18754  1.0000
  H   H42       1.0  0.24225  0.11468999999999999  0.19136  1.0000
  H   H43       1.0  0.26857000000000003  0.1326  0.14015  1.0000
  H   H44       1.0  0.46184000000000003  0.26219  0.10829  1.0000
  H   H45       1.0  0.5401500000000001  0.2342  0.15494  1.0000
  H   H46       1.0  0.4293100000000001  0.08491  0.14038  1.0000
  H   H47       1.0  0.35165  0.11101  0.09264  1.0000
  H   H48       1.0  0.41122  0.21439  0.03875  1.0000
  H   H49       1.0  0.13808000000000004  0.22607  0.07644  1.0000
  H   H50       1.0  0.16338  0.24365  0.02541  1.0000
  H   H51       1.0  0.3146600000000001  0.19539999999999996  0.12394  1.0000
  H   H52       1.0  0.30698  0.25167  0.9690999999999999  1.0000
  H   H53       1.0  0.7370000000000001  0.85206  0.8629  1.0000
  H   H54       1.0  0.75685  0.87918  0.81245  1.0000
  H   H55       1.0  0.88531  0.75775  0.80865  1.0000
  H   H56       1.0  0.86739  0.73144  0.85986  1.0000
  H   H57       1.0  0.7378100000000001  0.53815  0.8917099999999999  1.0000
  H   H58       1.0  0.7658000000000003  0.45984  0.84506  1.0000
  H   H59       1.0  0.9150800000000002  0.5707  0.85963  1.0000
  H   H60       1.0  0.88897  0.6483499999999999  0.9073700000000001  1.0000
  H   H61       1.0  0.78561  0.58878  0.9612600000000001  1.0000
  H   H62       1.0  0.77393  0.86193  0.92356  1.0000
  H   H63       1.0  0.75634  0.83663  0.97459  1.0000
  H   H64       1.0  0.8046  0.68534  0.87607  1.0000
  H   H65       1.0  0.7483300000000002  0.6929999999999998  0.030900000000000004  1.0000
  H   H66       1.0  0.12532999999999994  0.010219999999999983  0.86249  1.0000
  H   H67       1.0  0.05451000000000002  0.93293  0.81225  1.0000
  H   H68       1.0  0.92288  0.05114000000000006  0.8088200000000001  1.0000
  H   H69       1.0  0.99229  0.12847  0.85973  1.0000
  H   H70       1.0  0.15389000000000005  0.3528800000000002  0.8914800000000002  1.0000
  H   H71       1.0  0.07931999999999997  0.38553  0.84521  1.0000
  H   H72       1.0  0.9445900000000003  0.28938999999999987  0.85997  1.0000
  H   H73       1.0  0.018469999999999983  0.25853000000000004  0.90729  1.0000
  H   H74       1.0  0.17487  0.3720399999999999  0.9609499999999999  1.0000
  H   H75       1.0  0.14961000000000005  0.06136999999999997  0.92344  1.0000
  H   H76       1.0  0.21841999999999998  0.13754  0.97418  1.0000
  H   H77       1.0  0.07138999999999998  0.19041  0.87584  1.0000
  H   H78       1.0  0.28161  0.33861  0.03091  1.0000
  H   H79       1.0  0.76054  0.98719  0.36278  1.0000
  H   H80       1.0  0.6833600000000002  0.007229999999999996  0.3123  1.0000
  H   H81       1.0  0.80147  0.1357  0.30868  1.0000
  H   H82       1.0  0.8786000000000002  0.11755999999999998  0.35989  1.0000
  H   H83       1.0  0.10299  0.9877999999999999  0.39151  1.0000
  H   H84       1.0  0.13534  0.015949999999999995  0.34506  1.0000
  H   H85       1.0  0.039299999999999974  0.16529  0.35962  1.0000
  H   H86       1.0  0.00872999999999997  0.13895  0.40718  1.0000
  H   H87       1.0  0.12220999999999997  0.03683999999999997  0.46124999999999994  1.0000
  H   H88       1.0  0.81154  0.02387  0.42354  1.0000
  H   H89       1.0  0.88768  0.0056900000000000275  0.47433000000000003  1.0000
  H   H90       1.0  0.9406  0.05453  0.37588  1.0000
  H   H91       1.0  0.08869  0.00039999999999998847  0.53132  1.0000
  H   H92       1.0  0.6021600000000001  0.37546  0.36245  1.0000
  H   H93       1.0  0.6295  0.30474  0.3123  1.0000
  H   H94       1.0  0.5077900000000001  0.17292999999999997  0.30893  1.0000
  H   H95       1.0  0.48115  0.24242  0.35973  1.0000
  H   H96       1.0  0.28846000000000005  0.40412  0.39167  1.0000
  H   H97       1.0  0.20972000000000005  0.32959  0.34537  1.0000
  H   H98       1.0  0.32029  0.19478999999999996  0.35995  1.0000
  H   H99       1.0  0.39843  0.26856  0.40734  1.0000
  H   H100      1.0  0.33897  0.4251  0.46111  1.0000
  H   H101      1.0  0.61215  0.39959999999999996  0.42344  1.0000
  H   H102      1.0  0.5867899999999999  0.46817  0.47434999999999994  1.0000
  H   H103      1.0  0.43549000000000004  0.32148  0.37591  1.0000
  H   H104      1.0  0.44291  0.53146  0.53098  1.0000
  C   C1        1.0  0.8919500000000002  0.89328  0.6792  1.0000
  C   C2        1.0  0.9488800000000001  0.17473  0.63473  1.0000
  C   C3        1.0  0.97959  0.23045999999999997  0.64857  1.0000
  C   C4        1.0  0.96898  0.27369  0.67708  1.0000
  C   C5        1.0  0.92713  0.2622  0.69249  1.0000
  C   C6        1.0  0.8967700000000002  0.20666  0.67924  1.0000
  C   C7        1.0  0.9074600000000003  0.16372  0.65075  1.0000
  C   C8        1.0  0.93895  0.94669  0.59755  1.0000
  C   C9        1.0  0.9728100000000002  0.91019  0.61504  1.0000
  C   C10       1.0  0.9574900000000002  0.89237  0.64118  1.0000
  C   C11       1.0  0.90788  0.9110999999999999  0.65064  1.0000
  C   C12       1.0  0.87333  0.9469  0.63304  1.0000
  C   C13       1.0  0.8885300000000003  0.9642  0.6067  1.0000
  C   C14       1.0  0.9565  0.96537  0.57001  1.0000
  C   C15       1.0  0.9620700000000001  0.025700000000000004  0.57242  1.0000
  C   C16       1.0  0.9780299999999998  0.04105999999999998  0.54449  1.0000
  C   C17       1.0  0.98852  0.9969600000000001  0.5149700000000001  1.0000
  C   C18       1.0  0.98344  0.9391799999999998  0.51402  1.0000
  C   C19       1.0  0.96798  0.92369  0.54145  1.0000
  C   C20       1.0  0.95901  0.12901  0.60403  1.0000
  C   C21       1.0  0.97346  0.14327999999999994  0.57572  1.0000
  C   C22       1.0  0.91392  0.30822000000000005  0.7222  1.0000
  C   C23       1.0  0.9830600000000002  0.10072999999999999  0.54707  1.0000
  C   C24       1.0  0.95416  0.07078000000000001  0.60194  1.0000
  C   C25       1.0  0.78685  0.78594  0.67889  1.0000
  C   C26       1.0  0.68588  0.45992999999999995  0.63483  1.0000
  C   C27       1.0  0.6690900000000002  0.41801999999999995  0.64873  1.0000
  C   C28       1.0  0.7082700000000001  0.40291999999999994  0.67706  1.0000
  C   C29       1.0  0.7655700000000001  0.42947  0.69227  1.0000
  C   C30       1.0  0.78254  0.47207  0.67913  1.0000
  C   C31       1.0  0.74329  0.48693  0.65082  1.0000
  C   C32       1.0  0.6582  0.6508  0.59746  1.0000
  C   C33       1.0  0.64179  0.70482  0.61486  1.0000
  C   C34       1.0  0.6832300000000001  0.74882  0.6409  1.0000
  C   C35       1.0  0.7423000000000002  0.73962  0.65034  1.0000
  C   C36       1.0  0.75925  0.6861899999999999  0.63276  1.0000
  C   C37       1.0  0.71776  0.6424899999999998  0.60654  1.0000
  C   C38       1.0  0.6132400000000001  0.60455  0.56998  1.0000
  C   C39       1.0  0.61026  0.54662  0.57242  1.0000
  C   C40       1.0  0.5665800000000001  0.50329  0.5445  1.0000
  C   C41       1.0  0.52664  0.51778  0.51492  1.0000
  C   C42       1.0  0.5305100000000001  0.5746399999999999  0.51398  1.0000
  C   C43       1.0  0.57317  0.61766  0.54142  1.0000
  C   C44       1.0  0.6449900000000001  0.47491  0.60411  1.0000
  C   C45       1.0  0.60234  0.43229999999999996  0.57581  1.0000
  C   C46       1.0  0.80858  0.41251  0.72169  1.0000
  C   C47       1.0  0.56423  0.44621  0.54711  1.0000
  C   C48       1.0  0.64765  0.53102  0.60195  1.0000
  C   C49       1.0  0.64293  0.03706  0.17875000000000002  1.0000
  C   C50       1.0  0.9249400000000001  0.9359600000000002  0.13483  1.0000
  C   C51       1.0  0.9807200000000003  0.9192  0.1487  1.0000
  C   C52       1.0  0.024040000000000006  0.9584199999999998  0.17707  1.0000
  C   C53       1.0  0.012649999999999993  0.015669999999999996  0.19233  1.0000
  C   C54       1.0  0.957  0.032610000000000014  0.17917  1.0000
  C   C55       1.0  0.9139300000000001  0.99337  0.15082  1.0000
  C   C56       1.0  0.69687  0.9083999999999998  0.09758  1.0000
  C   C57       1.0  0.66028  0.89202  0.11503000000000001  1.0000
  C   C58       1.0  0.64222  0.9334599999999997  0.14102  1.0000
  C   C59       1.0  0.66084  0.99252  0.15032  1.0000
  C   C60       1.0  0.6968200000000002  0.00946  0.13277  1.0000
  C   C61       1.0  0.7143500000000002  0.9679299999999998  0.1066  1.0000
  C   C62       1.0  0.7155400000000001  0.86333  0.07009000000000001  1.0000
  C   C63       1.0  0.77586  0.86026  0.07253  1.0000
  C   C64       1.0  0.79118  0.81643  0.04462  1.0000
  C   C65       1.0  0.74706  0.77645  0.01508  1.0000
  C   C66       1.0  0.6892800000000002  0.7804599999999999  0.01412  1.0000
  C   C67       1.0  0.67384  0.82325  0.04158  1.0000
  C   C68       1.0  0.8792  0.89506  0.10415  1.0000
  C   C69       1.0  0.8934400000000001  0.85232  0.07585  1.0000
  C   C70       1.0  0.05880999999999998  0.058759999999999986  0.22181999999999996  1.0000
  C   C71       1.0  0.85086  0.8140699999999998  0.04722  1.0000
  C   C72       1.0  0.82096  0.89773  0.10203  1.0000
  C   C73       1.0  0.53575  0.14209  0.17926  1.0000
  C   C74       1.0  0.21004  0.19903999999999997  0.1347  1.0000
  C   C75       1.0  0.16816000000000006  0.22983  0.14849  1.0000
  C   C76       1.0  0.15316  0.21931999999999996  0.17697  1.0000
  C   C77       1.0  0.17989  0.17755  0.19245  1.0000
  C   C78       1.0  0.22220000000000006  0.14713  0.17925  1.0000
  C   C79       1.0  0.23691000000000004  0.15768  0.15078  1.0000
  C   C80       1.0  0.40094000000000013  0.18901999999999997  0.09733  1.0000
  C   C81       1.0  0.45496000000000003  0.22284999999999996  0.11486  1.0000
  C   C82       1.0  0.49874000000000007  0.20756  0.14111  1.0000
  C   C83       1.0  0.4894  0.158  0.15064  1.0000
  C   C84       1.0  0.43598  0.12347  0.13299  1.0000
  C   C85       1.0  0.39252  0.13862  0.10655  1.0000
  C   C86       1.0  0.3547500000000001  0.20661  0.06979  1.0000
  C   C87       1.0  0.29677  0.21185  0.07219  1.0000
  C   C88       1.0  0.25343000000000004  0.22762999999999997  0.04426  1.0000
  C   C89       1.0  0.26799  0.23846999999999996  0.01482  1.0000
  C   C90       1.0  0.32496  0.23441  0.01405  1.0000
  C   C91       1.0  0.36791  0.21870999999999996  0.04135  1.0000
  C   C92       1.0  0.22507000000000002  0.20893  0.10391  1.0000
  C   C93       1.0  0.18246  0.22324  0.07559  1.0000
  C   C94       1.0  0.16364  0.16459  0.22227  1.0000
  C   C95       1.0  0.19633  0.23255  0.04683  1.0000
  C   C96       1.0  0.28116  0.20401  0.10175  1.0000
  C   C97       1.0  0.8579  0.46425  0.82074  1.0000
  C   C98       1.0  0.80096  0.78996  0.86531  1.0000
  C   C99       1.0  0.7701700000000001  0.83185  0.85151  1.0000
  C   C100      1.0  0.7806700000000002  0.84685  0.82303  1.0000
  C   C101      1.0  0.82245  0.8201099999999998  0.80756  1.0000
  C   C102      1.0  0.85287  0.7778  0.82075  1.0000
  C   C103      1.0  0.84231  0.7631  0.84923  1.0000
  C   C104      1.0  0.8109800000000003  0.59905  0.90268  1.0000
  C   C105      1.0  0.77715  0.5450300000000001  0.88514  1.0000
  C   C106      1.0  0.79243  0.50126  0.85889  1.0000
  C   C107      1.0  0.842  0.51059  0.84936  1.0000
  C   C108      1.0  0.87652  0.56402  0.86701  1.0000
  C   C109      1.0  0.8613700000000001  0.60748  0.8934599999999999  1.0000
  C   C110      1.0  0.79339  0.64525  0.93022  1.0000
  C   C111      1.0  0.7881500000000002  0.7032299999999999  0.9278200000000001  1.0000
  C   C112      1.0  0.7723700000000002  0.7465699999999998  0.95575  1.0000
  C   C113      1.0  0.76153  0.7320099999999999  0.9851900000000001  1.0000
  C   C114      1.0  0.7655900000000002  0.6750399999999998  0.98595  1.0000
  C   C115      1.0  0.78128  0.63209  0.9586600000000001  1.0000
  C   C116      1.0  0.7910600000000002  0.77493  0.8960900000000002  1.0000
  C   C117      1.0  0.7767600000000002  0.81754  0.92441  1.0000
  C   C118      1.0  0.8354100000000001  0.83636  0.77773  1.0000
  C   C119      1.0  0.7674500000000002  0.8036699999999998  0.9531700000000001  1.0000
  C   C120      1.0  0.7959900000000002  0.71884  0.89826  1.0000
  C   C121      1.0  0.96294  0.35707  0.82125  1.0000
  C   C122      1.0  0.06403000000000005  0.07506000000000003  0.86517  1.0000
  C   C123      1.0  0.08078999999999999  0.019279999999999967  0.8513  1.0000
  C   C124      1.0  0.04157  0.9759499999999998  0.82293  1.0000
  C   C125      1.0  0.9843300000000003  0.98735  0.80767  1.0000
  C   C126      1.0  0.96739  0.04299999999999999  0.82083  1.0000
  C   C127      1.0  0.006630000000000002  0.08607999999999999  0.84919  1.0000
  C   C128      1.0  0.09159000000000009  0.30313000000000007  0.9024200000000001  1.0000
  C   C129      1.0  0.10796999999999997  0.33972  0.88497  1.0000
  C   C130      1.0  0.06651999999999997  0.35778  0.85898  1.0000
  C   C131      1.0  0.0074700000000000304  0.3391599999999999  0.84968  1.0000
  C   C132      1.0  0.99054  0.30319  0.8672300000000001  1.0000
  C   C133      1.0  0.03207000000000002  0.2856399999999999  0.8934  1.0000
  C   C134      1.0  0.13666000000000003  0.28447  0.92991  1.0000
  C   C135      1.0  0.13974000000000003  0.2241400000000001  0.92747  1.0000
  C   C136      1.0  0.18356000000000008  0.20882000000000012  0.9553800000000001  1.0000
  C   C137      1.0  0.22354000000000007  0.2529399999999999  0.98492  1.0000
  C   C138      1.0  0.21952  0.31072000000000005  0.98588  1.0000
  C   C139      1.0  0.1767400000000001  0.32617000000000007  0.9584200000000002  1.0000
  C   C140      1.0  0.10494000000000003  0.12079999999999994  0.89586  1.0000
  C   C141      1.0  0.14767000000000008  0.10655000000000003  0.9241500000000001  1.0000
  C   C142      1.0  0.94124  0.94119  0.77818  1.0000
  C   C143      1.0  0.18592000000000003  0.14913000000000007  0.9527800000000001  1.0000
  C   C144      1.0  0.1022700000000001  0.17904  0.8979800000000001  1.0000
  C   C145      1.0  0.10672  0.10803999999999997  0.3208  1.0000
  C   C146      1.0  0.8252800000000002  0.05111999999999997  0.36527  1.0000
  C   C147      1.0  0.7695500000000002  0.020400000000000036  0.35143  1.0000
  C   C148      1.0  0.7263100000000001  0.031020000000000006  0.32292  1.0000
  C   C149      1.0  0.7378100000000001  0.07287  0.30751  1.0000
  C   C150      1.0  0.79334  0.10323  0.32076  1.0000
  C   C151      1.0  0.8362800000000001  0.09253999999999997  0.34925  1.0000
  C   C152      1.0  0.053309999999999996  0.06105000000000001  0.40245  1.0000
  C   C153      1.0  0.08980000000000005  0.027190000000000023  0.38497  1.0000
  C   C154      1.0  0.10762000000000002  0.04250000000000002  0.35882  1.0000
  C   C155      1.0  0.08890000000000002  0.09211  0.34935  1.0000
  C   C156      1.0  0.05308999999999997  0.12666  0.36696  1.0000
  C   C157      1.0  0.03579999999999998  0.11146  0.3933  1.0000
  C   C158      1.0  0.03463  0.04349999999999998  0.43  1.0000
  C   C159      1.0  0.9743  0.037930000000000005  0.42758  1.0000
  C   C160      1.0  0.9589500000000001  0.021970000000000024  0.4555100000000001  1.0000
  C   C161      1.0  0.0030399999999999963  0.011479999999999988  0.48504  1.0000
  C   C162      1.0  0.06081000000000003  0.016560000000000016  0.48599  1.0000
  C   C163      1.0  0.07631  0.03202  0.45856  1.0000
  C   C164      1.0  0.8710000000000003  0.04098000000000003  0.39597  1.0000
  C   C165      1.0  0.8567300000000002  0.02654000000000002  0.42429000000000006  1.0000
  C   C166      1.0  0.69178  0.08608000000000002  0.27779000000000004  1.0000
  C   C167      1.0  0.8992800000000001  0.016950000000000003  0.45294  1.0000
  C   C168      1.0  0.9292200000000002  0.045840000000000006  0.39806  1.0000
  C   C169      1.0  0.21406  0.21314  0.32111  1.0000
  C   C170      1.0  0.54007  0.3141099999999999  0.36516  1.0000
  C   C171      1.0  0.58198  0.33089999999999997  0.35127  1.0000
  C   C172      1.0  0.59708  0.29173  0.32295  1.0000
  C   C173      1.0  0.5705299999999999  0.23443  0.30773  1.0000
  C   C174      1.0  0.52793  0.21745  0.32087  1.0000
  C   C175      1.0  0.51307  0.2567  0.34918  1.0000
  C   C176      1.0  0.3492  0.34179  0.40253  1.0000
  C   C177      1.0  0.29518  0.3582099999999999  0.38514  1.0000
  C   C178      1.0  0.2511800000000001  0.31677  0.35910000000000003  1.0000
  C   C179      1.0  0.26038  0.25769  0.34967  1.0000
  C   C180      1.0  0.31381  0.24074000000000004  0.36723  1.0000
  C   C181      1.0  0.3575100000000001  0.28223  0.39346  1.0000
  C   C182      1.0  0.39546  0.38676  0.43001  1.0000
  C   C183      1.0  0.4533800000000001  0.38973  0.42757  1.0000
  C   C184      1.0  0.49671000000000004  0.43340999999999996  0.45549000000000006  1.0000
  C   C185      1.0  0.48221  0.47335  0.48507  1.0000
  C   C186      1.0  0.42536  0.46947999999999995  0.48601  1.0000
  C   C187      1.0  0.38234  0.4268199999999999  0.4585699999999999  1.0000
  C   C188      1.0  0.5250900000000001  0.355  0.39589  1.0000
  C   C189      1.0  0.5677000000000002  0.39766  0.42419  1.0000
  C   C190      1.0  0.5874900000000001  0.19140999999999997  0.27831  1.0000
  C   C191      1.0  0.5537900000000001  0.43577  0.45288  1.0000
  C   C192      1.0  0.46898  0.35234  0.39804  1.0000
  O   O1        1.0  0.8495700000000002  0.91659  0.68907  1.0000
  O   O2        1.0  0.94141  0.35879  0.73258  1.0000
  O   O3        1.0  0.8755300000000001  0.29390000000000005  0.73504  1.0000
  O   O4        1.0  0.9218900000000002  0.8560799999999998  0.69167  1.0000
  O   O5        1.0  0.9917600000000003  0.89446  0.48629000000000006  1.0000
  O   O6        1.0  0.83911  0.77242  0.68842  1.0000
  O   O7        1.0  0.79178  0.37235  0.73224  1.0000
  O   O8        1.0  0.8598300000000002  0.43942  0.73415  1.0000
  O   O9        1.0  0.7695200000000002  0.83552  0.69169  1.0000
  O   O10       1.0  0.49421  0.59155  0.48630000000000007  1.0000
  O   O11       1.0  0.6663900000000003  0.08926  0.18858  1.0000
  O   O12       1.0  0.10956000000000002  0.04208000000000003  0.23231000000000002  1.0000
  O   O13       1.0  0.044200000000000024  0.10987999999999998  0.23434000000000002  1.0000
  O   O14       1.0  0.60564  0.019680000000000017  0.19122  1.0000
  O   O15       1.0  0.64452  0.74438  0.98643  1.0000
  O   O16       1.0  0.52232  0.09973  0.18919  1.0000
  O   O17       1.0  0.12264  0.19108999999999998  0.23222  1.0000
  O   O18       1.0  0.19189000000000003  0.12735  0.23572  1.0000
  O   O19       1.0  0.58544  0.17199  0.19168  1.0000
  O   O20       1.0  0.34179000000000004  0.24426  0.9866000000000001  1.0000
  O   O21       1.0  0.9002700000000002  0.47768  0.81082  1.0000
  O   O22       1.0  0.8089100000000002  0.87736  0.76778  1.0000
  O   O23       1.0  0.8726500000000001  0.80812  0.76429  1.0000
  O   O24       1.0  0.828  0.41456  0.80832  1.0000
  O   O25       1.0  0.7557400000000001  0.6582  0.0134  1.0000
  O   O26       1.0  0.91074  0.33361  0.81142  1.0000
  O   O27       1.0  0.9579200000000002  0.8904299999999999  0.76769  1.0000
  O   O28       1.0  0.8901200000000002  0.9558  0.76566  1.0000
  O   O29       1.0  0.9803200000000002  0.39435999999999993  0.80878  1.0000
  O   O30       1.0  0.25561000000000006  0.35547  0.01357  1.0000
  O   O31       1.0  0.08341  0.15042  0.31092  1.0000
  O   O32       1.0  0.64121  0.05858  0.26742  1.0000
  O   O33       1.0  0.7061  0.12446  0.26495  1.0000
  O   O34       1.0  0.14392  0.07809999999999997  0.30834  1.0000
  O   O35       1.0  0.10553999999999997  0.008230000000000005  0.51372  1.0000
  O   O36       1.0  0.22758000000000003  0.16087000000000004  0.31158  1.0000
  O   O37       1.0  0.62765  0.20821999999999996  0.26776  1.0000
  O   O38       1.0  0.56059  0.14016  0.26586  1.0000
  O   O39       1.0  0.16449  0.23047  0.30831  1.0000
  O   O40       1.0  0.40846  0.50578  0.51369  1.0000
