data_image0
_chemical_formula_structural       Zn12H80C116N12O32
_chemical_formula_sum              "Zn12 H80 C116 N12 O32"
_cell_length_a       9.65481
_cell_length_b       19.3369
_cell_length_c       20.542070000000002
_cell_angle_alpha    103.68176
_cell_angle_beta     90.00273
_cell_angle_gamma    89.99547999999999

_symmetry_space_group_name_H-M    'P 1'
_symmetry_Int_Tables_number       1

loop_
  _symmetry_equiv_pos_as_xyz
  'x,y,z'

loop_
  _atom_site_type_symbol
  _atom_site_label
  _atom_site_symmetry_multiplicity
  _atom_site_fract_x
  _atom_site_fract_y
  _atom_site_fract_z
  _atom_site_occupancy
  Zn  Zn1       1.0  0.9145499999999999  0.78803  0.60586  1.0000
  Zn  Zn2       1.0  0.86393  0.92992  0.71223  1.0000
  Zn  Zn3       1.0  0.10128  0.91123  0.8430700000000001  1.0000
  Zn  Zn4       1.0  0.41466000000000003  0.71198  0.39412  1.0000
  Zn  Zn5       1.0  0.36435  0.57015  0.2877  1.0000
  Zn  Zn6       1.0  0.60124  0.58873  0.15684  1.0000
  Zn  Zn7       1.0  0.08545  0.21197  0.39414  1.0000
  Zn  Zn8       1.0  0.13606999999999997  0.07007000000000001  0.2877700000000001  1.0000
  Zn  Zn9       1.0  0.89872  0.08876  0.15693  1.0000
  Zn  Zn10      1.0  0.58534  0.2880099999999999  0.60587  1.0000
  Zn  Zn11      1.0  0.63569  0.42986  0.71229  1.0000
  Zn  Zn12      1.0  0.39877  0.41126999999999997  0.84314  1.0000
  H   H1        1.0  0.20476  0.57094  0.52019  1.0000
  H   H2        1.0  0.15358  0.69929  0.55727  1.0000
  H   H3        1.0  0.76204  0.53384  0.50835  1.0000
  H   H4        1.0  0.73053  0.66435  0.5465  1.0000
  H   H5        1.0  0.73612  0.65962  0.70336  1.0000
  H   H6        1.0  0.66727  0.61864  0.89728  1.0000
  H   H7        1.0  0.79353  0.8288899999999999  0.8792400000000001  1.0000
  H   H8        1.0  0.62095  0.19399999999999998  0.39372000000000007  1.0000
  H   H9        1.0  0.7769399999999999  0.9822099999999999  0.3142  1.0000
  H   H10       1.0  0.34065999999999996  0.015539999999999993  0.35334  1.0000
  H   H11       1.0  0.4261  0.9021  0.30885  1.0000
  H   H12       1.0  0.71403  0.7119899999999999  0.99327  1.0000
  H   H13       1.0  0.58497  0.8112599999999999  0.29391  1.0000
  H   H14       1.0  0.72333  0.87135  0.31889  1.0000
  H   H15       1.0  0.72837  0.86151  0.98407  1.0000
  H   H16       1.0  0.88635  0.8205200000000001  0.9982  1.0000
  H   H17       1.0  0.45923  0.87011  0.18275  1.0000
  H   H18       1.0  0.88479  0.8366  0.22992000000000004  1.0000
  H   H19       1.0  0.51999  0.8492899999999999  0.06289  1.0000
  H   H20       1.0  0.9450499999999998  0.8156299999999997  0.10999  1.0000
  H   H21       1.0  0.70481  0.92904  0.47985000000000005  1.0000
  H   H22       1.0  0.65359  0.8007  0.44278  1.0000
  H   H23       1.0  0.2620199999999999  0.9661899999999999  0.49162  1.0000
  H   H24       1.0  0.23056999999999997  0.8356699999999999  0.45343  1.0000
  H   H25       1.0  0.23629  0.84028  0.29657  1.0000
  H   H26       1.0  0.16755  0.8814599999999999  0.10267  1.0000
  H   H27       1.0  0.29342  0.67112  0.12064  1.0000
  H   H28       1.0  0.12050999999999999  0.30589000000000005  0.6064300000000001  1.0000
  H   H29       1.0  0.27714  0.51748  0.68605  1.0000
  H   H30       1.0  0.8408099999999998  0.4846599999999999  0.64684  1.0000
  H   H31       1.0  0.9264599999999998  0.59787  0.69104  1.0000
  H   H32       1.0  0.21401999999999996  0.78812  0.006690000000000001  1.0000
  H   H33       1.0  0.08509  0.68877  0.70611  1.0000
  H   H34       1.0  0.2236  0.6288  0.68115  1.0000
  H   H35       1.0  0.22844999999999996  0.63859  0.01596  1.0000
  H   H36       1.0  0.38637  0.67963  0.00184  1.0000
  H   H37       1.0  0.95935  0.62994  0.8172  1.0000
  H   H38       1.0  0.38492999999999994  0.6634599999999999  0.77014  1.0000
  H   H39       1.0  0.020029999999999996  0.6507299999999998  0.93709  1.0000
  H   H40       1.0  0.44508999999999993  0.6843999999999998  0.8901000000000001  1.0000
  H   H41       1.0  0.79525  0.42905999999999994  0.47981  1.0000
  H   H42       1.0  0.8464199999999998  0.30071  0.44273  1.0000
  H   H43       1.0  0.23796  0.46615999999999996  0.49165  1.0000
  H   H44       1.0  0.26947  0.33564000000000005  0.4535  1.0000
  H   H45       1.0  0.26389  0.34038  0.29664  1.0000
  H   H46       1.0  0.33274  0.38136  0.10272000000000002  1.0000
  H   H47       1.0  0.20647  0.17109999999999997  0.12076000000000003  1.0000
  H   H48       1.0  0.37905  0.806  0.60627  1.0000
  H   H49       1.0  0.22306  0.017790000000000018  0.6858  1.0000
  H   H50       1.0  0.65934  0.9844599999999999  0.6466500000000001  1.0000
  H   H51       1.0  0.5739  0.09789999999999999  0.69114  1.0000
  H   H52       1.0  0.28598  0.2880099999999999  0.006730000000000001  1.0000
  H   H53       1.0  0.41503  0.18874  0.70609  1.0000
  H   H54       1.0  0.27668  0.12865  0.68111  1.0000
  H   H55       1.0  0.27163  0.13849  0.01593  1.0000
  H   H56       1.0  0.11364999999999999  0.17948  0.0018  1.0000
  H   H57       1.0  0.54077  0.12989  0.81725  1.0000
  H   H58       1.0  0.11521  0.1634  0.77008  1.0000
  H   H59       1.0  0.48001  0.1507  0.93711  1.0000
  H   H60       1.0  0.05495  0.18436999999999995  0.89001  1.0000
  H   H61       1.0  0.29519  0.07095  0.52014  1.0000
  H   H62       1.0  0.34641  0.19928999999999997  0.55722  1.0000
  H   H63       1.0  0.73799  0.03381000000000003  0.5083700000000001  1.0000
  H   H64       1.0  0.76943  0.16433  0.54657  1.0000
  H   H65       1.0  0.76372  0.15971  0.70343  1.0000
  H   H66       1.0  0.83245  0.11854000000000006  0.8973200000000001  1.0000
  H   H67       1.0  0.70659  0.32887  0.8793500000000001  1.0000
  H   H68       1.0  0.8794699999999999  0.6940999999999999  0.39356  1.0000
  H   H69       1.0  0.7228699999999999  0.48252  0.31391  1.0000
  H   H70       1.0  0.15919  0.51533  0.35316  1.0000
  H   H71       1.0  0.07354  0.40213  0.30897  1.0000
  H   H72       1.0  0.7859799999999999  0.21188  0.9933  1.0000
  H   H73       1.0  0.9149099999999999  0.31122  0.29389000000000004  1.0000
  H   H74       1.0  0.7764  0.37119  0.31884  1.0000
  H   H75       1.0  0.77156  0.36141  0.98404  1.0000
  H   H76       1.0  0.61363  0.32037  0.9981600000000002  1.0000
  H   H77       1.0  0.04065  0.37004999999999993  0.1828  1.0000
  H   H78       1.0  0.61507  0.33654  0.22986000000000004  1.0000
  H   H79       1.0  0.97997  0.34926999999999997  0.0629  1.0000
  H   H80       1.0  0.55491  0.31559  0.10989  1.0000
  C   C1        1.0  0.98757  0.53884  0.51093  1.0000
  C   C2        1.0  0.09730999999999998  0.5879599999999999  0.52535  1.0000
  C   C3        1.0  0.07059  0.6602299999999998  0.54603  1.0000
  C   C4        1.0  0.8532399999999999  0.56752  0.51859  1.0000
  C   C5        1.0  0.8333099999999999  0.64058  0.53976  1.0000
  C   C6        1.0  0.349  0.16028  0.39119  1.0000
  C   C7        1.0  0.66793  0.55664  0.76627  1.0000
  C   C8        1.0  0.82169  0.79465  0.7447400000000001  1.0000
  C   C9        1.0  0.7346099999999999  0.67841  0.75754  1.0000
  C   C10       1.0  0.77037  0.7485299999999999  0.78815  1.0000
  C   C11       1.0  0.69617  0.63261  0.79784  1.0000
  C   C12       1.0  0.72601  0.72784  0.89868  1.0000
  C   C13       1.0  0.69386  0.6564999999999999  0.86752  1.0000
  C   C14       1.0  0.7644599999999999  0.77394  0.8577500000000001  1.0000
  C   C15       1.0  0.60308  0.13718  0.3766300000000001  1.0000
  C   C16       1.0  0.71281  0.08967999999999997  0.35613  1.0000
  C   C17       1.0  0.68919  0.01638  0.33255  1.0000
  C   C18       1.0  0.46751  0.10999  0.37297  1.0000
  C   C19       1.0  0.85846  0.11539999999999999  0.35658  1.0000
  C   C20       1.0  0.44474  0.03670999999999999  0.35318  1.0000
  C   C21       1.0  0.55467  0.9883799999999999  0.33254  1.0000
  C   C22       1.0  0.6673799999999999  0.85422  0.21489  1.0000
  C   C23       1.0  0.62902  0.8619099999999998  0.28806  1.0000
  C   C24       1.0  0.77311  0.81886  0.00466  1.0000
  C   C25       1.0  0.56579  0.8581699999999999  0.16712  1.0000
  C   C26       1.0  0.80405  0.8392299999999999  0.19354  1.0000
  C   C27       1.0  0.60012  0.84671  0.09954  1.0000
  C   C28       1.0  0.73706  0.8314399999999998  0.07801  1.0000
  C   C29       1.0  0.83832  0.8274999999999999  0.12565  1.0000
  C   C30       1.0  0.48757999999999996  0.9611499999999997  0.48907  1.0000
  C   C31       1.0  0.59735  0.9120399999999999  0.47466  1.0000
  C   C32       1.0  0.5706  0.83977  0.45397  1.0000
  C   C33       1.0  0.35323  0.9325  0.48139  1.0000
  C   C34       1.0  0.33333  0.8594299999999999  0.4602  1.0000
  C   C35       1.0  0.84864  0.33984  0.60892  1.0000
  C   C36       1.0  0.16821  0.94343  0.23375000000000004  1.0000
  C   C37       1.0  0.32166  0.70535  0.25518  1.0000
  C   C38       1.0  0.23462  0.8216  0.24238  1.0000
  C   C39       1.0  0.27049  0.75151  0.21175  1.0000
  C   C40       1.0  0.19633  0.8674799999999998  0.20212  1.0000
  C   C41       1.0  0.22600999999999996  0.77224  0.10127  1.0000
  C   C42       1.0  0.194  0.8436  0.13244  1.0000
  C   C43       1.0  0.26459999999999995  0.72611  0.14215  1.0000
  C   C44       1.0  0.1026  0.36271999999999993  0.62337  1.0000
  C   C45       1.0  0.2123  0.41011999999999993  0.64401  1.0000
  C   C46       1.0  0.18923999999999996  0.48345999999999995  0.6676  1.0000
  C   C47       1.0  0.96717  0.39005  0.62717  1.0000
  C   C48       1.0  0.35733  0.38399999999999995  0.6444400000000001  1.0000
  C   C49       1.0  0.9447599999999999  0.46335999999999994  0.64701  1.0000
  C   C50       1.0  0.05488  0.5115999999999999  0.66754  1.0000
  C   C51       1.0  0.16753  0.64582  0.78512  1.0000
  C   C52       1.0  0.12924  0.63814  0.71194  1.0000
  C   C53       1.0  0.27313  0.68123  0.99535  1.0000
  C   C54       1.0  0.0659  0.64188  0.8328600000000002  1.0000
  C   C55       1.0  0.30417999999999995  0.6608099999999999  0.8065000000000001  1.0000
  C   C56       1.0  0.10016  0.65332  0.90045  1.0000
  C   C57       1.0  0.2371  0.6685900000000001  0.9220000000000002  1.0000
  C   C58       1.0  0.33839  0.6725400000000001  0.8743900000000001  1.0000
  C   C59       1.0  0.012429999999999998  0.46115  0.48907  1.0000
  C   C60       1.0  0.90269  0.4120400000000001  0.47465  1.0000
  C   C61       1.0  0.92942  0.33976  0.45397  1.0000
  C   C62       1.0  0.14676  0.4324799999999999  0.48141  1.0000
  C   C63       1.0  0.16669  0.35941  0.46024  1.0000
  C   C64       1.0  0.65101  0.83972  0.60881  1.0000
  C   C65       1.0  0.33207  0.44336  0.23373  1.0000
  C   C66       1.0  0.17831  0.20535  0.25526000000000004  1.0000
  C   C67       1.0  0.2654  0.32158  0.24246  1.0000
  C   C68       1.0  0.22964  0.25147  0.21184000000000003  1.0000
  C   C69       1.0  0.30383  0.36739  0.20216  1.0000
  C   C70       1.0  0.27399  0.27216  0.10131  1.0000
  C   C71       1.0  0.30615  0.3435  0.13248000000000001  1.0000
  C   C72       1.0  0.23554  0.22605  0.14225  1.0000
  C   C73       1.0  0.39691999999999994  0.86282  0.62337  1.0000
  C   C74       1.0  0.28719  0.91032  0.64387  1.0000
  C   C75       1.0  0.3108099999999999  0.9836199999999999  0.6674500000000001  1.0000
  C   C76       1.0  0.5324899999999999  0.89  0.6270300000000001  1.0000
  C   C77       1.0  0.14154999999999998  0.8845899999999999  0.64341  1.0000
  C   C78       1.0  0.55526  0.9632899999999999  0.64681  1.0000
  C   C79       1.0  0.44533  0.011619999999999988  0.66746  1.0000
  C   C80       1.0  0.33263  0.14577000000000004  0.7851000000000001  1.0000
  C   C81       1.0  0.37099  0.13809  0.71193  1.0000
  C   C82       1.0  0.22689999999999996  0.18112999999999999  0.99534  1.0000
  C   C83       1.0  0.43421  0.14182999999999998  0.8328700000000001  1.0000
  C   C84       1.0  0.19596  0.16077  0.80646  1.0000
  C   C85       1.0  0.39988  0.15327999999999994  0.90046  1.0000
  C   C86       1.0  0.26294  0.16855999999999993  0.92199  1.0000
  C   C87       1.0  0.16168  0.17249999999999993  0.87435  1.0000
  C   C88       1.0  0.51243  0.03884000000000002  0.51093  1.0000
  C   C89       1.0  0.40265999999999996  0.08794999999999997  0.52534  1.0000
  C   C90       1.0  0.4294  0.16022  0.54603  1.0000
  C   C91       1.0  0.64677  0.06749  0.5186  1.0000
  C   C92       1.0  0.6666699999999999  0.14056  0.5398  1.0000
  C   C93       1.0  0.15138  0.66015  0.39107  1.0000
  C   C94       1.0  0.8317899999999999  0.05657000000000001  0.76625  1.0000
  C   C95       1.0  0.67834  0.29465  0.74482  1.0000
  C   C96       1.0  0.76538  0.17840000000000003  0.7576200000000001  1.0000
  C   C97       1.0  0.72951  0.24848999999999996  0.78825  1.0000
  C   C98       1.0  0.80368  0.13251999999999997  0.79788  1.0000
  C   C99       1.0  0.7739999999999999  0.22776  0.89873  1.0000
  C   C100      1.0  0.8060099999999998  0.15639999999999998  0.8675500000000002  1.0000
  C   C101      1.0  0.73541  0.27389  0.85784  1.0000
  C   C102      1.0  0.89742  0.6372799999999998  0.37661  1.0000
  C   C103      1.0  0.78774  0.58987  0.35595  1.0000
  C   C104      1.0  0.81078  0.51653  0.33237  1.0000
  C   C105      1.0  0.03285  0.60995  0.37283000000000005  1.0000
  C   C106      1.0  0.6426899999999999  0.6159599999999998  0.35553  1.0000
  C   C107      1.0  0.05524  0.53664  0.35299  1.0000
  C   C108      1.0  0.9451299999999999  0.48839  0.33245  1.0000
  C   C109      1.0  0.83247  0.35418000000000005  0.21488000000000002  1.0000
  C   C110      1.0  0.8707599999999999  0.36185999999999996  0.28805000000000003  1.0000
  C   C111      1.0  0.7268699999999999  0.31877  0.00465  1.0000
  C   C112      1.0  0.9341  0.35812  0.16714000000000004  1.0000
  C   C113      1.0  0.69582  0.33919  0.1935  1.0000
  C   C114      1.0  0.8998399999999999  0.3466699999999999  0.09955000000000001  1.0000
  C   C115      1.0  0.76291  0.33141  0.078  1.0000
  C   C116      1.0  0.66162  0.32746  0.1256  1.0000
  N   N1        1.0  0.9403299999999999  0.6866799999999998  0.55359  1.0000
  N   N2        1.0  0.52729  0.91641  0.31547  1.0000
  N   N3        1.0  0.71561  0.75085  0.9675200000000002  1.0000
  N   N4        1.0  0.44034999999999996  0.81332  0.44636000000000003  1.0000
  N   N5        1.0  0.02765  0.58358  0.6845  1.0000
  N   N6        1.0  0.21554  0.74924  0.03243000000000001  1.0000
  N   N7        1.0  0.05967  0.3133099999999999  0.4464  1.0000
  N   N8        1.0  0.47271  0.08358999999999997  0.68452  1.0000
  N   N9        1.0  0.2844  0.24915  0.03248  1.0000
  N   N10       1.0  0.55965  0.18666999999999997  0.5536300000000001  1.0000
  N   N11       1.0  0.97235  0.41640999999999995  0.3155  1.0000
  N   N12       1.0  0.78447  0.25076  0.96756  1.0000
  O   O1        1.0  0.89051  0.1755  0.39584  1.0000
  O   O2        1.0  0.89529  0.7636299999999999  0.69449  1.0000
  O   O3        1.0  0.22183  0.13205  0.38387  1.0000
  O   O4        1.0  0.79096  0.8606099999999999  0.76054  1.0000
  O   O5        1.0  0.36655  0.22541  0.41256  1.0000
  O   O6        1.0  0.67268  0.53482  0.70181  1.0000
  O   O7        1.0  0.94192  0.07428000000000001  0.31758000000000003  1.0000
  O   O8        1.0  0.64452  0.51292  0.80249  1.0000
  O   O9        1.0  0.39107  0.32516  0.60364  1.0000
  O   O10       1.0  0.39525  0.73635  0.30548  1.0000
  O   O11       1.0  0.72143  0.36807999999999996  0.61619  1.0000
  O   O12       1.0  0.29075  0.63943  0.23938000000000004  1.0000
  O   O13       1.0  0.8661599999999999  0.27472  0.58743  1.0000
  O   O14       1.0  0.17327  0.96515  0.29817  1.0000
  O   O15       1.0  0.43854999999999994  0.42344  0.6861  1.0000
  O   O16       1.0  0.14428  0.9872  0.19758000000000003  1.0000
  O   O17       1.0  0.10949999999999999  0.82449  0.60415  1.0000
  O   O18       1.0  0.10472  0.23636999999999994  0.3055  1.0000
  O   O19       1.0  0.77817  0.8679499999999999  0.61613  1.0000
  O   O20       1.0  0.20904  0.13938  0.23946  1.0000
  O   O21       1.0  0.63346  0.77458  0.58743  1.0000
  O   O22       1.0  0.32735  0.46518  0.29819  1.0000
  O   O23       1.0  0.05808  0.9256999999999999  0.68242  1.0000
  O   O24       1.0  0.35544  0.48708  0.19751  1.0000
  O   O25       1.0  0.60887  0.67475  0.39637  1.0000
  O   O26       1.0  0.60476  0.26364999999999994  0.69452  1.0000
  O   O27       1.0  0.27858  0.63192  0.3838  1.0000
  O   O28       1.0  0.70924  0.36057  0.76062  1.0000
  O   O29       1.0  0.13384  0.72527  0.41256  1.0000
  O   O30       1.0  0.82673  0.03484000000000002  0.70183  1.0000
  O   O31       1.0  0.56149  0.57652  0.31384  1.0000
  O   O32       1.0  0.85572  0.012800000000000032  0.8024200000000001  1.0000
