data_image0
_chemical_formula_structural       Zn12H120C184N24O48
_chemical_formula_sum              "Zn12 H120 C184 N24 O48"
_cell_length_a       11.5488
_cell_length_b       18.30265
_cell_length_c       24.12541
_cell_angle_alpha    89.99955
_cell_angle_beta     90.04886
_cell_angle_gamma    90.0

_space_group_name_H-M_alt    "P 1"
_space_group_IT_number       1

loop_
  _space_group_symop_operation_xyz
  'x, y, z'

loop_
  _atom_site_type_symbol
  _atom_site_label
  _atom_site_symmetry_multiplicity
  _atom_site_fract_x
  _atom_site_fract_y
  _atom_site_fract_z
  _atom_site_occupancy
  Zn  Zn1       1.0  0.37439  0.07154  0.9764399999999999  1.0000
  Zn  Zn2       1.0  0.62561  0.07154  0.52357  1.0000
  Zn  Zn3       1.0  0.3743200000000001  0.42863  0.023359999999999995  1.0000
  Zn  Zn4       1.0  0.62567  0.42863  0.47664999999999996  1.0000
  Zn  Zn5       1.0  0.62562  0.92846  0.02357  1.0000
  Zn  Zn6       1.0  0.37440000000000007  0.92847  0.47644  1.0000
  Zn  Zn7       1.0  0.62568  0.57138  0.97665  1.0000
  Zn  Zn8       1.0  0.37434  0.57137  0.52336  1.0000
  Zn  Zn9       1.0  0.9997300000000001  0.24587  0.25018  1.0000
  Zn  Zn10      1.0  6.999999999999979e-05  0.25438  0.7500699999999999  1.0000
  Zn  Zn11      1.0  0.0003200000000000002  0.7541400000000001  0.74979  1.0000
  Zn  Zn12      1.0  0.00034000000000000013  0.74562  0.25024  1.0000
  H   H1        1.0  0.48034  0.2042  0.04321999999999999  1.0000
  H   H2        1.0  0.7069300000000001  0.33023  0.14703  1.0000
  H   H3        1.0  0.73533  0.09595  0.14494  1.0000
  H   H4        1.0  0.26919  0.00859  0.08145  1.0000
  H   H5        1.0  0.12245  0.9708700000000001  0.1514  1.0000
  H   H6        1.0  0.91531  0.0034600000000000004  0.14027  1.0000
  H   H7        1.0  0.84603  0.07239000000000001  0.05835  1.0000
  H   H8        1.0  0.02839000000000001  0.14808  0.85165  1.0000
  H   H9        1.0  0.28383  0.24338  0.96058  1.0000
  H   H10       1.0  0.3147  0.34052  0.88992  1.0000
  H   H11       1.0  0.19279  0.33781  0.80293  1.0000
  H   H12       1.0  0.83468  0.13008  0.97707  1.0000
  H   H13       1.0  0.89778  0.14869  0.9127399999999998  1.0000
  H   H14       1.0  0.97106  0.2693000000000001  0.9480399999999999  1.0000
  H   H15       1.0  0.8194500000000002  0.2621  0.94989  1.0000
  H   H16       1.0  0.51966  0.2042  0.45678  1.0000
  H   H17       1.0  0.29308  0.33023  0.35297  1.0000
  H   H18       1.0  0.26468  0.09595  0.35505999999999993  1.0000
  H   H19       1.0  0.73082  0.00859  0.41854999999999987  1.0000
  H   H20       1.0  0.87755  0.97088  0.3486  1.0000
  H   H21       1.0  0.08468  0.0034700000000000004  0.35973  1.0000
  H   H22       1.0  0.15397  0.0724  0.44164999999999993  1.0000
  H   H23       1.0  0.9716200000000002  0.14808  0.64836  1.0000
  H   H24       1.0  0.71617  0.24338  0.53943  1.0000
  H   H25       1.0  0.68531  0.3405100000000001  0.61009  1.0000
  H   H26       1.0  0.80722  0.33781  0.69708  1.0000
  H   H27       1.0  0.16532000000000002  0.13008  0.52294  1.0000
  H   H28       1.0  0.10222  0.14869  0.58726  1.0000
  H   H29       1.0  0.02895  0.2693000000000001  0.55197  1.0000
  H   H30       1.0  0.18056  0.2621  0.55011  1.0000
  H   H31       1.0  0.47906  0.29562  0.95545  1.0000
  H   H32       1.0  0.70474  0.17077000000000006  0.8505899999999997  1.0000
  H   H33       1.0  0.73587  0.40481000000000006  0.8556  1.0000
  H   H34       1.0  0.26853  0.49167000000000005  0.9186599999999998  1.0000
  H   H35       1.0  0.12146000000000001  0.52909  0.84857  1.0000
  H   H36       1.0  0.91448  0.49636  0.85974  1.0000
  H   H37       1.0  0.84562  0.42753  0.9417899999999998  1.0000
  H   H38       1.0  0.02874  0.35203  0.14832999999999996  1.0000
  H   H39       1.0  0.28375000000000006  0.2566  0.03947  1.0000
  H   H40       1.0  0.3153000000000001  0.15978000000000003  0.11034  1.0000
  H   H41       1.0  0.19319000000000006  0.16235  0.19717  1.0000
  H   H42       1.0  0.8345100000000001  0.37004000000000004  0.02341  1.0000
  H   H43       1.0  0.8986300000000002  0.35107  0.08744999999999999  1.0000
  H   H44       1.0  0.9716200000000002  0.23079000000000002  0.05183  1.0000
  H   H45       1.0  0.8199900000000001  0.23782  0.05017  1.0000
  H   H46       1.0  0.52095  0.29562  0.54456  1.0000
  H   H47       1.0  0.29526  0.17077000000000006  0.64941  1.0000
  H   H48       1.0  0.26413000000000003  0.40481000000000006  0.64441  1.0000
  H   H49       1.0  0.7314800000000002  0.49167000000000005  0.5813499999999999  1.0000
  H   H50       1.0  0.87855  0.52909  0.65144  1.0000
  H   H51       1.0  0.08552000000000001  0.49636  0.64027  1.0000
  H   H52       1.0  0.15439  0.42753  0.55821  1.0000
  H   H53       1.0  0.9712400000000002  0.35202  0.35169  1.0000
  H   H54       1.0  0.71623  0.2566  0.46056  1.0000
  H   H55       1.0  0.68465  0.15977  0.3896899999999999  1.0000
  H   H56       1.0  0.8067600000000001  0.16235  0.30284999999999995  1.0000
  H   H57       1.0  0.16548  0.37004000000000004  0.4765999999999999  1.0000
  H   H58       1.0  0.10137  0.35107  0.41255  1.0000
  H   H59       1.0  0.028390000000000006  0.23079000000000002  0.44818  1.0000
  H   H60       1.0  0.18001000000000003  0.23782  0.44983  1.0000
  H   H61       1.0  0.51966  0.7958000000000001  0.95678  1.0000
  H   H62       1.0  0.29307  0.66978  0.8529799999999998  1.0000
  H   H63       1.0  0.26467  0.90405  0.8550699999999998  1.0000
  H   H64       1.0  0.73082  0.99142  0.9185499999999998  1.0000
  H   H65       1.0  0.87755  0.02913  0.8486099999999999  1.0000
  H   H66       1.0  0.08469  0.99654  0.85974  1.0000
  H   H67       1.0  0.15397  0.92761  0.94166  1.0000
  H   H68       1.0  0.97163  0.85193  0.14835999999999996  1.0000
  H   H69       1.0  0.71619  0.75663  0.03944  1.0000
  H   H70       1.0  0.68534  0.65949  0.1101  1.0000
  H   H71       1.0  0.80725  0.6622  0.19709  1.0000
  H   H72       1.0  0.16532000000000002  0.86993  0.02294  1.0000
  H   H73       1.0  0.10222  0.85131  0.08726  1.0000
  H   H74       1.0  0.02895  0.7307  0.051969999999999995  1.0000
  H   H75       1.0  0.18056  0.7379  0.05011  1.0000
  H   H76       1.0  0.48035000000000005  0.7958000000000001  0.54322  1.0000
  H   H77       1.0  0.7069300000000001  0.66978  0.64703  1.0000
  H   H78       1.0  0.73532  0.90405  0.64494  1.0000
  H   H79       1.0  0.26919  0.99142  0.58146  1.0000
  H   H80       1.0  0.12245  0.02913  0.6514  1.0000
  H   H81       1.0  0.91532  0.99654  0.64027  1.0000
  H   H82       1.0  0.8460400000000001  0.92761  0.55835  1.0000
  H   H83       1.0  0.028400000000000005  0.85192  0.3516599999999999  1.0000
  H   H84       1.0  0.28385  0.75663  0.46059  1.0000
  H   H85       1.0  0.31472  0.65949  0.38993  1.0000
  H   H86       1.0  0.19281000000000004  0.66219  0.30293  1.0000
  H   H87       1.0  0.83468  0.86993  0.4770599999999999  1.0000
  H   H88       1.0  0.89778  0.8513200000000002  0.41273999999999994  1.0000
  H   H89       1.0  0.97106  0.7307  0.44804  1.0000
  H   H90       1.0  0.8194500000000002  0.73791  0.44989  1.0000
  H   H91       1.0  0.52095  0.70439  0.04455999999999999  1.0000
  H   H92       1.0  0.29526  0.8292300000000002  0.14941  1.0000
  H   H93       1.0  0.26413000000000003  0.59519  0.1444  1.0000
  H   H94       1.0  0.7314800000000002  0.5083300000000001  0.08135  1.0000
  H   H95       1.0  0.87854  0.47091  0.15143  1.0000
  H   H96       1.0  0.08552000000000001  0.50364  0.14027  1.0000
  H   H97       1.0  0.15438  0.5724700000000003  0.05820999999999999  1.0000
  H   H98       1.0  0.9712700000000002  0.64797  0.85168  1.0000
  H   H99       1.0  0.71626  0.7434100000000002  0.9605399999999998  1.0000
  H   H100      1.0  0.6847100000000002  0.84023  0.88966  1.0000
  H   H101      1.0  0.80681  0.83766  0.80283  1.0000
  H   H102      1.0  0.16549  0.62996  0.9765999999999998  1.0000
  H   H103      1.0  0.10138000000000001  0.64894  0.91255  1.0000
  H   H104      1.0  0.028390000000000006  0.7692100000000002  0.9481799999999999  1.0000
  H   H105      1.0  0.18001000000000003  0.76218  0.9498399999999999  1.0000
  H   H106      1.0  0.47906  0.70439  0.45544999999999997  1.0000
  H   H107      1.0  0.70473  0.8292300000000002  0.35059  1.0000
  H   H108      1.0  0.73586  0.5952000000000002  0.35559  1.0000
  H   H109      1.0  0.26852  0.5083300000000001  0.41864999999999997  1.0000
  H   H110      1.0  0.12146000000000001  0.47091  0.34857  1.0000
  H   H111      1.0  0.91448  0.50364  0.35973  1.0000
  H   H112      1.0  0.84562  0.5724700000000003  0.4417899999999999  1.0000
  H   H113      1.0  0.02876  0.6479800000000002  0.64832  1.0000
  H   H114      1.0  0.28378000000000003  0.7434  0.53945  1.0000
  H   H115      1.0  0.31536000000000003  0.84023  0.61031  1.0000
  H   H116      1.0  0.19325  0.83766  0.6971499999999999  1.0000
  H   H117      1.0  0.8345200000000002  0.62996  0.52341  1.0000
  H   H118      1.0  0.8986300000000002  0.64893  0.5874499999999999  1.0000
  H   H119      1.0  0.9716200000000002  0.7692100000000002  0.55183  1.0000
  H   H120      1.0  0.82  0.76218  0.55017  1.0000
  C   C1        1.0  0.56284  0.07204  0.06592  1.0000
  C   C2        1.0  0.60182  0.14222  0.09207  1.0000
  C   C3        1.0  0.54866  0.20682000000000003  0.07413  1.0000
  C   C4        1.0  0.58737  0.27458  0.09338999999999999  1.0000
  C   C5        1.0  0.67663  0.27763  0.13206  1.0000
  C   C6        1.0  0.7293800000000001  0.21367000000000003  0.15108  1.0000
  C   C7        1.0  0.69279  0.1456  0.1308  1.0000
  C   C8        1.0  0.82921  0.22244000000000003  0.18981  1.0000
  C   C9        1.0  0.53675  0.34445  0.07269  1.0000
  C   C10       1.0  0.14001  0.06644  0.03207999999999999  1.0000
  C   C11       1.0  0.1785  0.023900000000000005  0.07681  1.0000
  C   C12       1.0  0.09539  0.00245  0.11538999999999999  1.0000
  C   C13       1.0  0.9773300000000003  0.0207  0.10894999999999999  1.0000
  C   C14       1.0  0.93764  0.06051000000000001  0.06349  1.0000
  C   C15       1.0  0.02144  0.08352  0.02551  1.0000
  C   C16       1.0  0.12472  0.13568  0.9578499999999998  1.0000
  C   C17       1.0  0.15204  0.18778  0.91305  1.0000
  C   C18       1.0  0.0921  0.18948  0.86241  1.0000
  C   C19       1.0  0.2344  0.24299  0.92246  1.0000
  C   C20       1.0  0.25199  0.2971  0.88288  1.0000
  C   C21       1.0  0.1857  0.29581  0.83472  1.0000
  C   C22       1.0  0.90601  0.1596  0.95715  1.0000
  C   C23       1.0  0.89932  0.24141000000000004  0.96907  1.0000
  C   C24       1.0  0.43717  0.07204  0.4340799999999999  1.0000
  C   C25       1.0  0.39819  0.14222  0.40792999999999996  1.0000
  C   C26       1.0  0.4513400000000001  0.20682000000000003  0.42587  1.0000
  C   C27       1.0  0.41263  0.27458  0.40661  1.0000
  C   C28       1.0  0.32339  0.27763  0.36794  1.0000
  C   C29       1.0  0.27065  0.21367000000000003  0.3489099999999999  1.0000
  C   C30       1.0  0.30722  0.1456  0.3691999999999999  1.0000
  C   C31       1.0  0.1708  0.22244000000000003  0.31019  1.0000
  C   C32       1.0  0.46325  0.34445  0.42731  1.0000
  C   C33       1.0  0.8599900000000001  0.06645  0.4679299999999999  1.0000
  C   C34       1.0  0.8215  0.023900000000000005  0.42319  1.0000
  C   C35       1.0  0.9046100000000001  0.00245  0.38460999999999995  1.0000
  C   C36       1.0  0.02267  0.0207  0.39105  1.0000
  C   C37       1.0  0.06236  0.06051000000000001  0.4365199999999999  1.0000
  C   C38       1.0  0.97856  0.08352  0.47449  1.0000
  C   C39       1.0  0.8752800000000002  0.13568  0.54216  1.0000
  C   C40       1.0  0.8479700000000001  0.18778  0.58696  1.0000
  C   C41       1.0  0.90792  0.18948  0.6376  1.0000
  C   C42       1.0  0.7656100000000001  0.24299  0.57754  1.0000
  C   C43       1.0  0.74802  0.2971  0.61713  1.0000
  C   C44       1.0  0.81432  0.29581  0.6652899999999999  1.0000
  C   C45       1.0  0.09399000000000002  0.1596  0.54286  1.0000
  C   C46       1.0  0.10068000000000002  0.24141000000000004  0.5309399999999999  1.0000
  C   C47       1.0  0.56268  0.42801000000000006  0.9340499999999998  1.0000
  C   C48       1.0  0.6015  0.35803  0.90765  1.0000
  C   C49       1.0  0.54751  0.29328  0.9246699999999999  1.0000
  C   C50       1.0  0.5852100000000001  0.22574  0.9045299999999998  1.0000
  C   C51       1.0  0.67502  0.22320000000000004  0.86616  1.0000
  C   C52       1.0  0.72869  0.28741000000000005  0.8482  1.0000
  C   C53       1.0  0.69268  0.35513  0.86915  1.0000
  C   C54       1.0  0.82899  0.27944  0.8098299999999998  1.0000
  C   C55       1.0  0.5337500000000001  0.1556  0.92435  1.0000
  C   C56       1.0  0.13971  0.4336  0.96794  1.0000
  C   C57       1.0  0.17793  0.47617000000000004  0.9232  1.0000
  C   C58       1.0  0.09464  0.49752  0.8845999999999998  1.0000
  C   C59       1.0  0.9766200000000003  0.4792  0.89107  1.0000
  C   C60       1.0  0.93718  0.43944  0.93658  1.0000
  C   C61       1.0  0.02119  0.41649000000000014  0.9745399999999999  1.0000
  C   C62       1.0  0.12479000000000003  0.36437  0.04217  1.0000
  C   C63       1.0  0.1522  0.31227  0.08698  1.0000
  C   C64       1.0  0.09243  0.31063000000000013  0.13762999999999997  1.0000
  C   C65       1.0  0.23454000000000003  0.2570700000000001  0.07761  1.0000
  C   C66       1.0  0.25236  0.20307  0.11726999999999999  1.0000
  C   C67       1.0  0.18606  0.20435  0.16539  1.0000
  C   C68       1.0  0.90621  0.34041  0.04299  1.0000
  C   C69       1.0  0.8996  0.25865000000000005  0.030919999999999993  1.0000
  C   C70       1.0  0.43733  0.42801000000000006  0.56596  1.0000
  C   C71       1.0  0.39851  0.35803  0.59235  1.0000
  C   C72       1.0  0.45250000000000007  0.29328  0.57534  1.0000
  C   C73       1.0  0.41479  0.22574  0.59548  1.0000
  C   C74       1.0  0.32498  0.22320000000000004  0.63384  1.0000
  C   C75       1.0  0.2713  0.28741000000000005  0.6518  1.0000
  C   C76       1.0  0.30732  0.35513  0.63085  1.0000
  C   C77       1.0  0.17101  0.27944  0.69018  1.0000
  C   C78       1.0  0.46625000000000005  0.15561  0.57565  1.0000
  C   C79       1.0  0.8603000000000001  0.43361  0.53207  1.0000
  C   C80       1.0  0.82207  0.47617000000000004  0.57681  1.0000
  C   C81       1.0  0.90537  0.49752  0.6154  1.0000
  C   C82       1.0  0.023390000000000005  0.4792  0.60893  1.0000
  C   C83       1.0  0.06283  0.43945000000000006  0.56343  1.0000
  C   C84       1.0  0.97881  0.41649000000000014  0.52547  1.0000
  C   C85       1.0  0.8752  0.36437  0.4578399999999999  1.0000
  C   C86       1.0  0.84777  0.31227  0.41304  1.0000
  C   C87       1.0  0.9075400000000001  0.31064  0.3623999999999999  1.0000
  C   C88       1.0  0.76543  0.2570700000000001  0.42241  1.0000
  C   C89       1.0  0.74759  0.20307  0.3827599999999999  1.0000
  C   C90       1.0  0.8138700000000001  0.20433000000000004  0.33463999999999994  1.0000
  C   C91       1.0  0.09378  0.34042  0.4570099999999999  1.0000
  C   C92       1.0  0.1004  0.25865000000000005  0.46907999999999994  1.0000
  C   C93       1.0  0.43717  0.92797  0.9340899999999998  1.0000
  C   C94       1.0  0.39819  0.8577900000000003  0.90793  1.0000
  C   C95       1.0  0.4513400000000001  0.79318  0.9258699999999997  1.0000
  C   C96       1.0  0.41263  0.72543  0.90662  1.0000
  C   C97       1.0  0.32338000000000006  0.72237  0.86795  1.0000
  C   C98       1.0  0.27063  0.7863400000000003  0.84893  1.0000
  C   C99       1.0  0.30721  0.8544  0.8691999999999998  1.0000
  C   C100      1.0  0.17079  0.77756  0.81019  1.0000
  C   C101      1.0  0.46325  0.6555500000000002  0.92731  1.0000
  C   C102      1.0  0.8599900000000001  0.9335600000000001  0.96793  1.0000
  C   C103      1.0  0.8215  0.9761100000000001  0.9232  1.0000
  C   C104      1.0  0.9046100000000001  0.99756  0.8846099999999998  1.0000
  C   C105      1.0  0.02268  0.9793000000000001  0.89105  1.0000
  C   C106      1.0  0.06237  0.9395  0.9365199999999998  1.0000
  C   C107      1.0  0.97856  0.91648  0.9744999999999999  1.0000
  C   C108      1.0  0.87529  0.86432  0.04216  1.0000
  C   C109      1.0  0.84798  0.81222  0.08697  1.0000
  C   C110      1.0  0.9079300000000001  0.8105200000000001  0.13761  1.0000
  C   C111      1.0  0.76562  0.75702  0.07755  1.0000
  C   C112      1.0  0.74805  0.70291  0.11714  1.0000
  C   C113      1.0  0.81435  0.7042100000000001  0.16529999999999997  1.0000
  C   C114      1.0  0.09399000000000002  0.8404  0.04286  1.0000
  C   C115      1.0  0.10068000000000002  0.7585900000000002  0.030939999999999995  1.0000
  C   C116      1.0  0.56284  0.92797  0.56592  1.0000
  C   C117      1.0  0.60182  0.8577900000000003  0.59207  1.0000
  C   C118      1.0  0.54866  0.79318  0.57413  1.0000
  C   C119      1.0  0.58737  0.72543  0.59339  1.0000
  C   C120      1.0  0.67661  0.72237  0.63207  1.0000
  C   C121      1.0  0.7293500000000002  0.7863400000000003  0.65109  1.0000
  C   C122      1.0  0.69278  0.8544  0.63081  1.0000
  C   C123      1.0  0.82921  0.7775700000000001  0.6898099999999999  1.0000
  C   C124      1.0  0.53676  0.6555500000000002  0.57269  1.0000
  C   C125      1.0  0.14001  0.9335600000000001  0.53208  1.0000
  C   C126      1.0  0.17851  0.9761100000000001  0.57681  1.0000
  C   C127      1.0  0.09539  0.99756  0.6154  1.0000
  C   C128      1.0  0.9773300000000003  0.9793000000000001  0.60896  1.0000
  C   C129      1.0  0.93764  0.9395  0.5634899999999999  1.0000
  C   C130      1.0  0.021450000000000004  0.91648  0.52551  1.0000
  C   C131      1.0  0.12473  0.8643300000000003  0.4578499999999999  1.0000
  C   C132      1.0  0.15206  0.81222  0.41306  1.0000
  C   C133      1.0  0.09211000000000001  0.81053  0.36243  1.0000
  C   C134      1.0  0.23442000000000002  0.75702  0.42247  1.0000
  C   C135      1.0  0.25202  0.7029  0.3828899999999999  1.0000
  C   C136      1.0  0.18574  0.70419  0.33473  1.0000
  C   C137      1.0  0.90601  0.8404  0.4571499999999999  1.0000
  C   C138      1.0  0.89932  0.7586  0.46906  1.0000
  C   C139      1.0  0.43732  0.5719900000000001  0.06596  1.0000
  C   C140      1.0  0.3985000000000001  0.6419700000000002  0.09234999999999997  1.0000
  C   C141      1.0  0.45250000000000007  0.7067300000000002  0.07533  1.0000
  C   C142      1.0  0.41478  0.77426  0.09547999999999998  1.0000
  C   C143      1.0  0.32497  0.7768000000000002  0.13384  1.0000
  C   C144      1.0  0.27128  0.7125900000000001  0.15179  1.0000
  C   C145      1.0  0.30731  0.64487  0.13085  1.0000
  C   C146      1.0  0.17101  0.72056  0.19018  1.0000
  C   C147      1.0  0.46625000000000005  0.8444  0.07566  1.0000
  C   C148      1.0  0.86029  0.5664  0.03206  1.0000
  C   C149      1.0  0.82207  0.52384  0.0768  1.0000
  C   C150      1.0  0.9053600000000002  0.50249  0.1154  1.0000
  C   C151      1.0  0.023380000000000005  0.5208  0.10893  1.0000
  C   C152      1.0  0.06282  0.56056  0.06342  1.0000
  C   C153      1.0  0.97881  0.5835100000000001  0.02547  1.0000
  C   C154      1.0  0.87521  0.63564  0.9578299999999998  1.0000
  C   C155      1.0  0.8478  0.68774  0.91302  1.0000
  C   C156      1.0  0.9075800000000002  0.6893800000000001  0.8623699999999999  1.0000
  C   C157      1.0  0.76547  0.7429300000000001  0.92239  1.0000
  C   C158      1.0  0.74765  0.79693  0.88274  1.0000
  C   C159      1.0  0.81395  0.79565  0.8346199999999999  1.0000
  C   C160      1.0  0.09379  0.65959  0.95701  1.0000
  C   C161      1.0  0.1004  0.74136  0.96908  1.0000
  C   C162      1.0  0.56268  0.5719900000000001  0.43404  1.0000
  C   C163      1.0  0.60149  0.6419700000000002  0.40765  1.0000
  C   C164      1.0  0.5475  0.7067300000000002  0.42467  1.0000
  C   C165      1.0  0.5852100000000001  0.77427  0.40452999999999995  1.0000
  C   C166      1.0  0.67501  0.77681  0.36616  1.0000
  C   C167      1.0  0.72868  0.7126  0.34818999999999994  1.0000
  C   C168      1.0  0.69267  0.64488  0.36914999999999987  1.0000
  C   C169      1.0  0.82899  0.72056  0.30983  1.0000
  C   C170      1.0  0.5337500000000001  0.8444  0.42435  1.0000
  C   C171      1.0  0.13971  0.5664  0.46794  1.0000
  C   C172      1.0  0.17793  0.52383  0.4232  1.0000
  C   C173      1.0  0.09464  0.50248  0.3846  1.0000
  C   C174      1.0  0.9766200000000003  0.5208  0.39107  1.0000
  C   C175      1.0  0.93718  0.56056  0.4365799999999999  1.0000
  C   C176      1.0  0.02119  0.5835100000000001  0.47452999999999995  1.0000
  C   C177      1.0  0.12481000000000002  0.63564  0.54216  1.0000
  C   C178      1.0  0.15224  0.68774  0.58696  1.0000
  C   C179      1.0  0.09247  0.68937  0.6376  1.0000
  C   C180      1.0  0.23458  0.7429300000000001  0.57759  1.0000
  C   C181      1.0  0.25242  0.7969400000000001  0.61724  1.0000
  C   C182      1.0  0.18614  0.79567  0.66536  1.0000
  C   C183      1.0  0.9062200000000001  0.65959  0.54299  1.0000
  C   C184      1.0  0.89961  0.7413500000000001  0.53092  1.0000
  N   N1        1.0  0.20228  0.09941  0.9894699999999997  1.0000
  N   N2        1.0  0.013900000000000001  0.12602  0.97782  1.0000
  N   N3        1.0  0.10781  0.24257000000000004  0.8245099999999997  1.0000
  N   N4        1.0  0.79772  0.09941  0.51054  1.0000
  N   N5        1.0  0.9861  0.12602  0.52219  1.0000
  N   N6        1.0  0.8922100000000001  0.24257000000000004  0.67551  1.0000
  N   N7        1.0  0.2022  0.4006300000000001  0.010529999999999998  1.0000
  N   N8        1.0  0.013890000000000001  0.37403  0.022239999999999996  1.0000
  N   N9        1.0  0.10811000000000001  0.25757  0.17556  1.0000
  N   N10       1.0  0.7978000000000001  0.4006300000000001  0.48949  1.0000
  N   N11       1.0  0.9861100000000002  0.37403  0.47776999999999986  1.0000
  N   N12       1.0  0.89182  0.25756  0.32448  1.0000
  N   N13       1.0  0.79773  0.90059  0.01054  1.0000
  N   N14       1.0  0.9861  0.87398  0.02219  1.0000
  N   N15       1.0  0.8922500000000001  0.75744  0.17553  1.0000
  N   N16       1.0  0.20228  0.90059  0.48948  1.0000
  N   N17       1.0  0.013900000000000001  0.87398  0.4778199999999999  1.0000
  N   N18       1.0  0.10785  0.7574300000000002  0.32453  1.0000
  N   N19       1.0  0.7978000000000001  0.59938  0.98948  1.0000
  N   N20       1.0  0.9861100000000002  0.62597  0.97777  1.0000
  N   N21       1.0  0.8919000000000002  0.74244  0.82444  1.0000
  N   N22       1.0  0.20221  0.5993700000000001  0.51052  1.0000
  N   N23       1.0  0.013900000000000001  0.62597  0.52224  1.0000
  N   N24       1.0  0.10819000000000001  0.74245  0.67552  1.0000
  O   O1        1.0  0.45823  0.06684000000000001  0.04992  1.0000
  O   O2        1.0  0.64099  0.02253  0.06115  1.0000
  O   O3        1.0  0.8635300000000001  0.28801  0.2001  1.0000
  O   O4        1.0  0.87938  0.16696  0.21089  1.0000
  O   O5        1.0  0.58916  0.40349  0.07726  1.0000
  O   O6        1.0  0.43451  0.33682  0.04999  1.0000
  O   O7        1.0  0.5417700000000001  0.06684000000000001  0.45007999999999987  1.0000
  O   O8        1.0  0.35901  0.02253  0.43885  1.0000
  O   O9        1.0  0.13644  0.28801  0.29993  1.0000
  O   O10       1.0  0.12059  0.16695  0.28914  1.0000
  O   O11       1.0  0.41085000000000005  0.4035  0.42274  1.0000
  O   O12       1.0  0.5655  0.33682  0.4500099999999999  1.0000
  O   O13       1.0  0.4581  0.43312000000000006  0.9499599999999999  1.0000
  O   O14       1.0  0.64075  0.47758  0.93883  1.0000
  O   O15       1.0  0.8637200000000002  0.21393  0.79976  1.0000
  O   O16       1.0  0.87936  0.33481  0.78895  1.0000
  O   O17       1.0  0.58338  0.09614000000000003  0.9168599999999998  1.0000
  O   O18       1.0  0.43454  0.16335000000000005  0.94991  1.0000
  O   O19       1.0  0.5419  0.43312000000000006  0.55005  1.0000
  O   O20       1.0  0.35925000000000007  0.47758  0.5611799999999999  1.0000
  O   O21       1.0  0.13628  0.21393  0.7002499999999998  1.0000
  O   O22       1.0  0.12065  0.33481  0.71106  1.0000
  O   O23       1.0  0.41662  0.09614000000000003  0.58314  1.0000
  O   O24       1.0  0.56546  0.16335000000000005  0.55009  1.0000
  O   O25       1.0  0.5417700000000001  0.9331600000000001  0.9500799999999999  1.0000
  O   O26       1.0  0.35901  0.97747  0.9388499999999997  1.0000
  O   O27       1.0  0.13648  0.71199  0.7998999999999999  1.0000
  O   O28       1.0  0.12062000000000002  0.8330500000000001  0.7891199999999999  1.0000
  O   O29       1.0  0.41085000000000005  0.59651  0.9227399999999999  1.0000
  O   O30       1.0  0.5655  0.66318  0.9500099999999998  1.0000
  O   O31       1.0  0.45823  0.9331600000000001  0.54993  1.0000
  O   O32       1.0  0.641  0.97747  0.56115  1.0000
  O   O33       1.0  0.86357  0.71199  0.70007  1.0000
  O   O34       1.0  0.87942  0.8330500000000001  0.71086  1.0000
  O   O35       1.0  0.58916  0.59651  0.57727  1.0000
  O   O36       1.0  0.43450000000000005  0.66318  0.54999  1.0000
  O   O37       1.0  0.5419  0.56688  0.05005  1.0000
  O   O38       1.0  0.35925000000000007  0.52242  0.06117999999999999  1.0000
  O   O39       1.0  0.1363  0.78607  0.20026  1.0000
  O   O40       1.0  0.12067  0.66519  0.21107  1.0000
  O   O41       1.0  0.41663000000000006  0.90386  0.08315  1.0000
  O   O42       1.0  0.56545  0.83665  0.050089999999999996  1.0000
  O   O43       1.0  0.4581  0.56688  0.44996  1.0000
  O   O44       1.0  0.64075  0.52243  0.43882  1.0000
  O   O45       1.0  0.86374  0.78607  0.29978  1.0000
  O   O46       1.0  0.87938  0.66519  0.28897  1.0000
  O   O47       1.0  0.58338  0.90386  0.4168699999999999  1.0000
  O   O48       1.0  0.43453  0.83665  0.44991  1.0000
