data_image0
_chemical_formula_structural       Cu24H48C80I16N32O32
_chemical_formula_sum              "Cu24 H48 C80 I16 N32 O32"
_cell_length_a       7.63253
_cell_length_b       14.93135
_cell_length_c       32.04935
_cell_angle_alpha    89.97274999999999
_cell_angle_beta     90.0
_cell_angle_gamma    90.0

_space_group_name_H-M_alt    "P 1"
_space_group_IT_number       1

loop_
  _space_group_symop_operation_xyz
  'x, y, z'

loop_
  _atom_site_type_symbol
  _atom_site_label
  _atom_site_symmetry_multiplicity
  _atom_site_fract_x
  _atom_site_fract_y
  _atom_site_fract_z
  _atom_site_occupancy
  Cu  Cu1       1.0  0.9172900000000002  0.67178  0.5649  1.0000
  Cu  Cu2       1.0  0.07545  0.52303  0.53588  1.0000
  Cu  Cu3       1.0  0.74444  0.6158800000000001  0.7693799999999997  1.0000
  Cu  Cu4       1.0  0.58266  0.17185  0.93509  1.0000
  Cu  Cu5       1.0  0.4245200000000001  0.02298  0.9640799999999998  1.0000
  Cu  Cu6       1.0  0.75582  0.11609  0.73062  1.0000
  Cu  Cu7       1.0  0.08266000000000003  0.8281400000000001  0.56491  1.0000
  Cu  Cu8       1.0  0.9245200000000002  0.9770099999999999  0.53592  1.0000
  Cu  Cu9       1.0  0.25583  0.8839000000000001  0.7693799999999997  1.0000
  Cu  Cu10      1.0  0.41729  0.32821  0.9350999999999998  1.0000
  Cu  Cu11      1.0  0.5754500000000002  0.47696  0.96411  1.0000
  Cu  Cu12      1.0  0.24444  0.38411  0.73062  1.0000
  Cu  Cu13      1.0  0.08271000000000003  0.32821  0.4351  1.0000
  Cu  Cu14      1.0  0.9245500000000002  0.47696  0.46411  1.0000
  Cu  Cu15      1.0  0.25556  0.38411  0.23062  1.0000
  Cu  Cu16      1.0  0.41734  0.8281400000000001  0.06491  1.0000
  Cu  Cu17      1.0  0.5754800000000002  0.9770099999999999  0.03592  1.0000
  Cu  Cu18      1.0  0.24418  0.8839  0.26938  1.0000
  Cu  Cu19      1.0  0.91734  0.17186  0.43508999999999987  1.0000
  Cu  Cu20      1.0  0.07548000000000002  0.02299  0.4640799999999999  1.0000
  Cu  Cu21      1.0  0.74417  0.11609  0.23062  1.0000
  Cu  Cu22      1.0  0.58271  0.67178  0.0649  1.0000
  Cu  Cu23      1.0  0.4245500000000001  0.52304  0.03588  1.0000
  Cu  Cu24      1.0  0.7555600000000002  0.61589  0.26938  1.0000
  H   H1        1.0  0.39791  0.6061  0.8230299999999998  1.0000
  H   H2        1.0  0.35004  0.55893  0.8974899999999998  1.0000
  H   H3        1.0  0.60088  0.6584100000000002  0.62125  1.0000
  H   H4        1.0  0.14283  0.64409  0.64016  1.0000
  H   H5        1.0  0.0939  0.6239  0.7172599999999998  1.0000
  H   H6        1.0  0.89177  0.52913  0.91303  1.0000
  H   H7        1.0  0.10256  0.1061  0.6769999999999998  1.0000
  H   H8        1.0  0.15036  0.05923  0.6024999999999998  1.0000
  H   H9        1.0  0.89869  0.16104  0.8786099999999998  1.0000
  H   H10       1.0  0.3569900000000001  0.14393  0.8598  1.0000
  H   H11       1.0  0.40607  0.12448  0.7826599999999998  1.0000
  H   H12       1.0  0.6085400000000001  0.029100000000000004  0.58706  1.0000
  H   H13       1.0  0.60257  0.89389  0.823  1.0000
  H   H14       1.0  0.65036  0.94076  0.8975  1.0000
  H   H15       1.0  0.3986900000000001  0.8389499999999999  0.62139  1.0000
  H   H16       1.0  0.85699  0.85607  0.6402  1.0000
  H   H17       1.0  0.90607  0.87551  0.71734  1.0000
  H   H18       1.0  0.10854  0.97088  0.9129399999999998  1.0000
  H   H19       1.0  0.89791  0.39389  0.67697  1.0000
  H   H20       1.0  0.85004  0.44106  0.60251  1.0000
  H   H21       1.0  0.10088  0.34158  0.87875  1.0000
  H   H22       1.0  0.64283  0.3559  0.85984  1.0000
  H   H23       1.0  0.5939  0.37609  0.78274  1.0000
  H   H24       1.0  0.39177  0.47086  0.58697  1.0000
  H   H25       1.0  0.6020900000000002  0.39389  0.17697  1.0000
  H   H26       1.0  0.64996  0.44106  0.10250999999999998  1.0000
  H   H27       1.0  0.3991200000000001  0.34159  0.37875  1.0000
  H   H28       1.0  0.85717  0.3559  0.3598399999999999  1.0000
  H   H29       1.0  0.9061  0.37609  0.28274  1.0000
  H   H30       1.0  0.10823  0.47086  0.08697  1.0000
  H   H31       1.0  0.8974400000000002  0.89389  0.3229999999999999  1.0000
  H   H32       1.0  0.84965  0.94076  0.3975  1.0000
  H   H33       1.0  0.10132  0.8389499999999999  0.12139  1.0000
  H   H34       1.0  0.64301  0.85607  0.1402  1.0000
  H   H35       1.0  0.59393  0.87551  0.21733999999999995  1.0000
  H   H36       1.0  0.39146  0.97089  0.41294  1.0000
  H   H37       1.0  0.39743000000000006  0.1061  0.177  1.0000
  H   H38       1.0  0.34964  0.05924  0.10249999999999997  1.0000
  H   H39       1.0  0.60131  0.16104  0.37861  1.0000
  H   H40       1.0  0.14301  0.14393  0.3598  1.0000
  H   H41       1.0  0.09393000000000003  0.12448  0.28266  1.0000
  H   H42       1.0  0.89146  0.02911  0.08705999999999997  1.0000
  H   H43       1.0  0.10209  0.6061  0.32303  1.0000
  H   H44       1.0  0.14996  0.55893  0.39749  1.0000
  H   H45       1.0  0.89912  0.6584100000000002  0.12125  1.0000
  H   H46       1.0  0.35717  0.6440999999999999  0.14015999999999995  1.0000
  H   H47       1.0  0.4061000000000001  0.62391  0.21726  1.0000
  H   H48       1.0  0.60823  0.52913  0.41303  1.0000
  C   C1        1.0  0.50707  0.58964  0.84333  1.0000
  C   C2        1.0  0.50744  0.63928  0.70526  1.0000
  C   C3        1.0  0.98368  0.57218  0.83083  1.0000
  C   C4        1.0  0.48187  0.56423  0.88472  1.0000
  C   C5        1.0  0.6848200000000002  0.64159  0.68508  1.0000
  C   C6        1.0  0.71162  0.65133  0.6424199999999998  1.0000
  C   C7        1.0  0.01092  0.6425  0.65304  1.0000
  C   C8        1.0  0.98522  0.63197  0.6957299999999997  1.0000
  C   C9        1.0  0.7808  0.54637  0.89323  1.0000
  C   C10       1.0  0.80686  0.5699  0.8517499999999998  1.0000
  C   C11       1.0  0.99343  0.08936  0.65674  1.0000
  C   C12       1.0  0.9924900000000002  0.14167  0.79469  1.0000
  C   C13       1.0  0.51679  0.07244  0.66915  1.0000
  C   C14       1.0  0.018580000000000006  0.06399  0.61534  1.0000
  C   C15       1.0  0.81495  0.14339  0.81484  1.0000
  C   C16       1.0  0.7880100000000002  0.15316  0.85748  1.0000
  C   C17       1.0  0.4889000000000001  0.14278  0.84692  1.0000
  C   C18       1.0  0.5147  0.1325  0.8042199999999998  1.0000
  C   C19       1.0  0.71967  0.0461  0.60684  1.0000
  C   C20       1.0  0.69365  0.0697  0.6483099999999998  1.0000
  C   C21       1.0  0.49344  0.91063  0.84326  1.0000
  C   C22       1.0  0.4925  0.85832  0.70531  1.0000
  C   C23       1.0  0.0168  0.92754  0.83084  1.0000
  C   C24       1.0  0.51858  0.93601  0.8846599999999998  1.0000
  C   C25       1.0  0.3149500000000001  0.8566  0.68516  1.0000
  C   C26       1.0  0.28802  0.84683  0.64252  1.0000
  C   C27       1.0  0.9889000000000002  0.85721  0.65308  1.0000
  C   C28       1.0  0.014700000000000003  0.8674900000000001  0.69578  1.0000
  C   C29       1.0  0.21967  0.95389  0.8931599999999997  1.0000
  C   C30       1.0  0.19366000000000005  0.93029  0.85169  1.0000
  C   C31       1.0  0.00707  0.41035  0.6566699999999998  1.0000
  C   C32       1.0  0.00744  0.36071  0.79474  1.0000
  C   C33       1.0  0.48368  0.42781  0.6691699999999998  1.0000
  C   C34       1.0  0.98187  0.43576  0.61528  1.0000
  C   C35       1.0  0.18482  0.3584  0.81492  1.0000
  C   C36       1.0  0.21162  0.34867000000000004  0.85758  1.0000
  C   C37       1.0  0.51092  0.35749  0.84696  1.0000
  C   C38       1.0  0.48522  0.36802  0.80427  1.0000
  C   C39       1.0  0.2808  0.45362  0.60677  1.0000
  C   C40       1.0  0.30686  0.43009  0.64825  1.0000
  C   C41       1.0  0.49293  0.41035  0.15667  1.0000
  C   C42       1.0  0.4925600000000001  0.36071  0.2947399999999999  1.0000
  C   C43       1.0  0.01632  0.42781  0.16917  1.0000
  C   C44       1.0  0.51813  0.43577  0.11528  1.0000
  C   C45       1.0  0.31518000000000007  0.3584  0.31492  1.0000
  C   C46       1.0  0.28838  0.34867000000000004  0.35758  1.0000
  C   C47       1.0  0.9890800000000002  0.35749  0.34696  1.0000
  C   C48       1.0  0.01478  0.36803  0.3042699999999999  1.0000
  C   C49       1.0  0.2192  0.45362  0.10677  1.0000
  C   C50       1.0  0.19314  0.43009  0.14825  1.0000
  C   C51       1.0  0.006570000000000002  0.91063  0.3432599999999999  1.0000
  C   C52       1.0  0.0075  0.85832  0.20531  1.0000
  C   C53       1.0  0.4832300000000001  0.92755  0.33085  1.0000
  C   C54       1.0  0.98142  0.93601  0.38466  1.0000
  C   C55       1.0  0.18506  0.8566  0.18516  1.0000
  C   C56       1.0  0.21199  0.84683  0.14251999999999995  1.0000
  C   C57       1.0  0.5111  0.85722  0.15308  1.0000
  C   C58       1.0  0.4853  0.8674900000000001  0.19578  1.0000
  C   C59       1.0  0.28034  0.95389  0.39316  1.0000
  C   C60       1.0  0.30634  0.93029  0.3516899999999999  1.0000
  C   C61       1.0  0.50656  0.08937  0.15674  1.0000
  C   C62       1.0  0.50749  0.14167  0.2947  1.0000
  C   C63       1.0  0.98322  0.07245  0.16915  1.0000
  C   C64       1.0  0.4814200000000001  0.06399  0.11534  1.0000
  C   C65       1.0  0.68505  0.14339  0.31484  1.0000
  C   C66       1.0  0.7119800000000002  0.15317  0.35748  1.0000
  C   C67       1.0  0.0111  0.14278  0.34692  1.0000
  C   C68       1.0  0.9853000000000002  0.1325  0.30422  1.0000
  C   C69       1.0  0.7803300000000002  0.0461  0.10684  1.0000
  C   C70       1.0  0.80634  0.0697  0.14831  1.0000
  C   C71       1.0  0.99293  0.58964  0.34333  1.0000
  C   C72       1.0  0.99256  0.63928  0.20526  1.0000
  C   C73       1.0  0.51632  0.57218  0.33083  1.0000
  C   C74       1.0  0.01813  0.56423  0.38472  1.0000
  C   C75       1.0  0.8151800000000002  0.64159  0.18508  1.0000
  C   C76       1.0  0.7883800000000002  0.65133  0.14242  1.0000
  C   C77       1.0  0.48908  0.6425  0.15303999999999995  1.0000
  C   C78       1.0  0.51478  0.63197  0.19572999999999993  1.0000
  C   C79       1.0  0.7192000000000001  0.54638  0.3932299999999999  1.0000
  C   C80       1.0  0.69314  0.5699  0.35175  1.0000
  I   I1        1.0  0.73183  0.54494  0.52608  1.0000
  I   I2        1.0  0.74097  0.82269  0.54724  1.0000
  I   I3        1.0  0.7681000000000002  0.04467  0.9737499999999998  1.0000
  I   I4        1.0  0.75884  0.32255  0.9530399999999998  1.0000
  I   I5        1.0  0.2681  0.95532  0.52625  1.0000
  I   I6        1.0  0.25884  0.67744  0.54696  1.0000
  I   I7        1.0  0.23183  0.45505  0.97392  1.0000
  I   I8        1.0  0.24097000000000005  0.1773  0.95276  1.0000
  I   I9        1.0  0.26817  0.45506  0.47392  1.0000
  I   I10       1.0  0.25903  0.1773  0.45276  1.0000
  I   I11       1.0  0.2319  0.95532  0.026249999999999992  1.0000
  I   I12       1.0  0.24116  0.67744  0.04695999999999999  1.0000
  I   I13       1.0  0.7319000000000002  0.04467  0.47375  1.0000
  I   I14       1.0  0.74116  0.32255  0.45304  1.0000
  I   I15       1.0  0.76818  0.54494  0.02608  1.0000
  I   I16       1.0  0.7590300000000002  0.82269  0.04724  1.0000
  N   N1        1.0  0.66944  0.59169  0.82716  1.0000
  N   N2        1.0  0.8217500000000002  0.63208  0.7112499999999998  1.0000
  N   N3        1.0  0.61765  0.54203  0.90987  1.0000
  N   N4        1.0  0.8749800000000002  0.65235  0.62624  1.0000
  N   N5        1.0  0.8310600000000001  0.09144  0.6728999999999998  1.0000
  N   N6        1.0  0.6781500000000003  0.13305  0.78869  1.0000
  N   N7        1.0  0.8828100000000001  0.04177  0.5901899999999998  1.0000
  N   N8        1.0  0.6246800000000002  0.15318  0.87371  1.0000
  N   N9        1.0  0.3310700000000001  0.90855  0.8271  1.0000
  N   N10       1.0  0.17815000000000006  0.8669399999999999  0.71131  1.0000
  N   N11       1.0  0.38281  0.95822  0.90981  1.0000
  N   N12       1.0  0.12468000000000003  0.84681  0.62629  1.0000
  N   N13       1.0  0.16944  0.4083  0.67284  1.0000
  N   N14       1.0  0.32175  0.36791  0.78875  1.0000
  N   N15       1.0  0.11765000000000003  0.45796  0.59012  1.0000
  N   N16       1.0  0.37498  0.34764  0.8737599999999998  1.0000
  N   N17       1.0  0.33056  0.40831  0.17284  1.0000
  N   N18       1.0  0.17825000000000005  0.36791  0.2887499999999999  1.0000
  N   N19       1.0  0.38235  0.45796  0.09013  1.0000
  N   N20       1.0  0.12502  0.34765  0.37376  1.0000
  N   N21       1.0  0.16894  0.90855  0.3271  1.0000
  N   N22       1.0  0.32186  0.8669399999999999  0.21131  1.0000
  N   N23       1.0  0.11719000000000003  0.95822  0.40981  1.0000
  N   N24       1.0  0.3753200000000001  0.84681  0.12629  1.0000
  N   N25       1.0  0.6689300000000002  0.09144  0.1729  1.0000
  N   N26       1.0  0.82185  0.13305  0.28869  1.0000
  N   N27       1.0  0.61719  0.04178  0.09019  1.0000
  N   N28       1.0  0.8753200000000002  0.15318  0.37371  1.0000
  N   N29       1.0  0.83056  0.59169  0.3271599999999999  1.0000
  N   N30       1.0  0.67825  0.63208  0.21124999999999994  1.0000
  N   N31       1.0  0.8823500000000002  0.54203  0.4098699999999999  1.0000
  N   N32       1.0  0.62502  0.65235  0.12624  1.0000
  O   O1        1.0  0.98046  0.59778  0.79185  1.0000
  O   O2        1.0  0.50934  0.63306  0.74585  1.0000
  O   O3        1.0  0.11686  0.55061  0.85049  1.0000
  O   O4        1.0  0.37388  0.64284  0.68317  1.0000
  O   O5        1.0  0.52006  0.09777  0.70816  1.0000
  O   O6        1.0  0.9908600000000002  0.13336  0.75418  1.0000
  O   O7        1.0  0.3834500000000001  0.05166  0.6493599999999998  1.0000
  O   O8        1.0  0.12583  0.14734  0.81675  1.0000
  O   O9        1.0  0.02006000000000001  0.90222  0.7918399999999998  1.0000
  O   O10       1.0  0.49086  0.86663  0.74582  1.0000
  O   O11       1.0  0.88344  0.94832  0.85064  1.0000
  O   O12       1.0  0.62582  0.85265  0.68325  1.0000
  O   O13       1.0  0.48046  0.40221  0.7081499999999997  1.0000
  O   O14       1.0  0.00934  0.36693  0.7541499999999998  1.0000
  O   O15       1.0  0.61686  0.44938  0.6495099999999998  1.0000
  O   O16       1.0  0.87388  0.35715  0.8168299999999997  1.0000
  O   O17       1.0  0.01954  0.40221  0.20815  1.0000
  O   O18       1.0  0.49066  0.36694  0.2541499999999999  1.0000
  O   O19       1.0  0.88314  0.44938  0.14951  1.0000
  O   O20       1.0  0.6261200000000002  0.35715  0.31683  1.0000
  O   O21       1.0  0.47994  0.90222  0.29184  1.0000
  O   O22       1.0  0.00915  0.86664  0.24582  1.0000
  O   O23       1.0  0.61654  0.94832  0.35064  1.0000
  O   O24       1.0  0.8741800000000002  0.85265  0.18324999999999994  1.0000
  O   O25       1.0  0.97994  0.09777  0.20816  1.0000
  O   O26       1.0  0.50914  0.13336  0.25418  1.0000
  O   O27       1.0  0.11654000000000003  0.05168  0.14936  1.0000
  O   O28       1.0  0.37419  0.14734  0.31674999999999986  1.0000
  O   O29       1.0  0.51954  0.59779  0.2918499999999999  1.0000
  O   O30       1.0  0.99066  0.63306  0.24585  1.0000
  O   O31       1.0  0.38314000000000004  0.55061  0.35049  1.0000
  O   O32       1.0  0.12612  0.64284  0.18317  1.0000
