data_image0
_chemical_formula_structural       Zn8H112C144N16O32
_chemical_formula_sum              "Zn8 H112 C144 N16 O32"
_cell_length_a       13.50079
_cell_length_b       14.34734
_cell_length_c       21.76641
_cell_angle_alpha    90.23765
_cell_angle_beta     89.99494
_cell_angle_gamma    90.00136999999998

_symmetry_space_group_name_H-M    'P 1'
_symmetry_Int_Tables_number       1

loop_
  _symmetry_equiv_pos_as_xyz
  'x,y,z'

loop_
  _atom_site_type_symbol
  _atom_site_label
  _atom_site_symmetry_multiplicity
  _atom_site_fract_x
  _atom_site_fract_y
  _atom_site_fract_z
  _atom_site_occupancy
  Zn  Zn1       1.0  0.50185  0.39114  0.5672  1.0000
  Zn  Zn2       1.0  0.49816000000000005  0.8914500000000001  0.93467  1.0000
  Zn  Zn3       1.0  0.49814  0.60886  0.4328000000000001  1.0000
  Zn  Zn4       1.0  0.50183  0.10855  0.06533  1.0000
  Zn  Zn5       1.0  0.9982300000000001  0.6083000000000001  0.06535  1.0000
  Zn  Zn6       1.0  0.0018700000000000004  0.10852  0.43451  1.0000
  Zn  Zn7       1.0  0.0017700000000000003  0.3917  0.9346499999999999  1.0000
  Zn  Zn8       1.0  0.99813  0.8914800000000002  0.56549  1.0000
  H   H1        1.0  0.66052  0.47717  0.65094  1.0000
  H   H2        1.0  0.8393400000000002  0.52348  0.64439  1.0000
  H   H3        1.0  0.85643  0.36358  0.47596  1.0000
  H   H4        1.0  0.67723  0.33035  0.48792  1.0000
  H   H5        1.0  0.99396  0.52203  0.58774  1.0000
  H   H6        1.0  0.31817  0.46533  0.6367  1.0000
  H   H7        1.0  0.13842  0.49135  0.6169  1.0000
  H   H8        1.0  0.16872000000000006  0.32164  0.45394  1.0000
  H   H9        1.0  0.34866  0.30414  0.48040999999999995  1.0000
  H   H10       1.0  0.00589  0.36796000000000006  0.48903  1.0000
  H   H11       1.0  0.5119  0.11888  0.68812  1.0000
  H   H12       1.0  0.50277  0.29443  0.76952  1.0000
  H   H13       1.0  0.51145  0.08139  0.80099  1.0000
  H   H14       1.0  0.50584  0.25713  0.88292  1.0000
  H   H15       1.0  0.3405500000000001  0.97756  0.84998  1.0000
  H   H16       1.0  0.16143000000000002  0.02332  0.85589  1.0000
  H   H17       1.0  0.1429  0.8636100000000001  0.02348  1.0000
  H   H18       1.0  0.32241000000000003  0.83094  0.01215  1.0000
  H   H19       1.0  0.00622  0.02229  0.91237  1.0000
  H   H20       1.0  0.6807200000000002  0.96566  0.86395  1.0000
  H   H21       1.0  0.86095  0.99111  0.8830000000000001  1.0000
  H   H22       1.0  0.8319700000000001  0.82181  0.04529  1.0000
  H   H23       1.0  0.6516  0.80477  0.01953  1.0000
  H   H24       1.0  0.9941300000000002  0.86807  0.01014  1.0000
  H   H25       1.0  0.48797  0.6197000000000001  0.81077  1.0000
  H   H26       1.0  0.4971600000000001  0.79562  0.73084  1.0000
  H   H27       1.0  0.4886000000000001  0.58253  0.69845  1.0000
  H   H28       1.0  0.49407  0.75664  0.61623  1.0000
  H   H29       1.0  0.33948  0.52283  0.34906  1.0000
  H   H30       1.0  0.16065000000000002  0.47652  0.35561  1.0000
  H   H31       1.0  0.14356  0.63642  0.52404  1.0000
  H   H32       1.0  0.32276000000000005  0.66965  0.51208  1.0000
  H   H33       1.0  0.00603  0.47797  0.41226000000000007  1.0000
  H   H34       1.0  0.6818300000000003  0.53467  0.3633  1.0000
  H   H35       1.0  0.86158  0.50865  0.38310000000000005  1.0000
  H   H36       1.0  0.8312700000000002  0.6783600000000001  0.54606  1.0000
  H   H37       1.0  0.65133  0.69586  0.51959  1.0000
  H   H38       1.0  0.99411  0.63204  0.51097  1.0000
  H   H39       1.0  0.4880900000000001  0.88112  0.31188  1.0000
  H   H40       1.0  0.49723  0.70557  0.23048  1.0000
  H   H41       1.0  0.48854000000000003  0.91861  0.19901  1.0000
  H   H42       1.0  0.49416  0.74287  0.11708  1.0000
  H   H43       1.0  0.6594500000000002  0.02244  0.15002  1.0000
  H   H44       1.0  0.83856  0.9766800000000002  0.14412  1.0000
  H   H45       1.0  0.8570900000000002  0.13639  0.97652  1.0000
  H   H46       1.0  0.6775900000000002  0.16906000000000002  0.98785  1.0000
  H   H47       1.0  0.99377  0.9777100000000002  0.08763  1.0000
  H   H48       1.0  0.31928  0.03434  0.13605  1.0000
  H   H49       1.0  0.13905  0.008890000000000004  0.117  1.0000
  H   H50       1.0  0.16803  0.17819000000000002  0.95471  1.0000
  H   H51       1.0  0.34839  0.19523  0.9804700000000001  1.0000
  H   H52       1.0  0.00586  0.13193  0.9898600000000001  1.0000
  H   H53       1.0  0.51203  0.3803  0.18923  1.0000
  H   H54       1.0  0.50284  0.20438  0.26916  1.0000
  H   H55       1.0  0.5114  0.4174700000000001  0.30155  1.0000
  H   H56       1.0  0.50592  0.24336  0.38377  1.0000
  H   H57       1.0  0.84041  0.52263  0.14978  1.0000
  H   H58       1.0  0.66102  0.47749  0.14411  1.0000
  H   H59       1.0  0.6428300000000002  0.63661  0.9762800000000001  1.0000
  H   H60       1.0  0.8225100000000002  0.66872  0.98739  1.0000
  H   H61       1.0  0.50594  0.47864  0.08772  1.0000
  H   H62       1.0  0.18084  0.53445  0.13565  1.0000
  H   H63       1.0  0.36123  0.5096  0.11675  1.0000
  H   H64       1.0  0.33195000000000013  0.67831  0.9542499999999999  1.0000
  H   H65       1.0  0.15138000000000001  0.69477  0.97983  1.0000
  H   H66       1.0  0.4942  0.6319300000000001  0.98929  1.0000
  H   H67       1.0  0.9881700000000001  0.88102  0.1875  1.0000
  H   H68       1.0  0.9972400000000001  0.70494  0.26753  1.0000
  H   H69       1.0  0.98866  0.91777  0.30025  1.0000
  H   H70       1.0  0.99415  0.74322  0.38216999999999995  1.0000
  H   H71       1.0  0.15991  0.02223  0.34955  1.0000
  H   H72       1.0  0.3389400000000001  0.97616  0.3556  1.0000
  H   H73       1.0  0.3568800000000001  0.13621  0.52395  1.0000
  H   H74       1.0  0.17752  0.16918  0.51244  1.0000
  H   H75       1.0  0.4938500000000001  0.9770800000000002  0.41234000000000004  1.0000
  H   H76       1.0  0.8188700000000002  0.03415  0.36358  1.0000
  H   H77       1.0  0.6387700000000001  0.00851  0.38291  1.0000
  H   H78       1.0  0.66836  0.17813000000000007  0.54592  1.0000
  H   H79       1.0  0.84857  0.19536  0.51989  1.0000
  H   H80       1.0  0.50582  0.13196  0.51054  1.0000
  H   H81       1.0  0.01199  0.37747000000000014  0.31228  1.0000
  H   H82       1.0  0.00291  0.20273000000000002  0.23023000000000002  1.0000
  H   H83       1.0  0.01139  0.41623000000000004  0.20009999999999997  1.0000
  H   H84       1.0  0.00615  0.24279  0.11603  1.0000
  H   H85       1.0  0.15958  0.4773700000000001  0.85022  1.0000
  H   H86       1.0  0.33897  0.52251  0.85589  1.0000
  H   H87       1.0  0.35716  0.36339  0.023719999999999998  1.0000
  H   H88       1.0  0.17748000000000003  0.33128  0.01261  1.0000
  H   H89       1.0  0.4940500000000001  0.52136  0.91228  1.0000
  H   H90       1.0  0.8191600000000001  0.46555  0.8643499999999998  1.0000
  H   H91       1.0  0.63876  0.4904  0.8832500000000001  1.0000
  H   H92       1.0  0.66805  0.32169  0.04575  1.0000
  H   H93       1.0  0.8486100000000002  0.30523  0.02017  1.0000
  H   H94       1.0  0.5058  0.36807  0.01071  1.0000
  H   H95       1.0  0.01183  0.11898  0.8124999999999999  1.0000
  H   H96       1.0  0.00275  0.29506  0.73247  1.0000
  H   H97       1.0  0.011340000000000003  0.08223  0.69975  1.0000
  H   H98       1.0  0.00585  0.25678  0.61783  1.0000
  H   H99       1.0  0.84008  0.97777  0.65045  1.0000
  H   H100      1.0  0.6610500000000001  0.02384  0.6444  1.0000
  H   H101      1.0  0.6431200000000001  0.86379  0.4760499999999999  1.0000
  H   H102      1.0  0.82248  0.83082  0.48756000000000005  1.0000
  H   H103      1.0  0.50615  0.02292  0.58766  1.0000
  H   H104      1.0  0.18112  0.96585  0.63642  1.0000
  H   H105      1.0  0.3612200000000001  0.99149  0.61709  1.0000
  H   H106      1.0  0.33163000000000004  0.82187  0.45408  1.0000
  H   H107      1.0  0.15143000000000004  0.80464  0.48011  1.0000
  H   H108      1.0  0.49418  0.86804  0.48946  1.0000
  H   H109      1.0  0.9880100000000003  0.62253  0.68772  1.0000
  H   H110      1.0  0.99708  0.79727  0.76977  1.0000
  H   H111      1.0  0.9886000000000003  0.58377  0.7998999999999999  1.0000
  H   H112      1.0  0.9938500000000002  0.75721  0.88397  1.0000
  C   C1        1.0  0.7073300000000002  0.45403  0.61312  1.0000
  C   C2        1.0  0.8069900000000002  0.47854  0.60929  1.0000
  C   C3        1.0  0.86364  0.44933  0.55865  1.0000
  C   C4        1.0  0.8169600000000002  0.39088  0.51579  1.0000
  C   C5        1.0  0.71675  0.37127  0.52209  1.0000
  C   C6        1.0  0.9632100000000002  0.49079  0.54587  1.0000
  C   C7        1.0  0.28179  0.4342  0.59698  1.0000
  C   C8        1.0  0.18115  0.4481  0.58541  1.0000
  C   C9        1.0  0.13853  0.4101800000000001  0.53223  1.0000
  C   C10       1.0  0.1995  0.35449  0.49495  1.0000
  C   C11       1.0  0.2988900000000001  0.34437  0.50939  1.0000
  C   C12       1.0  0.037670000000000016  0.43241  0.50777  1.0000
  C   C13       1.0  0.50564  0.25925  0.64866  1.0000
  C   C14       1.0  0.50818  0.19252  0.70044  1.0000
  C   C15       1.0  0.50643  0.21979  0.76002  1.0000
  C   C16       1.0  0.50882  0.15604  0.81088  1.0000
  C   C17       1.0  0.50789  0.18354  0.87046  1.0000
  C   C18       1.0  0.50948  0.1163  0.92215  1.0000
  C   C19       1.0  0.29331  0.95439  0.88746  1.0000
  C   C20       1.0  0.19351000000000004  0.9785400000000001  0.89093  1.0000
  C   C21       1.0  0.1364  0.9493400000000002  0.9412200000000001  1.0000
  C   C22       1.0  0.18273  0.8909500000000001  0.98396  1.0000
  C   C23       1.0  0.28307  0.87172  0.9780500000000001  1.0000
  C   C24       1.0  0.0368  0.99088  0.9540500000000001  1.0000
  C   C25       1.0  0.71755  0.93452  0.90334  1.0000
  C   C26       1.0  0.8184  0.9480500000000002  0.91446  1.0000
  C   C27       1.0  0.86144  0.9102  0.96733  1.0000
  C   C28       1.0  0.80081  0.85459  0.00457  1.0000
  C   C29       1.0  0.70123  0.8448200000000001  0.99058  1.0000
  C   C30       1.0  0.96233  0.93248  0.99176  1.0000
  C   C31       1.0  0.49430000000000013  0.75923  0.85238  1.0000
  C   C32       1.0  0.49174  0.6935700000000001  0.7995599999999999  1.0000
  C   C33       1.0  0.49351  0.72112  0.74016  1.0000
  C   C34       1.0  0.49116000000000004  0.6571800000000002  0.68905  1.0000
  C   C35       1.0  0.4921  0.6835300000000001  0.62938  1.0000
  C   C36       1.0  0.49055  0.61428  0.57843  1.0000
  C   C37       1.0  0.29266  0.54597  0.38688000000000006  1.0000
  C   C38       1.0  0.19301  0.52146  0.39071  1.0000
  C   C39       1.0  0.13635  0.55067  0.44135  1.0000
  C   C40       1.0  0.18304  0.60912  0.48421  1.0000
  C   C41       1.0  0.28325  0.62873  0.47791  1.0000
  C   C42       1.0  0.03678  0.50921  0.45413000000000003  1.0000
  C   C43       1.0  0.7182000000000002  0.5658  0.40301999999999993  1.0000
  C   C44       1.0  0.81884  0.5519  0.41459  1.0000
  C   C45       1.0  0.86147  0.58982  0.46777  1.0000
  C   C46       1.0  0.80049  0.64551  0.50505  1.0000
  C   C47       1.0  0.7011  0.65563  0.49061  1.0000
  C   C48       1.0  0.96232  0.56759  0.49223  1.0000
  C   C49       1.0  0.4943500000000001  0.74075  0.35134  1.0000
  C   C50       1.0  0.49181  0.80748  0.29956  1.0000
  C   C51       1.0  0.49356  0.78021  0.23998000000000003  1.0000
  C   C52       1.0  0.4911700000000001  0.84396  0.18912000000000004  1.0000
  C   C53       1.0  0.49211  0.81646  0.12954  1.0000
  C   C54       1.0  0.4905100000000001  0.8837  0.07785  1.0000
  C   C55       1.0  0.70668  0.045610000000000005  0.11254  1.0000
  C   C56       1.0  0.8064800000000002  0.02146  0.10906999999999999  1.0000
  C   C57       1.0  0.8636  0.05066  0.05878  1.0000
  C   C58       1.0  0.8172700000000003  0.10905  0.01604  1.0000
  C   C59       1.0  0.71693  0.12828  0.02195  1.0000
  C   C60       1.0  0.9631900000000002  0.00912  0.04595  1.0000
  C   C61       1.0  0.28245  0.06548  0.09666000000000001  1.0000
  C   C62       1.0  0.1816  0.05195  0.08554  1.0000
  C   C63       1.0  0.13855000000000003  0.0898  0.03267  1.0000
  C   C64       1.0  0.19919  0.14541  0.99543  1.0000
  C   C65       1.0  0.29877  0.15518  0.00942  1.0000
  C   C66       1.0  0.037670000000000016  0.06752  0.00824  1.0000
  C   C67       1.0  0.50569  0.24077  0.14762  1.0000
  C   C68       1.0  0.50825  0.30643  0.20044000000000003  1.0000
  C   C69       1.0  0.50648  0.2788800000000001  0.25984  1.0000
  C   C70       1.0  0.50883  0.34282  0.31095  1.0000
  C   C71       1.0  0.50789  0.31647  0.37062  1.0000
  C   C72       1.0  0.50944  0.38572  0.42157  1.0000
  C   C73       1.0  0.7931600000000001  0.54586  0.11232999999999999  1.0000
  C   C74       1.0  0.6932900000000001  0.52199  0.10897  1.0000
  C   C75       1.0  0.6362600000000002  0.55112  0.05865  1.0000
  C   C76       1.0  0.68268  0.60925  0.01579  1.0000
  C   C77       1.0  0.7830900000000002  0.62823  0.02162  1.0000
  C   C78       1.0  0.53667  0.50958  0.04593  1.0000
  C   C79       1.0  0.21765000000000007  0.56563  0.09627  1.0000
  C   C80       1.0  0.3185400000000001  0.55235  0.08519  1.0000
  C   C81       1.0  0.3615  0.59009  0.03227  1.0000
  C   C82       1.0  0.3007500000000001  0.64547  0.99495  1.0000
  C   C83       1.0  0.20112  0.655  0.00888  1.0000
  C   C84       1.0  0.46238  0.5676700000000001  0.0079  1.0000
  C   C85       1.0  0.99437  0.74105  0.1468  1.0000
  C   C86       1.0  0.99186  0.80732  0.19923  1.0000
  C   C87       1.0  0.9936100000000001  0.77959  0.25859  1.0000
  C   C88       1.0  0.9912300000000003  0.8432  0.30982  1.0000
  C   C89       1.0  0.9921200000000002  0.81647  0.36940999999999996  1.0000
  C   C90       1.0  0.99052  0.88506  0.42071  1.0000
  C   C91       1.0  0.20699000000000006  0.045380000000000004  0.38724  1.0000
  C   C92       1.0  0.30675000000000013  0.02107  0.39079  1.0000
  C   C93       1.0  0.36367  0.050320000000000004  0.4413  1.0000
  C   C94       1.0  0.31719  0.10884  0.48423000000000005  1.0000
  C   C95       1.0  0.21691000000000002  0.12825  0.47821  1.0000
  C   C96       1.0  0.46323  0.008830000000000001  0.4540699999999999  1.0000
  C   C97       1.0  0.78222  0.06531  0.4032  1.0000
  C   C98       1.0  0.68144  0.05168  0.41446999999999995  1.0000
  C   C99       1.0  0.6385700000000001  0.08964  0.46757  1.0000
  C   C100      1.0  0.6993700000000003  0.14531  0.50498  1.0000
  C   C101      1.0  0.79887  0.15519000000000002  0.49083000000000004  1.0000
  C   C102      1.0  0.53769  0.06746  0.49196000000000006  1.0000
  C   C103      1.0  0.00569  0.23685  0.35125  1.0000
  C   C104      1.0  0.00828  0.30396  0.2997  1.0000
  C   C105      1.0  0.00655  0.27727  0.24000000000000002  1.0000
  C   C106      1.0  0.0089  0.3417800000000001  0.18954000000000001  1.0000
  C   C107      1.0  0.00805  0.31597  0.12963  1.0000
  C   C108      1.0  0.009540000000000002  0.38515  0.07898  1.0000
  C   C109      1.0  0.20683  0.4541400000000001  0.8876699999999998  1.0000
  C   C110      1.0  0.30671  0.47801  0.8910300000000001  1.0000
  C   C111      1.0  0.3637400000000001  0.44888  0.94135  1.0000
  C   C112      1.0  0.31731  0.39075  0.98421  1.0000
  C   C113      1.0  0.21691000000000002  0.37177  0.97838  1.0000
  C   C114      1.0  0.46333  0.49042  0.95407  1.0000
  C   C115      1.0  0.78235  0.43437  0.90373  1.0000
  C   C116      1.0  0.68146  0.44765  0.91481  1.0000
  C   C117      1.0  0.6385  0.40991  0.9677300000000001  1.0000
  C   C118      1.0  0.6992400000000001  0.35453  0.00505  1.0000
  C   C119      1.0  0.79887  0.345  0.99112  1.0000
  C   C120      1.0  0.53761  0.43233  0.9921  1.0000
  C   C121      1.0  0.00563  0.25895  0.8532  1.0000
  C   C122      1.0  0.00813  0.19269  0.8007700000000001  1.0000
  C   C123      1.0  0.00639  0.22041000000000002  0.74141  1.0000
  C   C124      1.0  0.00876  0.1568  0.69018  1.0000
  C   C125      1.0  0.00787  0.18353  0.63059  1.0000
  C   C126      1.0  0.00947  0.11494  0.57929  1.0000
  C   C127      1.0  0.793  0.95462  0.61276  1.0000
  C   C128      1.0  0.69325  0.97893  0.60921  1.0000
  C   C129      1.0  0.63633  0.94968  0.5587  1.0000
  C   C130      1.0  0.6828  0.89116  0.51577  1.0000
  C   C131      1.0  0.7830800000000001  0.87175  0.52179  1.0000
  C   C132      1.0  0.53677  0.99117  0.54593  1.0000
  C   C133      1.0  0.21777000000000005  0.93469  0.5968  1.0000
  C   C134      1.0  0.31855  0.94832  0.58553  1.0000
  C   C135      1.0  0.36142000000000013  0.91036  0.53243  1.0000
  C   C136      1.0  0.30063  0.85469  0.49502000000000007  1.0000
  C   C137      1.0  0.20112  0.84481  0.50917  1.0000
  C   C138      1.0  0.46231  0.9325400000000001  0.50804  1.0000
  C   C139      1.0  0.9943  0.76315  0.64875  1.0000
  C   C140      1.0  0.9917200000000003  0.69604  0.7003  1.0000
  C   C141      1.0  0.9934500000000003  0.7227300000000002  0.7600000000000001  1.0000
  C   C142      1.0  0.9911000000000002  0.65822  0.81046  1.0000
  C   C143      1.0  0.99195  0.68403  0.87037  1.0000
  C   C144      1.0  0.99045  0.61485  0.92102  1.0000
  N   N1        1.0  0.66154  0.40344  0.56913  1.0000
  N   N2        1.0  0.34099  0.38527  0.55886  1.0000
  N   N3        1.0  0.3387400000000001  0.90418  0.93151  1.0000
  N   N4        1.0  0.65868  0.886  0.9416099999999998  1.0000
  N   N5        1.0  0.33846  0.59656  0.43087  1.0000
  N   N6        1.0  0.65901  0.6147300000000001  0.44114  1.0000
  N   N7        1.0  0.6612500000000001  0.09582  0.06849  1.0000
  N   N8        1.0  0.34131000000000006  0.114  0.05839  1.0000
  N   N9        1.0  0.8387  0.59578  0.06818  1.0000
  N   N10       1.0  0.15867  0.61384  0.0579  1.0000
  N   N11       1.0  0.16141000000000005  0.0958  0.4314  1.0000
  N   N12       1.0  0.8412400000000001  0.11402000000000001  0.44155  1.0000
  N   N13       1.0  0.16129  0.40422  0.93182  1.0000
  N   N14       1.0  0.84133  0.38616  0.9420999999999999  1.0000
  N   N15       1.0  0.83859  0.9042  0.5686  1.0000
  N   N16       1.0  0.15876  0.8859800000000001  0.55845  1.0000
  O   O1        1.0  0.49988000000000005  0.34696  0.66032  1.0000
  O   O2        1.0  0.50975  0.22688000000000003  0.59402  1.0000
  O   O3        1.0  0.51029  0.15338  0.9758199999999999  1.0000
  O   O4        1.0  0.51008  0.03  0.90921  1.0000
  O   O5        1.0  0.50019  0.84722  0.84213  1.0000
  O   O6        1.0  0.4901200000000001  0.726  0.9065  1.0000
  O   O7        1.0  0.48978  0.64872  0.52427  1.0000
  O   O8        1.0  0.48990000000000006  0.52861  0.59294  1.0000
  O   O9        1.0  0.50012  0.6530400000000001  0.33968  1.0000
  O   O10       1.0  0.49024  0.77312  0.40598  1.0000
  O   O11       1.0  0.4897100000000001  0.84662  0.024180000000000004  1.0000
  O   O12       1.0  0.4899100000000001  0.97  0.09079  1.0000
  O   O13       1.0  0.49981  0.15278  0.15787  1.0000
  O   O14       1.0  0.50988  0.274  0.0935  1.0000
  O   O15       1.0  0.51022  0.35128  0.47573000000000004  1.0000
  O   O16       1.0  0.51009  0.4713900000000001  0.40706  1.0000
  O   O17       1.0  0.00013  0.65324  0.15769  1.0000
  O   O18       1.0  0.9902900000000001  0.77349  0.09242000000000002  1.0000
  O   O19       1.0  0.98973  0.84973  0.47469999999999996  1.0000
  O   O20       1.0  0.9899100000000002  0.9709  0.40680000000000005  1.0000
  O   O21       1.0  0.9998700000000001  0.14928  0.33959  1.0000
  O   O22       1.0  0.00979  0.26889  0.40607999999999994  1.0000
  O   O23       1.0  0.010340000000000002  0.35002  0.02476  1.0000
  O   O24       1.0  0.01006  0.47098  0.09349  1.0000
  O   O25       1.0  0.9998600000000001  0.34676  0.8423100000000001  1.0000
  O   O26       1.0  0.009710000000000002  0.22651  0.90758  1.0000
  O   O27       1.0  0.01026  0.15027  0.5253  1.0000
  O   O28       1.0  0.01009  0.0291  0.5932  1.0000
  O   O29       1.0  0.00013  0.85072  0.66041  1.0000
  O   O30       1.0  0.9902000000000002  0.73111  0.59392  1.0000
  O   O31       1.0  0.98966  0.64998  0.97524  1.0000
  O   O32       1.0  0.98994  0.52902  0.90651  1.0000
