data_image0
_chemical_formula_structural       Zn8H92C152N24O24
_chemical_formula_sum              "Zn8 H92 C152 N24 O24"
_cell_length_a       15.01243
_cell_length_b       17.828189999999996
_cell_length_c       19.86113
_cell_angle_alpha    116.10011
_cell_angle_beta     92.87028
_cell_angle_gamma    105.947

_symmetry_space_group_name_H-M    'P 1'
_symmetry_Int_Tables_number       1

loop_
  _symmetry_equiv_pos_as_xyz
  'x,y,z'

loop_
  _atom_site_type_symbol
  _atom_site_label
  _atom_site_symmetry_multiplicity
  _atom_site_fract_x
  _atom_site_fract_y
  _atom_site_fract_z
  _atom_site_occupancy
  Zn  Zn1       1.0  0.72619  0.63985  0.33681  1.0000
  Zn  Zn2       1.0  0.7881500000000001  0.6969500000000002  0.9426  1.0000
  Zn  Zn3       1.0  0.85245  0.77608  0.67713  1.0000
  Zn  Zn4       1.0  0.66688  0.55262  0.59866  1.0000
  Zn  Zn5       1.0  0.27382  0.36016  0.66319  1.0000
  Zn  Zn6       1.0  0.21185  0.30306  0.0574  1.0000
  Zn  Zn7       1.0  0.14756  0.22392  0.32288  1.0000
  Zn  Zn8       1.0  0.33313  0.44738  0.40135  1.0000
  H   H1        1.0  0.69023  0.20768  0.17205  1.0000
  H   H2        1.0  0.5994400000000002  0.6757000000000003  0.9883900000000001  1.0000
  H   H3        1.0  0.51976  0.6011  0.2778  1.0000
  H   H4        1.0  0.41143  0.68771  0.28976  1.0000
  H   H5        1.0  0.3466600000000001  0.12736000000000006  0.43011  1.0000
  H   H6        1.0  0.62787  0.11918999999999999  0.46720999999999996  1.0000
  H   H7        1.0  0.57385  0.98947  0.40195  1.0000
  H   H8        1.0  0.4134300000000001  0.2915400000000001  0.48225000000000007  1.0000
  H   H9        1.0  0.6471400000000002  0.06723000000000003  0.11171  1.0000
  H   H10       1.0  0.77405  0.05945  0.73481  1.0000
  H   H11       1.0  0.6472800000000001  0.56422  0.76787  1.0000
  H   H12       1.0  0.32749  0.76681  0.3505  1.0000
  H   H13       1.0  0.8748700000000003  0.96346  0.70573  1.0000
  H   H14       1.0  0.7285  0.37069000000000013  0.23586  1.0000
  H   H15       1.0  0.46343  0.90132  0.71194  1.0000
  H   H16       1.0  0.81785  0.88896  0.00677  1.0000
  H   H17       1.0  0.6992  0.1443  0.81025  1.0000
  H   H18       1.0  0.8895000000000002  0.7889700000000002  0.84415  1.0000
  H   H19       1.0  0.64929  0.9242900000000001  0.43257  1.0000
  H   H20       1.0  0.66726  0.7671  0.72253  1.0000
  H   H21       1.0  0.55833  0.85227  0.75023  1.0000
  H   H22       1.0  0.6177  0.53504  0.42899  1.0000
  H   H23       1.0  0.8541000000000002  0.76618  0.51169  1.0000
  H   H24       1.0  0.40645  0.82838  0.02126  1.0000
  H   H25       1.0  0.39485  0.17558  0.1278  1.0000
  H   H26       1.0  0.73732  0.27152  0.82711  1.0000
  H   H27       1.0  0.4964  0.76663  0.03717  1.0000
  H   H28       1.0  0.44856000000000007  0.25531000000000015  0.84485  1.0000
  H   H29       1.0  0.08803000000000004  0.7223900000000001  0.9832900000000001  1.0000
  H   H30       1.0  0.69312  0.28058  0.51848  1.0000
  H   H31       1.0  0.43494  0.33966  0.19459  1.0000
  H   H32       1.0  0.2595  0.04293  0.08503  1.0000
  H   H33       1.0  0.7489400000000002  0.82785  0.40806  1.0000
  H   H34       1.0  0.7805800000000002  0.4330699999999999  0.87366  1.0000
  H   H35       1.0  0.49237000000000003  0.4176200000000001  0.88637  1.0000
  H   H36       1.0  0.26341  0.77871  0.014180000000000002  1.0000
  H   H37       1.0  0.72141  0.98813  0.04997  1.0000
  H   H38       1.0  0.08282000000000005  0.98402  0.04633  1.0000
  H   H39       1.0  0.15261  0.80103  0.71715  1.0000
  H   H40       1.0  0.32761000000000007  0.8657000000000001  0.74414  1.0000
  H   H41       1.0  0.30297  0.08472999999999997  0.71424  1.0000
  H   H42       1.0  0.12658  0.013450000000000026  0.67909  1.0000
  H   H43       1.0  0.02335  0.93188  0.44687  1.0000
  H   H44       1.0  0.19571000000000008  0.98809  0.44763  1.0000
  H   H45       1.0  0.18404000000000006  0.7215400000000002  0.29609  1.0000
  H   H46       1.0  0.011860000000000115  0.6679700000000003  0.29288  1.0000
  H   H47       1.0  0.3097700000000001  0.7923200000000002  0.82796  1.0000
  H   H48       1.0  0.4005600000000002  0.32431  0.01161  1.0000
  H   H49       1.0  0.48024  0.3989  0.72221  1.0000
  H   H50       1.0  0.58857  0.31229  0.71025  1.0000
  H   H51       1.0  0.65335  0.8726499999999999  0.5699  1.0000
  H   H52       1.0  0.37214000000000014  0.8808100000000002  0.53279  1.0000
  H   H53       1.0  0.42616  0.010539999999999996  0.59805  1.0000
  H   H54       1.0  0.58657  0.70846  0.51776  1.0000
  H   H55       1.0  0.3528600000000001  0.9327700000000001  0.8883  1.0000
  H   H56       1.0  0.22595  0.9405500000000001  0.2652  1.0000
  H   H57       1.0  0.35273  0.43578  0.23213  1.0000
  H   H58       1.0  0.67251  0.23318999999999998  0.6495  1.0000
  H   H59       1.0  0.12513  0.036539999999999996  0.29428  1.0000
  H   H60       1.0  0.2715  0.62931  0.76414  1.0000
  H   H61       1.0  0.53657  0.09868000000000003  0.28806  1.0000
  H   H62       1.0  0.18216000000000002  0.11104000000000011  0.99323  1.0000
  H   H63       1.0  0.3008100000000002  0.8557000000000002  0.18975  1.0000
  H   H64       1.0  0.11050000000000001  0.21104  0.15586  1.0000
  H   H65       1.0  0.35072  0.07571000000000001  0.56744  1.0000
  H   H66       1.0  0.33274  0.2329  0.27748  1.0000
  H   H67       1.0  0.44168  0.14774  0.24976999999999996  1.0000
  H   H68       1.0  0.3823  0.46496  0.57101  1.0000
  H   H69       1.0  0.14591  0.23382000000000003  0.48831  1.0000
  H   H70       1.0  0.59355  0.17161999999999997  0.97874  1.0000
  H   H71       1.0  0.6051600000000001  0.82443  0.8722  1.0000
  H   H72       1.0  0.26269  0.72848  0.17289  1.0000
  H   H73       1.0  0.5036100000000001  0.23337000000000016  0.9628300000000001  1.0000
  H   H74       1.0  0.55145  0.7447000000000001  0.15515  1.0000
  H   H75       1.0  0.9119800000000001  0.2776100000000001  0.01671  1.0000
  H   H76       1.0  0.30688000000000004  0.7194300000000002  0.48152  1.0000
  H   H77       1.0  0.56506  0.66034  0.80542  1.0000
  H   H78       1.0  0.7405  0.9570800000000002  0.91498  1.0000
  H   H79       1.0  0.25107  0.17216  0.59195  1.0000
  H   H80       1.0  0.21942999999999996  0.56693  0.12634  1.0000
  H   H81       1.0  0.50764  0.58238  0.11363  1.0000
  H   H82       1.0  0.73659  0.22130000000000005  0.98582  1.0000
  H   H83       1.0  0.27859000000000006  0.011870000000000106  0.9500400000000001  1.0000
  H   H84       1.0  0.9171900000000002  0.01597999999999989  0.9536699999999999  1.0000
  H   H85       1.0  0.8474  0.19897  0.28285  1.0000
  H   H86       1.0  0.6724  0.1343  0.25586  1.0000
  H   H87       1.0  0.69704  0.91528  0.28576  1.0000
  H   H88       1.0  0.87343  0.9865500000000001  0.32091  1.0000
  H   H89       1.0  0.9766500000000002  0.06812  0.55313  1.0000
  H   H90       1.0  0.80429  0.011909999999999959  0.55238  1.0000
  H   H91       1.0  0.81597  0.27846  0.70392  1.0000
  H   H92       1.0  0.98815  0.33203  0.70712  1.0000
  C   C1        1.0  0.5203  0.81503  0.36221  1.0000
  C   C2        1.0  0.6331900000000001  0.23527  0.17638  1.0000
  C   C3        1.0  0.62438  0.74607  0.0055  1.0000
  C   C4        1.0  0.54519  0.67311  0.30972  1.0000
  C   C5        1.0  0.5575200000000002  0.29662  0.50367  1.0000
  C   C6        1.0  0.48182  0.11124000000000002  0.44418  1.0000
  C   C7        1.0  0.48506000000000005  0.72246  0.3187  1.0000
  C   C8        1.0  0.60393  0.46346999999999994  0.26553  1.0000
  C   C9        1.0  0.4224300000000001  0.16155000000000008  0.44895  1.0000
  C   C10       1.0  0.5799299999999997  0.15550999999999998  0.4687299999999999  1.0000
  C   C11       1.0  0.4988200000000001  0.96102  0.39822  1.0000
  C   C12       1.0  0.59045  0.016180000000000038  0.75972  1.0000
  C   C13       1.0  0.45965  0.25293000000000004  0.47814  1.0000
  C   C14       1.0  0.57139  0.033230000000000016  0.09773  1.0000
  C   C15       1.0  0.74743  0.9957800000000001  0.73395  1.0000
  C   C16       1.0  0.53533  0.9406499999999999  0.06559  1.0000
  C   C17       1.0  0.44119  0.014389999999999981  0.41556  1.0000
  C   C18       1.0  0.70607  0.61656  0.76892  1.0000
  C   C19       1.0  0.36112  0.83601  0.3659  1.0000
  C   C20       1.0  0.8048100000000002  0.94306  0.71762  1.0000
  C   C21       1.0  0.6554900000000001  0.32723000000000013  0.21267  1.0000
  C   C22       1.0  0.55874  0.15437999999999996  0.80183  1.0000
  C   C23       1.0  0.27403000000000005  0.9152500000000002  0.04993  1.0000
  C   C24       1.0  0.45924999999999994  0.87054  0.37471  1.0000
  C   C25       1.0  0.58899  0.25173  0.833  1.0000
  C   C26       1.0  0.58376  0.36531  0.22123  1.0000
  C   C27       1.0  0.50858  0.0814  0.11174  1.0000
  C   C28       1.0  0.49248  0.9731100000000001  0.73998  1.0000
  C   C29       1.0  0.59922  0.39422  0.53823  1.0000
  C   C30       1.0  0.5385000000000001  0.17926  0.14656  1.0000
  C   C31       1.0  0.74619  0.86567  0.015010000000000003  1.0000
  C   C32       1.0  0.6237  0.10857000000000008  0.7919  1.0000
  C   C33       1.0  0.82919  0.73107  0.80708  1.0000
  C   C34       1.0  0.6171699999999999  0.8534999999999999  0.39509  1.0000
  C   C35       1.0  0.68859  0.83209  0.72549  1.0000
  C   C36       1.0  0.62739  0.8805000000000001  0.74088  1.0000
  C   C37       1.0  0.67943  0.59137  0.46579  1.0000
  C   C38       1.0  0.79936  0.70949  0.50831  1.0000
  C   C39       1.0  0.4371  0.8999800000000002  0.048830000000000005  1.0000
  C   C40       1.0  0.46764  0.21861  0.15245  1.0000
  C   C41       1.0  0.65587  0.9647400000000002  0.74543  1.0000
  C   C42       1.0  0.68312  0.3026400000000001  0.8416  1.0000
  C   C43       1.0  0.37842999999999993  0.9523200000000002  0.06549  1.0000
  C   C44       1.0  0.43165000000000003  0.02315000000000009  0.7524000000000001  1.0000
  C   C45       1.0  0.07505000000000002  0.8496  0.0121  1.0000
  C   C46       1.0  0.3068000000000001  0.8924000000000002  0.38153  1.0000
  C   C47       1.0  0.5664900000000002  0.79751  0.03089  1.0000
  C   C48       1.0  0.52113  0.29489  0.85168  1.0000
  C   C49       1.0  0.12633  0.79239  0.00479  1.0000
  C   C50       1.0  0.61738  0.24675000000000002  0.49828999999999996  1.0000
  C   C51       1.0  0.48983000000000004  0.30976  0.18972  1.0000
  C   C52       1.0  0.2213  0.9727300000000001  0.06158999999999999  1.0000
  C   C53       1.0  0.67363  0.80075  0.38306  1.0000
  C   C54       1.0  0.70802  0.39335999999999993  0.86687  1.0000
  C   C55       1.0  0.5455300000000001  0.38497  0.87496  1.0000
  C   C56       1.0  0.2249200000000001  0.8246300000000002  0.02242  1.0000
  C   C57       1.0  0.69143  0.9203200000000002  0.03968  1.0000
  C   C58       1.0  0.90545  0.76481  0.37511  1.0000
  C   C59       1.0  0.59823  0.8864600000000002  0.04658  1.0000
  C   C60       1.0  0.63905  0.43491  0.88214  1.0000
  C   C61       1.0  0.12340000000000001  0.94035  0.04133  1.0000
  C   C62       1.0  0.66362  0.53033  0.90106  1.0000
  C   C63       1.0  0.9700300000000002  0.81591  0.98573  1.0000
  C   C64       1.0  0.12918000000000002  0.90374  0.69715  1.0000
  C   C65       1.0  0.18638000000000002  0.86218  0.71524  1.0000
  C   C66       1.0  0.28443  0.89916  0.73069  1.0000
  C   C67       1.0  0.32761  0.98053  0.73169  1.0000
  C   C68       1.0  0.26974  0.02186000000000004  0.7135  1.0000
  C   C69       1.0  0.17178000000000004  0.98294  0.6947900000000001  1.0000
  C   C70       1.0  0.023940000000000117  0.86518  0.68168  1.0000
  C   C71       1.0  0.059590000000000004  0.88693  0.41369  1.0000
  C   C72       1.0  0.15559999999999993  0.91794  0.4146  1.0000
  C   C73       1.0  0.20300000000000004  0.85882  0.37432  1.0000
  C   C74       1.0  0.14986000000000002  0.76838  0.32966  1.0000
  C   C75       1.0  0.053090000000000075  0.7377000000000002  0.32736  1.0000
  C   C76       1.0  0.007539999999999979  0.79649  0.3708  1.0000
  C   C77       1.0  0.4797100000000001  0.18498  0.6378  1.0000
  C   C78       1.0  0.36682  0.7647300000000002  0.82362  1.0000
  C   C79       1.0  0.37563  0.25392999999999993  0.9945000000000002  1.0000
  C   C80       1.0  0.45481  0.32689  0.69028  1.0000
  C   C81       1.0  0.44248  0.70339  0.49633  1.0000
  C   C82       1.0  0.51818  0.88876  0.55582  1.0000
  C   C83       1.0  0.51495  0.27754  0.6813  1.0000
  C   C84       1.0  0.39607  0.53653  0.73447  1.0000
  C   C85       1.0  0.57758  0.83845  0.55105  1.0000
  C   C86       1.0  0.42007000000000005  0.84449  0.53127  1.0000
  C   C87       1.0  0.50119  0.03897999999999996  0.60179  1.0000
  C   C88       1.0  0.4095600000000001  0.9838200000000001  0.24029  1.0000
  C   C89       1.0  0.54035  0.74707  0.52187  1.0000
  C   C90       1.0  0.42862000000000017  0.9667700000000001  0.90227  1.0000
  C   C91       1.0  0.25257  0.004220000000000004  0.26606  1.0000
  C   C92       1.0  0.46468  0.05935000000000001  0.9344099999999999  1.0000
  C   C93       1.0  0.55881  0.98561  0.58444  1.0000
  C   C94       1.0  0.29393  0.38344000000000006  0.23109000000000002  1.0000
  C   C95       1.0  0.6388900000000001  0.16399000000000005  0.6341  1.0000
  C   C96       1.0  0.19519  0.05693999999999998  0.28238  1.0000
  C   C97       1.0  0.34451000000000015  0.6727700000000001  0.7873300000000001  1.0000
  C   C98       1.0  0.44127000000000005  0.84562  0.19818  1.0000
  C   C99       1.0  0.72598  0.08475000000000005  0.9500700000000001  1.0000
  C   C100      1.0  0.54075  0.12946999999999995  0.6253  1.0000
  C   C101      1.0  0.41101  0.74828  0.16701  1.0000
  C   C102      1.0  0.41624  0.6347  0.77877  1.0000
  C   C103      1.0  0.4914200000000001  0.9186  0.88826  1.0000
  C   C104      1.0  0.50752  0.026889999999999997  0.26002  1.0000
  C   C105      1.0  0.4007800000000001  0.6057800000000001  0.46177  1.0000
  C   C106      1.0  0.46151000000000003  0.8207400000000001  0.85344  1.0000
  C   C107      1.0  0.25381000000000004  0.1343300000000001  0.985  1.0000
  C   C108      1.0  0.3763  0.89144  0.20811  1.0000
  C   C109      1.0  0.17081  0.26893  0.19292  1.0000
  C   C110      1.0  0.38283  0.14650999999999995  0.60491  1.0000
  C   C111      1.0  0.31142000000000003  0.16791000000000003  0.27452  1.0000
  C   C112      1.0  0.3726100000000001  0.1195  0.25912  1.0000
  C   C113      1.0  0.32058000000000003  0.4086300000000001  0.53422  1.0000
  C   C114      1.0  0.20065000000000002  0.29051000000000005  0.49169999999999997  1.0000
  C   C115      1.0  0.5629100000000001  0.10002  0.95117  1.0000
  C   C116      1.0  0.53236  0.78139  0.84756  1.0000
  C   C117      1.0  0.34413  0.03525999999999999  0.25457  1.0000
  C   C118      1.0  0.31689000000000006  0.6973600000000001  0.15841  1.0000
  C   C119      1.0  0.62158  0.04768  0.93451  1.0000
  C   C120      1.0  0.56836  0.97686  0.2476  1.0000
  C   C121      1.0  0.9249599999999999  0.15039999999999992  0.9879  1.0000
  C   C122      1.0  0.6932  0.1076  0.61847  1.0000
  C   C123      1.0  0.43350999999999995  0.2024899999999999  0.96911  1.0000
  C   C124      1.0  0.47888  0.70512  0.14832  1.0000
  C   C125      1.0  0.87368  0.20761  0.99521  1.0000
  C   C126      1.0  0.38263  0.75325  0.50172  1.0000
  C   C127      1.0  0.5101800000000002  0.69024  0.81028  1.0000
  C   C128      1.0  0.7787  0.027270000000000044  0.93841  1.0000
  C   C129      1.0  0.32638  0.19926000000000008  0.61694  1.0000
  C   C130      1.0  0.2919900000000001  0.60664  0.13313  1.0000
  C   C131      1.0  0.45447  0.61503  0.12504  1.0000
  C   C132      1.0  0.77508  0.17537000000000003  0.97758  1.0000
  C   C133      1.0  0.30857  0.07968000000000006  0.9603200000000001  1.0000
  C   C134      1.0  0.09455  0.23519000000000004  0.6249  1.0000
  C   C135      1.0  0.40177  0.11353999999999982  0.9534299999999999  1.0000
  C   C136      1.0  0.36096  0.56509  0.11786  1.0000
  C   C137      1.0  0.87661  0.05965  0.95868  1.0000
  C   C138      1.0  0.33638  0.46967  0.09894  1.0000
  C   C139      1.0  0.029970000000000007  0.1841  0.01427  1.0000
  C   C140      1.0  0.87082  0.09626  0.30286  1.0000
  C   C141      1.0  0.81362  0.13782  0.28476  1.0000
  C   C142      1.0  0.71557  0.10084000000000001  0.26931  1.0000
  C   C143      1.0  0.6724  0.01947  0.26831  1.0000
  C   C144      1.0  0.73026  0.97814  0.2865  1.0000
  C   C145      1.0  0.82823  0.01705999999999998  0.30521  1.0000
  C   C146      1.0  0.97606  0.13482  0.31832  1.0000
  C   C147      1.0  0.9404100000000001  0.11307000000000005  0.58631  1.0000
  C   C148      1.0  0.84441  0.08207000000000002  0.5854  1.0000
  C   C149      1.0  0.7970099999999999  0.14117999999999994  0.62568  1.0000
  C   C150      1.0  0.85015  0.23162  0.67034  1.0000
  C   C151      1.0  0.94691  0.26231  0.67265  1.0000
  C   C152      1.0  0.99246  0.20351  0.6292  1.0000
  N   N1        1.0  0.63851  0.7114500000000001  0.34089  1.0000
  N   N2        1.0  0.70901  0.61648  0.53956  1.0000
  N   N3        1.0  0.46456  0.11183000000000001  0.78229  1.0000
  N   N4        1.0  0.77621  0.86197  0.71345  1.0000
  N   N5        1.0  0.80054  0.7035  0.73309  1.0000
  N   N6        1.0  0.34690000000000004  0.9803900000000001  0.40731  1.0000
  N   N7        1.0  0.4145  0.0407  0.09583  1.0000
  N   N8        1.0  0.7206300000000002  0.62983  0.70846  1.0000
  N   N9        1.0  0.78656  0.69259  0.56677  1.0000
  N   N10       1.0  0.71294  0.77891  0.9965100000000001  1.0000
  N   N11       1.0  0.73408  0.6477800000000002  0.44432  1.0000
  N   N12       1.0  0.77218  0.6789  0.83173  1.0000
  N   N13       1.0  0.3615  0.28856  0.65911  1.0000
  N   N14       1.0  0.29099  0.3835299999999999  0.46044  1.0000
  N   N15       1.0  0.53544  0.8881700000000001  0.21771  1.0000
  N   N16       1.0  0.22379999999999997  0.13803  0.28655  1.0000
  N   N17       1.0  0.19947000000000004  0.2965  0.26692  1.0000
  N   N18       1.0  0.6531  0.019610000000000086  0.5927  1.0000
  N   N19       1.0  0.5855  0.9593000000000002  0.90417  1.0000
  N   N20       1.0  0.27938  0.3701700000000001  0.29154  1.0000
  N   N21       1.0  0.21344  0.30741  0.43324  1.0000
  N   N22       1.0  0.28707  0.22109  0.0035  1.0000
  N   N23       1.0  0.26593  0.35223  0.55569  1.0000
  N   N24       1.0  0.22783  0.3211  0.16827  1.0000
  O   O1        1.0  0.68833  0.43175  0.56536  1.0000
  O   O2        1.0  0.68803  0.51191  0.26878  1.0000
  O   O3        1.0  0.54141  0.49204000000000003  0.2971  1.0000
  O   O4        1.0  0.75027  0.57932  0.93598  1.0000
  O   O5        1.0  0.92491  0.7412900000000001  0.9834700000000001  1.0000
  O   O6        1.0  0.5475100000000002  0.44273000000000007  0.54238  1.0000
  O   O7        1.0  0.8562300000000002  0.6848200000000002  0.32353  1.0000
  O   O8        1.0  0.9326399999999999  0.8603  0.96629  1.0000
  O   O9        1.0  0.60241  0.55616  0.88106  1.0000
  O   O10       1.0  0.87462  0.81551  0.4279800000000001  1.0000
  O   O11       1.0  0.9898  0.80598  0.70392  1.0000
  O   O12       1.0  0.97206  0.88968  0.64982  1.0000
  O   O13       1.0  0.31168  0.56826  0.43464  1.0000
  O   O14       1.0  0.3119700000000001  0.48810000000000003  0.73122  1.0000
  O   O15       1.0  0.4585900000000001  0.5079700000000001  0.70291  1.0000
  O   O16       1.0  0.24973000000000006  0.42068  0.06402  1.0000
  O   O17       1.0  0.07509  0.25871  0.01653  1.0000
  O   O18       1.0  0.45249  0.55727  0.45762  1.0000
  O   O19       1.0  0.14377  0.31518  0.67647  1.0000
  O   O20       1.0  0.06736  0.1397  0.03371  1.0000
  O   O21       1.0  0.39759000000000005  0.4438400000000002  0.11894  1.0000
  O   O22       1.0  0.12539  0.18449  0.57202  1.0000
  O   O23       1.0  0.010209999999999993  0.19402  0.29608  1.0000
  O   O24       1.0  0.027950000000000006  0.11032000000000004  0.35018  1.0000
