data_image0
_chemical_formula_structural       Ni14H64C96N8O48
_chemical_formula_sum              "Ni14 H64 C96 N8 O48"
_cell_length_a       13.04684
_cell_length_b       13.82823
_cell_length_c       19.86417
_cell_angle_alpha    90.01995
_cell_angle_beta     90.0
_cell_angle_gamma    90.0

_symmetry_space_group_name_H-M    'P 1'
_symmetry_Int_Tables_number       1

loop_
  _symmetry_equiv_pos_as_xyz
  'x,y,z'

loop_
  _atom_site_type_symbol
  _atom_site_label
  _atom_site_symmetry_multiplicity
  _atom_site_fract_x
  _atom_site_fract_y
  _atom_site_fract_z
  _atom_site_occupancy
  Ni  Ni1       1.0  0.71015  0.3943099999999999  0.02515  1.0000
  Ni  Ni2       1.0  0.9655200000000003  0.0  0.5  1.0000
  Ni  Ni3       1.0  0.57356  0.026699999999999998  0.38848  1.0000
  Ni  Ni4       1.0  0.57365  0.52651  0.11215  1.0000
  Ni  Ni5       1.0  0.8908800000000002  0.79781  0.4013000000000001  1.0000
  Ni  Ni6       1.0  0.71015  0.60568  0.97485  1.0000
  Ni  Ni7       1.0  0.71071  0.89432  0.47452000000000005  1.0000
  Ni  Ni8       1.0  0.71071  0.10568  0.5254800000000001  1.0000
  Ni  Ni9       1.0  0.96414  0.5  0.0  1.0000
  Ni  Ni10      1.0  0.57356  0.97329  0.61152  1.0000
  Ni  Ni11      1.0  0.8908800000000002  0.20218999999999995  0.5987  1.0000
  Ni  Ni12      1.0  0.57365  0.4734899999999999  0.88785  1.0000
  Ni  Ni13      1.0  0.8910800000000002  0.70251  0.9011000000000002  1.0000
  Ni  Ni14      1.0  0.8910800000000002  0.29748  0.09890000000000003  1.0000
  H   H1        1.0  0.17513000000000006  0.30122999999999994  0.6376200000000001  1.0000
  H   H2        1.0  0.6488600000000002  0.871  0.18936  1.0000
  H   H3        1.0  0.9204500000000002  0.31213  0.24631  1.0000
  H   H4        1.0  0.88306  0.08300999999999999  0.11587000000000003  1.0000
  H   H5        1.0  0.36008000000000007  0.16735999999999995  0.16769000000000003  1.0000
  H   H6        1.0  0.8987800000000002  0.03830999999999999  0.7899000000000002  1.0000
  H   H7        1.0  0.17599000000000004  0.8021  0.8626  1.0000
  H   H8        1.0  0.89869  0.53845  0.71043  1.0000
  H   H9        1.0  0.17599000000000004  0.1979  0.1374  1.0000
  H   H10       1.0  0.87966  0.6563099999999997  0.01782  1.0000
  H   H11       1.0  0.59623  0.96498  0.76049  1.0000
  H   H12       1.0  0.8798100000000001  0.15575  0.48107  1.0000
  H   H13       1.0  0.87966  0.34368999999999994  0.9821700000000001  1.0000
  H   H14       1.0  0.35888  0.33325999999999995  0.66799  1.0000
  H   H15       1.0  0.53672  0.84396  0.9986400000000001  1.0000
  H   H16       1.0  0.61152  0.26232  0.89237  1.0000
  H   H17       1.0  0.61152  0.73767  0.10763  1.0000
  H   H18       1.0  0.61154  0.23814  0.39266  1.0000
  H   H19       1.0  0.9394800000000002  0.29945  0.84629  1.0000
  H   H20       1.0  0.6488600000000002  0.12899  0.8106400000000001  1.0000
  H   H21       1.0  0.6448300000000002  0.15784  0.15206000000000003  1.0000
  H   H22       1.0  0.7668000000000003  0.048549999999999996  0.4094800000000001  1.0000
  H   H23       1.0  0.53672  0.15604  0.00136  1.0000
  H   H24       1.0  0.8798200000000003  0.8442399999999998  0.5189300000000001  1.0000
  H   H25       1.0  0.76732  0.4517699999999999  0.9094300000000001  1.0000
  H   H26       1.0  0.26959  0.39886  0.9848300000000002  1.0000
  H   H27       1.0  0.76732  0.54823  0.09057  1.0000
  H   H28       1.0  0.26959  0.60113  0.01517  1.0000
  H   H29       1.0  0.53664  0.65598  0.4980800000000001  1.0000
  H   H30       1.0  0.7668000000000003  0.95144  0.5905200000000002  1.0000
  H   H31       1.0  0.6493600000000003  0.6288199999999999  0.6891900000000001  1.0000
  H   H32       1.0  0.82214  0.49999  0.5  1.0000
  H   H33       1.0  0.6444600000000003  0.3419  0.6517  1.0000
  H   H34       1.0  0.9399600000000002  0.79954  0.65385  1.0000
  H   H35       1.0  0.4403600000000001  0.5  0.5  1.0000
  H   H36       1.0  0.44032000000000004  0.0  0.0  1.0000
  H   H37       1.0  0.59615  0.53498  0.26101  1.0000
  H   H38       1.0  0.53664  0.34401  0.50192  1.0000
  H   H39       1.0  0.8987800000000002  0.96168  0.21009000000000003  1.0000
  H   H40       1.0  0.27063  0.10096  0.48507  1.0000
  H   H41       1.0  0.35888  0.66673  0.33201  1.0000
  H   H42       1.0  0.88306  0.91699  0.88413  1.0000
  H   H43       1.0  0.9204500000000002  0.6878599999999998  0.7536900000000002  1.0000
  H   H44       1.0  0.92062  0.8119899999999999  0.25371000000000005  1.0000
  H   H45       1.0  0.27063  0.89903  0.5149300000000001  1.0000
  H   H46       1.0  0.6444600000000003  0.65809  0.3483  1.0000
  H   H47       1.0  0.61154  0.76186  0.60734  1.0000
  H   H48       1.0  0.89869  0.46155  0.28957  1.0000
  H   H49       1.0  0.36008000000000007  0.83264  0.83231  1.0000
  H   H50       1.0  0.64484  0.84215  0.8479400000000002  1.0000
  H   H51       1.0  0.9399600000000002  0.20044999999999996  0.34615  1.0000
  H   H52       1.0  0.9394800000000002  0.70054  0.15371000000000007  1.0000
  H   H53       1.0  0.6493600000000003  0.37118  0.31081  1.0000
  H   H54       1.0  0.59624  0.03501  0.23951  1.0000
  H   H55       1.0  0.49769000000000013  0.25756  0.10713000000000003  1.0000
  H   H56       1.0  0.49769000000000013  0.74243  0.8928700000000002  1.0000
  H   H57       1.0  0.8831100000000002  0.41735  0.61617  1.0000
  H   H58       1.0  0.4973400000000001  0.24355  0.6078700000000001  1.0000
  H   H59       1.0  0.4973400000000001  0.75644  0.39213000000000003  1.0000
  H   H60       1.0  0.59615  0.4650099999999999  0.73899  1.0000
  H   H61       1.0  0.82215  0.0  0.0  1.0000
  H   H62       1.0  0.17513000000000006  0.6987699999999998  0.36238  1.0000
  H   H63       1.0  0.8831100000000002  0.58264  0.38383  1.0000
  H   H64       1.0  0.92062  0.188  0.7462900000000001  1.0000
  C   C1        1.0  0.6390300000000002  0.20278  0.7928  1.0000
  C   C2        1.0  0.6100800000000001  0.88992  0.74726  1.0000
  C   C3        1.0  0.9195100000000003  0.572  0.21377000000000002  1.0000
  C   C4        1.0  0.34046  0.21773999999999993  0.12765  1.0000
  C   C5        1.0  0.4786600000000001  0.38113  0.00605  1.0000
  C   C6        1.0  0.74026  0.18283  0.010190000000000001  1.0000
  C   C7        1.0  0.41762000000000005  0.26768  0.09388  1.0000
  C   C8        1.0  0.5774  0.58738  0.49886  1.0000
  C   C9        1.0  0.6366700000000002  0.82148  0.79533  1.0000
  C   C10       1.0  0.10182  0.17180999999999993  0.5488  1.0000
  C   C11       1.0  0.23793000000000003  0.7658  0.88912  1.0000
  C   C12       1.0  0.74018  0.68275  0.4888000000000001  1.0000
  C   C13       1.0  0.60976  0.38995  0.75229  1.0000
  C   C14       1.0  0.3928600000000001  0.66868  0.95893  1.0000
  C   C15       1.0  0.68512  0.08787  0.0024600000000000004  1.0000
  C   C16       1.0  0.6362100000000002  0.32134  0.7043000000000001  1.0000
  C   C17       1.0  0.9038800000000002  0.46133999999999986  0.7205500000000001  1.0000
  C   C18       1.0  0.21235000000000004  0.69922  0.9396900000000002  1.0000
  C   C19       1.0  0.9307900000000001  0.99546  0.65472  1.0000
  C   C20       1.0  0.4788100000000001  0.88073  0.49373000000000006  1.0000
  C   C21       1.0  0.61654  0.77572  0.66124  1.0000
  C   C22       1.0  0.9291900000000002  0.49536  0.84599  1.0000
  C   C23       1.0  0.9291900000000002  0.50463  0.15401  1.0000
  C   C24       1.0  0.66402  0.1486  0.6718900000000002  1.0000
  C   C25       1.0  0.6362100000000002  0.67866  0.2957000000000001  1.0000
  C   C26       1.0  0.60976  0.61005  0.24771  1.0000
  C   C27       1.0  0.3928600000000001  0.33131  0.04106  1.0000
  C   C28       1.0  0.6395800000000001  0.29731999999999986  0.29305000000000003  1.0000
  C   C29       1.0  0.9201100000000001  0.92786  0.71418  1.0000
  C   C30       1.0  0.9158500000000003  0.73386  0.25866  1.0000
  C   C31       1.0  0.6497800000000002  0.72528  0.77534  1.0000
  C   C32       1.0  0.29009  0.34763  0.024150000000000005  1.0000
  C   C33       1.0  0.39323000000000013  0.8307899999999999  0.45854  1.0000
  C   C34       1.0  0.90398  0.96118  0.77981  1.0000
  C   C35       1.0  0.9307900000000001  0.00453  0.34528  1.0000
  C   C36       1.0  0.6492  0.77481  0.2756  1.0000
  C   C37       1.0  0.8952800000000002  0.10514  0.16779000000000002  1.0000
  C   C38       1.0  0.9038800000000002  0.53865  0.27945  1.0000
  C   C39       1.0  0.9262  0.82782  0.70412  1.0000
  C   C40       1.0  0.6395800000000001  0.70267  0.70695  1.0000
  C   C41       1.0  0.21246000000000004  0.19837999999999997  0.5606900000000001  1.0000
  C   C42       1.0  0.6366700000000002  0.17851  0.20467000000000005  1.0000
  C   C43       1.0  0.1015  0.67309  0.9512900000000002  1.0000
  C   C44       1.0  0.41745  0.23297  0.59434  1.0000
  C   C45       1.0  0.21246000000000004  0.80161  0.43931  1.0000
  C   C46       1.0  0.2906  0.84777  0.4755  1.0000
  C   C47       1.0  0.74018  0.31724  0.5112  1.0000
  C   C48       1.0  0.41745  0.76702  0.4056600000000001  1.0000
  C   C49       1.0  0.39323000000000013  0.16921  0.54146  1.0000
  C   C50       1.0  0.23745  0.7348  0.38872  1.0000
  C   C51       1.0  0.5774  0.4126099999999999  0.50114  1.0000
  C   C52       1.0  0.6497800000000002  0.27471  0.22466  1.0000
  C   C53       1.0  0.66402  0.8513899999999999  0.32811  1.0000
  C   C54       1.0  0.29009  0.6523599999999998  0.9758500000000001  1.0000
  C   C55       1.0  0.6390300000000002  0.79722  0.20720000000000002  1.0000
  C   C56       1.0  0.1015  0.3269  0.04871  1.0000
  C   C57       1.0  0.61654  0.22426999999999997  0.33876  1.0000
  C   C58       1.0  0.9158500000000003  0.26613  0.7413300000000002  1.0000
  C   C59       1.0  0.8954  0.39507  0.6680400000000001  1.0000
  C   C60       1.0  0.68514  0.41215  0.50295  1.0000
  C   C61       1.0  0.8954  0.60493  0.33196  1.0000
  C   C62       1.0  0.9201100000000001  0.07213  0.28582  1.0000
  C   C63       1.0  0.9157300000000002  0.76597  0.75873  1.0000
  C   C64       1.0  0.6640500000000003  0.35129  0.17207000000000003  1.0000
  C   C65       1.0  0.61619  0.72398  0.16156  1.0000
  C   C66       1.0  0.4786600000000001  0.61886  0.9939500000000001  1.0000
  C   C67       1.0  0.23745  0.2652  0.61128  1.0000
  C   C68       1.0  0.6492  0.22519  0.7244000000000002  1.0000
  C   C69       1.0  0.6640500000000003  0.6486999999999998  0.8279300000000002  1.0000
  C   C70       1.0  0.41762000000000005  0.73232  0.90612  1.0000
  C   C71       1.0  0.52377  0.0  0.0  1.0000
  C   C72       1.0  0.9157300000000002  0.23402  0.24127000000000004  1.0000
  C   C73       1.0  0.23793000000000003  0.2342  0.11088  1.0000
  C   C74       1.0  0.34046  0.78225  0.8723500000000001  1.0000
  C   C75       1.0  0.74026  0.8171599999999998  0.9898100000000001  1.0000
  C   C76       1.0  0.68512  0.91212  0.99754  1.0000
  C   C77       1.0  0.5238  0.5  0.5  1.0000
  C   C78       1.0  0.9259500000000002  0.67209  0.20394  1.0000
  C   C79       1.0  0.9259500000000002  0.32791  0.79606  1.0000
  C   C80       1.0  0.6100800000000001  0.11008  0.25274  1.0000
  C   C81       1.0  0.4788100000000001  0.11926999999999997  0.50627  1.0000
  C   C82       1.0  0.7387200000000003  0.0  0.0  1.0000
  C   C83       1.0  0.8952800000000002  0.89486  0.8322100000000001  1.0000
  C   C84       1.0  0.10182  0.82819  0.4512  1.0000
  C   C85       1.0  0.90398  0.03881  0.22019  1.0000
  C   C86       1.0  0.33982000000000007  0.71751  0.37195  1.0000
  C   C87       1.0  0.68514  0.5878399999999999  0.4970500000000001  1.0000
  C   C88       1.0  0.7387200000000003  0.5  0.5  1.0000
  C   C89       1.0  0.33982000000000007  0.28249  0.62805  1.0000
  C   C90       1.0  0.61619  0.27601  0.83844  1.0000
  C   C91       1.0  0.9262  0.17217999999999997  0.29588  1.0000
  C   C92       1.0  0.21235000000000004  0.30078  0.06031  1.0000
  C   C93       1.0  0.9195100000000003  0.428  0.78623  1.0000
  C   C94       1.0  0.57739  0.91261  0.99924  1.0000
  C   C95       1.0  0.57739  0.08739  0.0007600000000000003  1.0000
  C   C96       1.0  0.2906  0.15222999999999995  0.52449  1.0000
  N   N1        1.0  0.60023  0.8680599999999999  0.68115  1.0000
  N   N2        1.0  0.59995  0.63171  0.18158  1.0000
  N   N3        1.0  0.9003100000000003  0.20172999999999994  0.17791000000000004  1.0000
  N   N4        1.0  0.60023  0.13194  0.3188500000000001  1.0000
  N   N5        1.0  0.90039  0.70155  0.3220100000000001  1.0000
  N   N6        1.0  0.90039  0.29845  0.6779900000000001  1.0000
  N   N7        1.0  0.9003100000000003  0.7982599999999999  0.8220900000000001  1.0000
  N   N8        1.0  0.59995  0.36829  0.81841  1.0000
  O   O1        1.0  0.55547  0.59482  0.95649  1.0000
  O   O2        1.0  0.61118  0.92773  0.31914  1.0000
  O   O3        1.0  0.9194700000000002  0.41453  0.165  1.0000
  O   O4        1.0  0.6911500000000003  0.25771  0.9899200000000001  1.0000
  O   O5        1.0  0.03601000000000001  0.73173  0.9257000000000001  1.0000
  O   O6        1.0  0.8635800000000002  0.61453  0.97975  1.0000
  O   O7        1.0  0.47397  0.10484  0.44308000000000003  1.0000
  O   O8        1.0  0.7215800000000002  0.16718  0.6219100000000001  1.0000
  O   O9        1.0  0.61118  0.07227  0.68086  1.0000
  O   O10       1.0  0.47444  0.60489  0.05722000000000001  1.0000
  O   O11       1.0  0.47397  0.89515  0.5569200000000002  1.0000
  O   O12       1.0  0.6115000000000002  0.57227  0.81825  1.0000
  O   O13       1.0  0.8283800000000002  0.31869  0.53847  1.0000
  O   O14       1.0  0.5559  0.9049699999999999  0.45674000000000003  1.0000
  O   O15       1.0  0.7066500000000002  0.46632  0.9361800000000001  1.0000
  O   O16       1.0  0.6115000000000002  0.42773  0.18175  1.0000
  O   O17       1.0  0.9192500000000002  0.91462  0.33398  1.0000
  O   O18       1.0  0.7205500000000002  0.33262  0.12154  1.0000
  O   O19       1.0  0.7215800000000002  0.83281  0.37809  1.0000
  O   O20       1.0  0.7205500000000002  0.66737  0.8784600000000001  1.0000
  O   O21       1.0  0.9441400000000002  0.54752  0.09818000000000003  1.0000
  O   O22       1.0  0.9485000000000001  0.04695  0.4008900000000001  1.0000
  O   O23       1.0  0.5559  0.09503  0.5432600000000001  1.0000
  O   O24       1.0  0.6910000000000002  0.24232  0.4912  1.0000
  O   O25       1.0  0.7067400000000001  0.03391  0.43677000000000005  1.0000
  O   O26       1.0  0.82857  0.18143  0.037230000000000006  1.0000
  O   O27       1.0  0.08561  0.5955  0.98335  1.0000
  O   O28       1.0  0.55547  0.40518  0.043510000000000014  1.0000
  O   O29       1.0  0.08600000000000002  0.9042599999999997  0.4849700000000001  1.0000
  O   O30       1.0  0.86388  0.11429999999999997  0.51931  1.0000
  O   O31       1.0  0.47444  0.39510999999999996  0.9427800000000001  1.0000
  O   O32       1.0  0.86388  0.88569  0.48069  1.0000
  O   O33       1.0  0.9441400000000002  0.45248  0.90182  1.0000
  O   O34       1.0  0.9485000000000001  0.95305  0.5991100000000001  1.0000
  O   O35       1.0  0.8635800000000002  0.38546  0.02025  1.0000
  O   O36       1.0  0.08600000000000002  0.09573  0.51503  1.0000
  O   O37       1.0  0.03623  0.22889  0.57585  1.0000
  O   O38       1.0  0.82857  0.81856  0.9627700000000002  1.0000
  O   O39       1.0  0.08561  0.40449  0.01665  1.0000
  O   O40       1.0  0.8283800000000002  0.6813  0.46153  1.0000
  O   O41       1.0  0.03623  0.7711099999999997  0.4241500000000001  1.0000
  O   O42       1.0  0.7067400000000001  0.96609  0.56324  1.0000
  O   O43       1.0  0.9194700000000002  0.58547  0.835  1.0000
  O   O44       1.0  0.03601000000000001  0.26826  0.07430000000000002  1.0000
  O   O45       1.0  0.9192500000000002  0.08537  0.66602  1.0000
  O   O46       1.0  0.6910000000000002  0.75768  0.5088  1.0000
  O   O47       1.0  0.7066500000000002  0.53367  0.06382  1.0000
  O   O48       1.0  0.6911500000000003  0.74229  0.01008  1.0000
