data_image0
_chemical_formula_structural       Mn6H80C132N8O30
_chemical_formula_sum              "Mn6 H80 C132 N8 O30"
_cell_length_a       11.26634
_cell_length_b       11.2665
_cell_length_c       25.95998
_cell_angle_alpha    89.92267999999999
_cell_angle_beta     89.92286
_cell_angle_gamma    95.57154

_symmetry_space_group_name_H-M    'P 1'
_symmetry_Int_Tables_number       1

loop_
  _symmetry_equiv_pos_as_xyz
  'x,y,z'

loop_
  _atom_site_type_symbol
  _atom_site_label
  _atom_site_symmetry_multiplicity
  _atom_site_fract_x
  _atom_site_fract_y
  _atom_site_fract_z
  _atom_site_occupancy
  Mn  Mn1       1.0  0.29686  0.65262  0.00133  1.0000
  Mn  Mn2       1.0  0.3473800000000001  0.70315  0.49867  1.0000
  Mn  Mn3       1.0  0.7031500000000002  0.3473800000000001  0.99867  1.0000
  Mn  Mn4       1.0  0.6526300000000002  0.29685  0.50133  1.0000
  Mn  Mn5       1.0  0.5  0.0  0.5  1.0000
  Mn  Mn6       1.0  0.0  0.5  0.0  1.0000
  H   H1        1.0  0.09143000000000001  0.28507  0.8789099999999999  1.0000
  H   H2        1.0  0.15071  0.13792000000000001  0.81285  1.0000
  H   H3        1.0  0.5193  0.26457  0.83519  1.0000
  H   H4        1.0  0.45995  0.41276  0.89943  1.0000
  H   H5        1.0  0.37617  0.32267  0.7416599999999999  1.0000
  H   H6        1.0  0.4528300000000001  0.36583  0.65238  1.0000
  H   H7        1.0  0.5244600000000001  0.001080000000000001  0.6346899999999998  1.0000
  H   H8        1.0  0.45086000000000004  0.9574  0.72473  1.0000
  H   H9        1.0  0.19238  0.75194  0.63049  1.0000
  H   H10       1.0  0.07705  0.7723  0.7118099999999999  1.0000
  H   H11       1.0  0.12375  0.15351  0.6953  1.0000
  H   H12       1.0  0.23543  0.13127  0.61261  1.0000
  H   H13       1.0  0.55158  0.60187  0.95055  1.0000
  H   H14       1.0  0.76553  0.6857  0.9568299999999998  1.0000
  H   H15       1.0  0.8169300000000003  0.87092  0.008  1.0000
  H   H16       1.0  0.7449300000000001  0.03421  0.06473  1.0000
  H   H17       1.0  0.5800400000000001  0.11435  0.1122  1.0000
  H   H18       1.0  0.36075  0.0976  0.13685  1.0000
  H   H19       1.0  0.15697  0.98837  0.12657  1.0000
  H   H20       1.0  0.13225  0.80893  0.06858  1.0000
  H   H21       1.0  0.71494  0.90857  0.62109  1.0000
  H   H22       1.0  0.86209  0.8492900000000001  0.6871499999999999  1.0000
  H   H23       1.0  0.7354400000000001  0.4807100000000001  0.66481  1.0000
  H   H24       1.0  0.58724  0.54006  0.60057  1.0000
  H   H25       1.0  0.67734  0.62383  0.75834  1.0000
  H   H26       1.0  0.63417  0.54718  0.84762  1.0000
  H   H27       1.0  0.99893  0.47554  0.86531  1.0000
  H   H28       1.0  0.042610000000000016  0.54915  0.7752699999999999  1.0000
  H   H29       1.0  0.24807  0.80762  0.86951  1.0000
  H   H30       1.0  0.22771  0.92296  0.78819  1.0000
  H   H31       1.0  0.8465  0.87626  0.8047  1.0000
  H   H32       1.0  0.8687300000000001  0.7645700000000001  0.8873899999999999  1.0000
  H   H33       1.0  0.39813000000000004  0.4484200000000001  0.54945  1.0000
  H   H34       1.0  0.31431  0.23448  0.54317  1.0000
  H   H35       1.0  0.12908000000000003  0.18308000000000002  0.49199999999999994  1.0000
  H   H36       1.0  0.9657900000000001  0.25507  0.43526  1.0000
  H   H37       1.0  0.8856500000000002  0.41997  0.38779  1.0000
  H   H38       1.0  0.9024  0.63925  0.36315  1.0000
  H   H39       1.0  0.011629999999999993  0.84303  0.37343  1.0000
  H   H40       1.0  0.19107  0.86775  0.43142  1.0000
  H   H41       1.0  0.9085800000000003  0.71494  0.12108999999999999  1.0000
  H   H42       1.0  0.8493000000000002  0.8620800000000001  0.18715  1.0000
  H   H43       1.0  0.48070000000000007  0.73544  0.16481  1.0000
  H   H44       1.0  0.54006  0.58724  0.10057  1.0000
  H   H45       1.0  0.62383  0.67734  0.25834  1.0000
  H   H46       1.0  0.54718  0.63417  0.34761999999999993  1.0000
  H   H47       1.0  0.47554000000000013  0.9989200000000001  0.36530999999999997  1.0000
  H   H48       1.0  0.54915  0.0426  0.27527  1.0000
  H   H49       1.0  0.8076300000000001  0.24806000000000003  0.36951  1.0000
  H   H50       1.0  0.9229600000000001  0.22771  0.28819  1.0000
  H   H51       1.0  0.87626  0.84649  0.3047  1.0000
  H   H52       1.0  0.76457  0.86873  0.38739  1.0000
  H   H53       1.0  0.4484200000000001  0.39813000000000004  0.04945  1.0000
  H   H54       1.0  0.23447000000000004  0.3143  0.04317  1.0000
  H   H55       1.0  0.18308  0.12908  0.992  1.0000
  H   H56       1.0  0.25507  0.9657900000000001  0.9352699999999998  1.0000
  H   H57       1.0  0.41997  0.8856500000000003  0.8878  1.0000
  H   H58       1.0  0.6392500000000001  0.9024000000000001  0.86315  1.0000
  H   H59       1.0  0.84304  0.01164  0.87343  1.0000
  H   H60       1.0  0.86775  0.19108  0.9314199999999998  1.0000
  H   H61       1.0  0.28506  0.09143000000000001  0.37891  1.0000
  H   H62       1.0  0.13792  0.15071  0.31285  1.0000
  H   H63       1.0  0.26457  0.5193  0.33518999999999993  1.0000
  H   H64       1.0  0.4127700000000001  0.45994000000000007  0.39943  1.0000
  H   H65       1.0  0.32267  0.37617000000000006  0.24165999999999999  1.0000
  H   H66       1.0  0.36583  0.45283000000000007  0.15238  1.0000
  H   H67       1.0  0.0010800000000000067  0.52446  0.13469  1.0000
  H   H68       1.0  0.9574  0.45085  0.22473  1.0000
  H   H69       1.0  0.75194  0.19238  0.13049  1.0000
  H   H70       1.0  0.77229  0.07705  0.21181  1.0000
  H   H71       1.0  0.15351  0.12375  0.1953  1.0000
  H   H72       1.0  0.13127000000000003  0.23543000000000003  0.11261  1.0000
  H   H73       1.0  0.60187  0.55158  0.45054999999999995  1.0000
  H   H74       1.0  0.6857000000000001  0.7655200000000001  0.45683  1.0000
  H   H75       1.0  0.87093  0.8169200000000001  0.508  1.0000
  H   H76       1.0  0.034210000000000004  0.74493  0.56473  1.0000
  H   H77       1.0  0.11435  0.58004  0.6122  1.0000
  H   H78       1.0  0.09761  0.36075  0.63685  1.0000
  H   H79       1.0  0.98837  0.15697  0.62657  1.0000
  H   H80       1.0  0.80893  0.13226000000000002  0.56858  1.0000
  C   C1        1.0  0.23832000000000006  0.44693000000000005  0.9321599999999999  1.0000
  C   C2        1.0  0.27179  0.3591500000000001  0.89259  1.0000
  C   C3        1.0  0.18457  0.28084  0.86857  1.0000
  C   C4        1.0  0.21699000000000004  0.19883000000000003  0.8320999999999998  1.0000
  C   C5        1.0  0.33754  0.19419  0.82057  1.0000
  C   C6        1.0  0.42588000000000004  0.27066000000000007  0.84434  1.0000
  C   C7        1.0  0.39235  0.35355000000000003  0.8800099999999998  1.0000
  C   C8        1.0  0.4109000000000001  0.13771  0.73829  1.0000
  C   C9        1.0  0.4094400000000001  0.25308  0.71831  1.0000
  C   C10       1.0  0.45198  0.27666  0.66857  1.0000
  C   C11       1.0  0.4947000000000001  0.18677  0.63823  1.0000
  C   C12       1.0  0.49359  0.07107000000000001  0.65869  1.0000
  C   C13       1.0  0.4525500000000001  0.04655000000000001  0.70851  1.0000
  C   C14       1.0  0.5425100000000002  0.21683000000000002  0.58609  1.0000
  C   C15       1.0  0.27981  0.92261  0.56539  1.0000
  C   C16       1.0  0.21745  0.93979  0.61545  1.0000
  C   C17       1.0  0.17534  0.83938  0.64461  1.0000
  C   C18       1.0  0.11263000000000006  0.8504900000000002  0.69023  1.0000
  C   C19       1.0  0.09201000000000001  0.96443  0.70721  1.0000
  C   C20       1.0  0.13721  0.06602  0.6800399999999999  1.0000
  C   C21       1.0  0.19942  0.05319000000000001  0.63416  1.0000
  C   C22       1.0  0.5765600000000001  0.6823800000000001  0.9727  1.0000
  C   C23       1.0  0.69629  0.73054  0.97583  1.0000
  C   C24       1.0  0.72482  0.8324600000000002  0.00469  1.0000
  C   C25       1.0  0.63366  0.8855500000000001  0.031029999999999995  1.0000
  C   C26       1.0  0.51597  0.8293100000000001  0.026379999999999994  1.0000
  C   C27       1.0  0.42036000000000007  0.87641  0.054079999999999996  1.0000
  C   C28       1.0  0.4442000000000001  0.97883  0.08556999999999998  1.0000
  C   C29       1.0  0.6548  0.9901100000000003  0.06236  1.0000
  C   C30       1.0  0.5635800000000001  0.03486  0.08855  1.0000
  C   C31       1.0  0.34642  0.01921  0.11229  1.0000
  C   C32       1.0  0.23392  0.9591500000000001  0.10673  1.0000
  C   C33       1.0  0.21885  0.8592200000000001  0.07428  1.0000
  C   C34       1.0  0.55308  0.76169  0.56784  1.0000
  C   C35       1.0  0.64085  0.72822  0.60741  1.0000
  C   C36       1.0  0.71917  0.81544  0.63143  1.0000
  C   C37       1.0  0.80118  0.7830100000000002  0.6679  1.0000
  C   C38       1.0  0.8058200000000002  0.66247  0.67943  1.0000
  C   C39       1.0  0.72935  0.57412  0.65566  1.0000
  C   C40       1.0  0.6464499999999999  0.60766  0.61999  1.0000
  C   C41       1.0  0.8623000000000001  0.58911  0.76171  1.0000
  C   C42       1.0  0.7469300000000002  0.59057  0.78169  1.0000
  C   C43       1.0  0.72335  0.54803  0.8314299999999999  1.0000
  C   C44       1.0  0.81324  0.5053  0.86177  1.0000
  C   C45       1.0  0.92894  0.50642  0.84131  1.0000
  C   C46       1.0  0.9534500000000002  0.54746  0.7914899999999999  1.0000
  C   C47       1.0  0.78318  0.45749  0.91391  1.0000
  C   C48       1.0  0.07740000000000002  0.7202000000000001  0.93461  1.0000
  C   C49       1.0  0.06021000000000001  0.78256  0.88455  1.0000
  C   C50       1.0  0.16063  0.8246700000000001  0.8553899999999999  1.0000
  C   C51       1.0  0.14951000000000003  0.88737  0.80977  1.0000
  C   C52       1.0  0.03558000000000002  0.9080000000000001  0.7927899999999999  1.0000
  C   C53       1.0  0.9339900000000002  0.8627900000000001  0.81996  1.0000
  C   C54       1.0  0.9468200000000001  0.80058  0.86584  1.0000
  C   C55       1.0  0.31762  0.42345  0.5273  1.0000
  C   C56       1.0  0.26947  0.30372  0.52417  1.0000
  C   C57       1.0  0.16754000000000002  0.27518  0.49531  1.0000
  C   C58       1.0  0.11445000000000001  0.36635  0.4689699999999999  1.0000
  C   C59       1.0  0.17069000000000004  0.48403000000000007  0.47362  1.0000
  C   C60       1.0  0.1236  0.57964  0.44591999999999987  1.0000
  C   C61       1.0  0.02117  0.5558  0.41441999999999996  1.0000
  C   C62       1.0  0.009890000000000003  0.34521  0.43764  1.0000
  C   C63       1.0  0.9651400000000001  0.43642000000000003  0.41145  1.0000
  C   C64       1.0  0.9807900000000002  0.65358  0.38771  1.0000
  C   C65       1.0  0.04085000000000002  0.7660800000000001  0.39327  1.0000
  C   C66       1.0  0.14078  0.78115  0.42572  1.0000
  C   C67       1.0  0.76169  0.5530700000000001  0.06784  1.0000
  C   C68       1.0  0.7282200000000001  0.64085  0.10741  1.0000
  C   C69       1.0  0.81544  0.71916  0.13143  1.0000
  C   C70       1.0  0.7830200000000003  0.80117  0.16789999999999997  1.0000
  C   C71       1.0  0.6624700000000002  0.8058100000000002  0.17943  1.0000
  C   C72       1.0  0.5741200000000001  0.7293400000000001  0.15566  1.0000
  C   C73       1.0  0.6076600000000001  0.6464500000000001  0.11999  1.0000
  C   C74       1.0  0.5891100000000001  0.8622900000000002  0.26171  1.0000
  C   C75       1.0  0.5905700000000002  0.74692  0.28169  1.0000
  C   C76       1.0  0.5480300000000001  0.7233400000000001  0.33143  1.0000
  C   C77       1.0  0.5053  0.81324  0.36177  1.0000
  C   C78       1.0  0.50642  0.92894  0.34131  1.0000
  C   C79       1.0  0.54746  0.9534500000000002  0.29149  1.0000
  C   C80       1.0  0.45749  0.78318  0.41390999999999994  1.0000
  C   C81       1.0  0.7202000000000001  0.07739  0.43461  1.0000
  C   C82       1.0  0.7825600000000001  0.06021000000000001  0.38455  1.0000
  C   C83       1.0  0.82467  0.16063000000000002  0.35539  1.0000
  C   C84       1.0  0.8873800000000001  0.14951000000000003  0.30977  1.0000
  C   C85       1.0  0.908  0.03557  0.29279  1.0000
  C   C86       1.0  0.8628  0.93399  0.31996  1.0000
  C   C87       1.0  0.8005800000000001  0.9468100000000002  0.36584  1.0000
  C   C88       1.0  0.42345  0.31762  0.0273  1.0000
  C   C89       1.0  0.30372  0.26946  0.02417  1.0000
  C   C90       1.0  0.27518  0.16754  0.9953099999999999  1.0000
  C   C91       1.0  0.36635  0.11446000000000003  0.96897  1.0000
  C   C92       1.0  0.48404  0.17069000000000004  0.97362  1.0000
  C   C93       1.0  0.57965  0.1236  0.94592  1.0000
  C   C94       1.0  0.5558  0.02118  0.91443  1.0000
  C   C95       1.0  0.34521  0.0099  0.93764  1.0000
  C   C96       1.0  0.43643  0.96514  0.91145  1.0000
  C   C97       1.0  0.65359  0.98079  0.8877099999999999  1.0000
  C   C98       1.0  0.7660800000000002  0.04085000000000001  0.89327  1.0000
  C   C99       1.0  0.78116  0.14079  0.9257199999999999  1.0000
  C   C100      1.0  0.44693000000000005  0.23831000000000002  0.43216  1.0000
  C   C101      1.0  0.3591500000000001  0.27179  0.39259  1.0000
  C   C102      1.0  0.28084  0.18456000000000003  0.36856999999999995  1.0000
  C   C103      1.0  0.19883  0.21699000000000002  0.3321  1.0000
  C   C104      1.0  0.19419  0.33754  0.32057  1.0000
  C   C105      1.0  0.27066000000000007  0.4258800000000001  0.34433  1.0000
  C   C106      1.0  0.3535600000000001  0.3923400000000001  0.38001  1.0000
  C   C107      1.0  0.13771000000000003  0.41090000000000004  0.23829  1.0000
  C   C108      1.0  0.25308  0.40943  0.21831  1.0000
  C   C109      1.0  0.27666  0.45198  0.16857  1.0000
  C   C110      1.0  0.18677  0.4947  0.13823  1.0000
  C   C111      1.0  0.07107  0.49359  0.15868999999999997  1.0000
  C   C112      1.0  0.046550000000000015  0.45255000000000006  0.20851  1.0000
  C   C113      1.0  0.21683000000000002  0.54251  0.08608999999999999  1.0000
  C   C114      1.0  0.9226100000000003  0.2798  0.06539  1.0000
  C   C115      1.0  0.93979  0.21744  0.11544999999999998  1.0000
  C   C116      1.0  0.83938  0.17534  0.14461  1.0000
  C   C117      1.0  0.85049  0.11263000000000001  0.19023  1.0000
  C   C118      1.0  0.96443  0.092  0.20720999999999998  1.0000
  C   C119      1.0  0.06602  0.13721  0.18004  1.0000
  C   C120      1.0  0.05319  0.19942  0.13416  1.0000
  C   C121      1.0  0.68238  0.5765500000000001  0.4726999999999999  1.0000
  C   C122      1.0  0.73054  0.69628  0.47583  1.0000
  C   C123      1.0  0.8324700000000004  0.7248200000000001  0.50469  1.0000
  C   C124      1.0  0.88555  0.6336500000000002  0.53103  1.0000
  C   C125      1.0  0.82932  0.51597  0.52638  1.0000
  C   C126      1.0  0.8764100000000001  0.42036000000000007  0.55408  1.0000
  C   C127      1.0  0.97883  0.4442  0.58558  1.0000
  C   C128      1.0  0.9901100000000003  0.65479  0.56236  1.0000
  C   C129      1.0  0.03486000000000001  0.56358  0.58855  1.0000
  C   C130      1.0  0.01921  0.34642  0.61229  1.0000
  C   C131      1.0  0.95916  0.23392000000000002  0.60673  1.0000
  C   C132      1.0  0.8592200000000001  0.21885  0.57428  1.0000
  N   N1        1.0  0.48832  0.7302200000000002  0.99719  1.0000
  N   N2        1.0  0.30955000000000005  0.81889  0.04881  1.0000
  N   N3        1.0  0.26979  0.51169  0.50281  1.0000
  N   N4        1.0  0.18111  0.69045  0.45119  1.0000
  N   N5        1.0  0.51169  0.26978  0.00281  1.0000
  N   N6        1.0  0.69045  0.18111  0.95119  1.0000
  N   N7        1.0  0.7302200000000002  0.48831  0.49719  1.0000
  N   N8        1.0  0.8189000000000001  0.30956  0.54881  1.0000
  O   O1        1.0  0.3226800000000001  0.52263  0.94783  1.0000
  O   O2        1.0  0.5826  0.13653  0.5571  1.0000
  O   O3        1.0  0.5479100000000001  0.32528  0.57075  1.0000
  O   O4        1.0  0.26701  0.8167  0.54721  1.0000
  O   O5        1.0  0.13073000000000004  0.4401600000000001  0.94753  1.0000
  O   O6        1.0  0.33921000000000007  0.011880000000000002  0.54434  1.0000
  O   O7        1.0  0.36908000000000013  0.10532  0.78689  1.0000
  O   O8        1.0  0.47738000000000025  0.6773200000000001  0.55217  1.0000
  O   O9        1.0  0.86347  0.41741  0.9429  1.0000
  O   O10       1.0  0.67472  0.4521  0.92925  1.0000
  O   O11       1.0  0.1833  0.7330000000000001  0.95279  1.0000
  O   O12       1.0  0.5598500000000001  0.8692700000000001  0.55247  1.0000
  O   O13       1.0  0.98813  0.6608000000000002  0.95566  1.0000
  O   O14       1.0  0.8946900000000001  0.63092  0.7131099999999999  1.0000
  O   O15       1.0  0.67732  0.47737  0.05217  1.0000
  O   O16       1.0  0.41741  0.8634700000000001  0.4429  1.0000
  O   O17       1.0  0.4521  0.67472  0.42925  1.0000
  O   O18       1.0  0.7330000000000001  0.18330000000000005  0.4527899999999999  1.0000
  O   O19       1.0  0.8692700000000001  0.55985  0.052469999999999996  1.0000
  O   O20       1.0  0.6608  0.9881200000000002  0.45566  1.0000
  O   O21       1.0  0.63093  0.8946900000000001  0.21311  1.0000
  O   O22       1.0  0.52263  0.32268  0.44783  1.0000
  O   O23       1.0  0.13653000000000004  0.5826  0.0571  1.0000
  O   O24       1.0  0.32529  0.5479  0.07075  1.0000
  O   O25       1.0  0.8167000000000001  0.267  0.047209999999999995  1.0000
  O   O26       1.0  0.44016000000000005  0.13074  0.4475299999999999  1.0000
  O   O27       1.0  0.011880000000000007  0.33921  0.04434  1.0000
  O   O28       1.0  0.10531000000000003  0.3690800000000001  0.28689  1.0000
  O   O29       1.0  0.020069999999999994  0.9799300000000001  0.75  1.0000
  O   O30       1.0  0.9799300000000001  0.02007  0.25  1.0000
