data_image0
_chemical_formula_structural       Mn12H72C96S12N16O54
_chemical_formula_sum              "Mn12 H72 C96 S12 N16 O54"
_cell_length_a       14.97142
_cell_length_b       14.990389999999998
_cell_length_c       20.56704
_cell_angle_alpha    68.23363
_cell_angle_beta     68.72443
_cell_angle_gamma    59.25247999999999

_symmetry_space_group_name_H-M    'P 1'
_symmetry_Int_Tables_number       1

loop_
  _symmetry_equiv_pos_as_xyz
  'x,y,z'

loop_
  _atom_site_type_symbol
  _atom_site_label
  _atom_site_symmetry_multiplicity
  _atom_site_fract_x
  _atom_site_fract_y
  _atom_site_fract_z
  _atom_site_occupancy
  Mn  Mn1       1.0  0.6838500000000001  0.9472399999999999  0.21994  1.0000
  Mn  Mn2       1.0  0.1510400000000001  0.6856199999999999  0.21953  1.0000
  Mn  Mn3       1.0  0.9437399999999999  0.15172  0.22  1.0000
  Mn  Mn4       1.0  0.3484200000000002  0.5581299999999999  0.28205  1.0000
  Mn  Mn5       1.0  0.5584299999999998  0.8150399999999999  0.28085  1.0000
  Mn  Mn6       1.0  0.8159499999999998  0.34897  0.2803  1.0000
  Mn  Mn7       1.0  0.31614  0.05274000000000002  0.78011  1.0000
  Mn  Mn8       1.0  0.8489  0.31437999999999994  0.78053  1.0000
  Mn  Mn9       1.0  0.05626999999999993  0.84828  0.78002  1.0000
  Mn  Mn10      1.0  0.6515399999999999  0.44184999999999997  0.71799  1.0000
  Mn  Mn11      1.0  0.44156000000000006  0.18494  0.71917  1.0000
  Mn  Mn12      1.0  0.18404000000000012  0.6510099999999996  0.71974  1.0000
  H   H1        1.0  0.58255  0.79574  0.06046  1.0000
  H   H2        1.0  0.6549300000000001  0.8249399999999998  0.91863  1.0000
  H   H3        1.0  0.9054  0.82031  0.26769  1.0000
  H   H4        1.0  0.92682  0.7831999999999998  0.18776  1.0000
  H   H5        1.0  0.8696100000000002  0.9179299999999999  0.08356  1.0000
  H   H6        1.0  0.80595  0.05581999999999998  0.08491  1.0000
  H   H7        1.0  0.5692700000000002  0.5842899999999998  0.06577  1.0000
  H   H8        1.0  0.6148700000000002  0.6568599999999998  0.92428  1.0000
  H   H9        1.0  0.005879999999999907  0.90433  0.2694  1.0000
  H   H10       1.0  0.1028  0.92758  0.19099  1.0000
  H   H11       1.0  0.13033000000000017  0.8786199999999997  0.08445  1.0000
  H   H12       1.0  0.0574800000000001  0.8156699999999998  0.08275  1.0000
  H   H13       1.0  0.7943099999999998  0.56938  0.05668  1.0000
  H   H14       1.0  0.82332  0.60654  0.91501  1.0000
  H   H15       1.0  0.81857  0.007369999999999999  0.2698  1.0000
  H   H16       1.0  0.77585  0.10788000000000002  0.19155  1.0000
  H   H17       1.0  0.9049599999999999  0.13829999999999995  0.08651  1.0000
  H   H18       1.0  0.04368  0.06261  0.08562  1.0000
  H   H19       1.0  0.92516  0.7143099999999999  0.44162000000000007  1.0000
  H   H20       1.0  0.8847  0.69126  0.58243  1.0000
  H   H21       1.0  0.49194  0.6839099999999999  0.23270000000000002  1.0000
  H   H22       1.0  0.39582000000000017  0.7247199999999998  0.31177  1.0000
  H   H23       1.0  0.36841  0.59351  0.41728  1.0000
  H   H24       1.0  0.4424199999999999  0.4548  0.4176  1.0000
  H   H25       1.0  0.7118699999999998  0.9147  0.43881000000000003  1.0000
  H   H26       1.0  0.6799800000000001  0.8421599999999999  0.58077  1.0000
  H   H27       1.0  0.6800900000000001  0.5952099999999999  0.23193  1.0000
  H   H28       1.0  0.7230699999999998  0.5710300000000001  0.31035  1.0000
  H   H29       1.0  0.59411  0.62478  0.41616000000000003  1.0000
  H   H30       1.0  0.4553  0.69027  0.41702  1.0000
  H   H31       1.0  0.9198400000000001  0.9295099999999997  0.44305000000000005  1.0000
  H   H32       1.0  0.84234  0.8920599999999999  0.58417  1.0000
  H   H33       1.0  0.59337  0.49575  0.23277000000000003  1.0000
  H   H34       1.0  0.5724  0.39796  0.31206  1.0000
  H   H35       1.0  0.6290300000000001  0.36635999999999996  0.41642  1.0000
  H   H36       1.0  0.6932499999999999  0.43912999999999996  0.41648  1.0000
  H   H37       1.0  0.4174400000000001  0.20425000000000004  0.9395399999999999  1.0000
  H   H38       1.0  0.34505  0.17507999999999996  0.08138000000000001  1.0000
  H   H39       1.0  0.09457000000000002  0.17970999999999987  0.7323700000000002  1.0000
  H   H40       1.0  0.07315000000000005  0.21677999999999992  0.8123100000000001  1.0000
  H   H41       1.0  0.13040000000000007  0.08202000000000002  0.9164899999999999  1.0000
  H   H42       1.0  0.19406  0.9441399999999998  0.91512  1.0000
  H   H43       1.0  0.43070000000000014  0.4156499999999999  0.93429  1.0000
  H   H44       1.0  0.38507  0.3431099999999999  0.07578  1.0000
  H   H45       1.0  0.9940799999999997  0.09569000000000001  0.73065  1.0000
  H   H46       1.0  0.89718  0.07242  0.80906  1.0000
  H   H47       1.0  0.86967  0.12133999999999993  0.9156100000000001  1.0000
  H   H48       1.0  0.9425399999999999  0.18428  0.91732  1.0000
  H   H49       1.0  0.20564999999999992  0.4306400000000001  0.9433599999999999  1.0000
  H   H50       1.0  0.17667000000000005  0.39346999999999993  0.08503000000000001  1.0000
  H   H51       1.0  0.18139999999999992  0.9926499999999999  0.73023  1.0000
  H   H52       1.0  0.22414  0.8921199999999998  0.8084600000000001  1.0000
  H   H53       1.0  0.09506000000000012  0.8616699999999998  0.91351  1.0000
  H   H54       1.0  0.9563399999999999  0.93736  0.91442  1.0000
  H   H55       1.0  0.07480000000000003  0.28568999999999994  0.55845  1.0000
  H   H56       1.0  0.11523000000000001  0.30879  0.41763  1.0000
  H   H57       1.0  0.5080599999999998  0.3160399999999999  0.7673400000000001  1.0000
  H   H58       1.0  0.6041700000000002  0.27528  0.68825  1.0000
  H   H59       1.0  0.6315700000000002  0.4065199999999999  0.58277  1.0000
  H   H60       1.0  0.5575500000000001  0.5452099999999999  0.58247  1.0000
  H   H61       1.0  0.28808  0.08527999999999998  0.56122  1.0000
  H   H62       1.0  0.31999  0.15782  0.41927  1.0000
  H   H63       1.0  0.31991  0.40475  0.76811  1.0000
  H   H64       1.0  0.27692  0.42895  0.68969  1.0000
  H   H65       1.0  0.40587999999999996  0.37524  0.58387  1.0000
  H   H66       1.0  0.5446900000000001  0.30974  0.58301  1.0000
  H   H67       1.0  0.08014999999999997  0.07048  0.55696  1.0000
  H   H68       1.0  0.15766000000000002  0.10795000000000002  0.41585  1.0000
  H   H69       1.0  0.4066100000000001  0.5041999999999998  0.76729  1.0000
  H   H70       1.0  0.4275600000000001  0.6020199999999999  0.68802  1.0000
  H   H71       1.0  0.37095000000000006  0.6336399999999999  0.58364  1.0000
  H   H72       1.0  0.30674  0.5608699999999999  0.58357  1.0000
  C   C1        1.0  0.69937  0.8059199999999999  0.14056  1.0000
  C   C2        1.0  0.7201100000000001  0.8053199999999999  0.06565  1.0000
  C   C3        1.0  0.6554399999999998  0.80455  0.03147  1.0000
  C   C4        1.0  0.69362  0.81966  0.9564800000000001  1.0000
  C   C5        1.0  0.7879699999999998  0.83001  0.93402  1.0000
  C   C6        1.0  0.8481700000000001  0.8520799999999997  0.85908  1.0000
  C   C7        1.0  0.9240399999999999  0.8419  0.20902  1.0000
  C   C8        1.0  0.86823  0.9775599999999999  0.10288  1.0000
  C   C9        1.0  0.35697000000000007  0.7003899999999997  0.14164000000000002  1.0000
  C   C10       1.0  0.4127600000000001  0.7202799999999999  0.06706  1.0000
  C   C11       1.0  0.51575  0.6564199999999998  0.03528  1.0000
  C   C12       1.0  0.5401600000000001  0.6943799999999999  0.96037  1.0000
  C   C13       1.0  0.4561700000000002  0.7870700000000002  0.93539  1.0000
  C   C14       1.0  0.45452  0.8473100000000001  0.8594499999999999  1.0000
  C   C15       1.0  0.02513999999999999  0.9255399999999999  0.21069000000000004  1.0000
  C   C16       1.0  0.052930000000000046  0.87667  0.10232  1.0000
  C   C17       1.0  0.8031500000000001  0.36227  0.13997  1.0000
  C   C18       1.0  0.80464  0.41548000000000007  0.0643  1.0000
  C   C19       1.0  0.8038899999999999  0.5151  0.0287  1.0000
  C   C20       1.0  0.81915  0.5351299999999999  0.95372  1.0000
  C   C21       1.0  0.8301100000000002  0.4514299999999999  0.9325299999999999  1.0000
  C   C22       1.0  0.84978  0.44344999999999996  0.8579800000000002  1.0000
  C   C23       1.0  0.83688  0.029089999999999998  0.21110000000000004  1.0000
  C   C24       1.0  0.96701  0.05941999999999997  0.10408  1.0000
  C   C25       1.0  0.13690999999999998  0.6948199999999999  0.36151  1.0000
  C   C26       1.0  0.08197000000000003  0.6957299999999998  0.4363600000000001  1.0000
  C   C27       1.0  0.98014  0.7024899999999997  0.47027  1.0000
  C   C28       1.0  0.9582700000000001  0.69027  0.54499  1.0000
  C   C29       1.0  0.04286999999999999  0.67518  0.56771  1.0000
  C   C30       1.0  0.04822999999999995  0.65764  0.64266  1.0000
  C   C31       1.0  0.47332000000000013  0.6637999999999998  0.29139  1.0000
  C   C32       1.0  0.44611999999999985  0.5314900000000001  0.39873  1.0000
  C   C33       1.0  0.7025300000000001  0.7987999999999998  0.35812  1.0000
  C   C34       1.0  0.7028599999999999  0.77689  0.43335  1.0000
  C   C35       1.0  0.7025899999999999  0.8417599999999997  0.46767  1.0000
  C   C36       1.0  0.6859999999999997  0.8036099999999999  0.54279  1.0000
  C   C37       1.0  0.6748499999999996  0.70957  0.56527  1.0000
  C   C38       1.0  0.6495299999999999  0.6511700000000001  0.64047  1.0000
  C   C39       1.0  0.6618899999999995  0.5750799999999999  0.29062000000000004  1.0000
  C   C40       1.0  0.5320400000000002  0.62795  0.39806  1.0000
  C   C41       1.0  0.80417  0.14019  0.35989  1.0000
  C   C42       1.0  0.78187  0.08528999999999999  0.43479000000000007  1.0000
  C   C43       1.0  0.84576  0.98441  0.4704  1.0000
  C   C44       1.0  0.8050600000000001  0.96384  0.54516  1.0000
  C   C45       1.0  0.7097599999999998  0.048129999999999985  0.56592  1.0000
  C   C46       1.0  0.6475800000000002  0.05780000000000001  0.64015  1.0000
  C   C47       1.0  0.5748999999999999  0.47555  0.29147  1.0000
  C   C48       1.0  0.63073  0.44405999999999995  0.3980000000000001  1.0000
  C   C49       1.0  0.30061999999999994  0.19409000000000007  0.8594499999999999  1.0000
  C   C50       1.0  0.27986999999999995  0.19467999999999994  0.9343600000000001  1.0000
  C   C51       1.0  0.34454  0.19545999999999986  0.9685400000000001  1.0000
  C   C52       1.0  0.30638  0.18033999999999997  0.04353  1.0000
  C   C53       1.0  0.21202  0.16999  0.066  1.0000
  C   C54       1.0  0.15182  0.14795  0.14093  1.0000
  C   C55       1.0  0.07592999999999993  0.1581  0.7910400000000001  1.0000
  C   C56       1.0  0.13176999999999997  0.02240999999999996  0.89716  1.0000
  C   C57       1.0  0.6429599999999999  0.29955  0.8584  1.0000
  C   C58       1.0  0.5872099999999998  0.2796599999999999  0.933  1.0000
  C   C59       1.0  0.4842200000000001  0.34352999999999995  0.96479  1.0000
  C   C60       1.0  0.45981  0.30560000000000004  0.0397  1.0000
  C   C61       1.0  0.54381  0.21292  0.06469  1.0000
  C   C62       1.0  0.54546  0.15268999999999996  0.14063  1.0000
  C   C63       1.0  0.97484  0.07445999999999998  0.78935  1.0000
  C   C64       1.0  0.9470600000000001  0.12329999999999997  0.89773  1.0000
  C   C65       1.0  0.19683  0.6377299999999999  0.8600700000000001  1.0000
  C   C66       1.0  0.19532999999999992  0.58453  0.93574  1.0000
  C   C67       1.0  0.19609000000000001  0.48491  0.97134  1.0000
  C   C68       1.0  0.18084999999999998  0.46488  0.04632  1.0000
  C   C69       1.0  0.16993000000000003  0.54856  0.0675  1.0000
  C   C70       1.0  0.15024000000000004  0.55658  0.14204  1.0000
  C   C71       1.0  0.16310000000000005  0.9709199999999999  0.78893  1.0000
  C   C72       1.0  0.033000000000000036  0.94055  0.89595  1.0000
  C   C73       1.0  0.8630200000000001  0.30523  0.63854  1.0000
  C   C74       1.0  0.9179899999999999  0.30426  0.56371  1.0000
  C   C75       1.0  0.01981999999999999  0.29751  0.5298  1.0000
  C   C76       1.0  0.041679999999999974  0.30974  0.45508  1.0000
  C   C77       1.0  0.9571000000000001  0.32478  0.4323600000000001  1.0000
  C   C78       1.0  0.95175  0.34233999999999987  0.35740000000000005  1.0000
  C   C79       1.0  0.52667  0.33618  0.7086400000000002  1.0000
  C   C80       1.0  0.5538500000000001  0.46853000000000006  0.60132  1.0000
  C   C81       1.0  0.29745  0.20117000000000002  0.64192  1.0000
  C   C82       1.0  0.29711999999999994  0.22307  0.56668  1.0000
  C   C83       1.0  0.29738  0.15822  0.53237  1.0000
  C   C84       1.0  0.3139899999999999  0.19636000000000003  0.45725  1.0000
  C   C85       1.0  0.32519000000000003  0.2903799999999999  0.43476  1.0000
  C   C86       1.0  0.35051000000000004  0.34876999999999997  0.35955  1.0000
  C   C87       1.0  0.33810000000000007  0.42489999999999994  0.70942  1.0000
  C   C88       1.0  0.46795000000000003  0.37204999999999994  0.60198  1.0000
  C   C89       1.0  0.19582999999999992  0.85981  0.64013  1.0000
  C   C90       1.0  0.21811000000000005  0.9146899999999999  0.56522  1.0000
  C   C91       1.0  0.15421999999999997  0.01557999999999998  0.52961  1.0000
  C   C92       1.0  0.19493000000000002  0.03614999999999998  0.45486000000000004  1.0000
  C   C93       1.0  0.29023000000000004  0.95186  0.4341  1.0000
  C   C94       1.0  0.35241999999999996  0.9422  0.35986  1.0000
  C   C95       1.0  0.42507  0.52442  0.7086  1.0000
  C   C96       1.0  0.36926  0.55594  0.60206  1.0000
  S   S1        1.0  0.8295800000000001  0.82146  0.00504  1.0000
  S   S2        1.0  0.3469999999999999  0.8276199999999998  0.00402  1.0000
  S   S3        1.0  0.82188  0.34815  0.00481  1.0000
  S   S4        1.0  0.14934999999999996  0.6760000000000002  0.49716  1.0000
  S   S5        1.0  0.6854999999999999  0.6675200000000001  0.49413  1.0000
  S   S6        1.0  0.66992  0.15257  0.4937  1.0000
  S   S7        1.0  0.17041000000000003  0.17854000000000003  0.99498  1.0000
  S   S8        1.0  0.6529699999999999  0.17236000000000004  0.99606  1.0000
  S   S9        1.0  0.17815000000000003  0.65186  0.99521  1.0000
  S   S10       1.0  0.85063  0.32394  0.50291  1.0000
  S   S11       1.0  0.31454000000000015  0.33242  0.50591  1.0000
  S   S12       1.0  0.33005999999999996  0.84741  0.50631  1.0000
  N   N1        1.0  0.83904  0.9485599999999997  0.18389  1.0000
  N   N2        1.0  0.029970000000000184  0.8434399999999997  0.18338  1.0000
  N   N3        1.0  0.94205  0.03299  0.18512  1.0000
  N   N4        1.0  0.46868000000000004  0.5586799999999997  0.31774  1.0000
  N   N5        1.0  0.55687  0.6596699999999998  0.31699  1.0000
  N   N6        1.0  0.6598799999999999  0.4691199999999998  0.31697  1.0000
  N   N7        1.0  0.16095000000000004  0.05142999999999993  0.8161500000000002  1.0000
  N   N8        1.0  0.97001  0.15654999999999994  0.8166800000000001  1.0000
  N   N9        1.0  0.05793999999999993  0.96701  0.8149100000000001  1.0000
  N   N10       1.0  0.5312899999999999  0.4413099999999999  0.6823200000000001  1.0000
  N   N11       1.0  0.44312000000000007  0.34031  0.68304  1.0000
  N   N12       1.0  0.3401  0.53086  0.68308  1.0000
  N   N13       1.0  0.97037  0.98  0.07874  1.0000
  N   N14       1.0  0.5287599999999999  0.5261199999999999  0.42240000000000005  1.0000
  N   N15       1.0  0.02963999999999996  0.019970000000000033  0.9213  1.0000
  N   N16       1.0  0.4712200000000001  0.4738899999999999  0.57764  1.0000
  O   O1        1.0  0.62367  0.7815999999999997  0.18515000000000004  1.0000
  O   O2        1.0  0.75463  0.8319999999999997  0.15859  1.0000
  O   O3        1.0  0.81639  0.8670499999999998  0.8073600000000001  1.0000
  O   O4        1.0  0.9359100000000001  0.85719  0.8574500000000003  1.0000
  O   O5        1.0  0.41311  0.62365  0.18679  1.0000
  O   O6        1.0  0.25665  0.75695  0.15932  1.0000
  O   O7        1.0  0.53389  0.8239299999999997  0.8114900000000002  1.0000
  O   O8        1.0  0.35656000000000004  0.9250899999999997  0.85281  1.0000
  O   O9        1.0  0.7814999999999995  0.41824  0.18349  1.0000
  O   O10       1.0  0.8248800000000001  0.26294999999999996  0.1598  1.0000
  O   O11       1.0  0.8605900000000001  0.5133199999999998  0.80566  1.0000
  O   O12       1.0  0.8574499999999999  0.3504900000000001  0.85732  1.0000
  O   O13       1.0  0.08236000000000006  0.7165199999999998  0.31664  1.0000
  O   O14       1.0  0.23635000000000006  0.6716299999999997  0.3437700000000001  1.0000
  O   O15       1.0  0.97268  0.6588399999999999  0.69276  1.0000
  O   O16       1.0  0.14468000000000011  0.6384499999999999  0.64618  1.0000
  O   O17       1.0  0.72163  0.8786  0.315  1.0000
  O   O18       1.0  0.6811099999999999  0.74165  0.33831  1.0000
  O   O19       1.0  0.6373499999999999  0.6819699999999997  0.69172  1.0000
  O   O20       1.0  0.6380300000000002  0.5667599999999998  0.6428  1.0000
  O   O21       1.0  0.88328  0.08424000000000001  0.31648  1.0000
  O   O22       1.0  0.74666  0.24048999999999995  0.34071  1.0000
  O   O23       1.0  0.67912  0.99098  0.69304  1.0000
  O   O24       1.0  0.55829  0.14967999999999998  0.63988  1.0000
  O   O25       1.0  0.37633999999999995  0.21838000000000002  0.81487  1.0000
  O   O26       1.0  0.24533999999999992  0.16803999999999994  0.84141  1.0000
  O   O27       1.0  0.18360000000000004  0.13301  0.19266  1.0000
  O   O28       1.0  0.0641  0.14281999999999997  0.14257000000000003  1.0000
  O   O29       1.0  0.5867799999999999  0.37629  0.8132600000000001  1.0000
  O   O30       1.0  0.7432799999999999  0.24301  0.84069  1.0000
  O   O31       1.0  0.46608999999999995  0.17607  0.18858  1.0000
  O   O32       1.0  0.6434200000000001  0.07491999999999999  0.1473  1.0000
  O   O33       1.0  0.21843999999999983  0.58174  0.81658  1.0000
  O   O34       1.0  0.1751500000000002  0.7370399999999999  0.84021  1.0000
  O   O35       1.0  0.13943000000000008  0.48668999999999984  0.19437000000000001  1.0000
  O   O36       1.0  0.14256999999999997  0.64953  0.1427  1.0000
  O   O37       1.0  0.91754  0.28358999999999995  0.6834100000000001  1.0000
  O   O38       1.0  0.7635799999999999  0.32841  0.65626  1.0000
  O   O39       1.0  0.027300000000000026  0.34117999999999993  0.30731  1.0000
  O   O40       1.0  0.85531  0.3615299999999999  0.35385  1.0000
  O   O41       1.0  0.27834999999999993  0.12136999999999998  0.6850400000000001  1.0000
  O   O42       1.0  0.3188700000000001  0.2583299999999999  0.66172  1.0000
  O   O43       1.0  0.36263  0.31799  0.30832  1.0000
  O   O44       1.0  0.36203  0.43317999999999995  0.3572100000000001  1.0000
  O   O45       1.0  0.11672  0.9157599999999999  0.68354  1.0000
  O   O46       1.0  0.2533299999999999  0.7595000000000001  0.65932  1.0000
  O   O47       1.0  0.32089000000000006  0.009020000000000004  0.30697  1.0000
  O   O48       1.0  0.4417100000000001  0.8503199999999999  0.36014  1.0000
  O   O49       1.0  0.5579199999999999  0.94348  0.24999  1.0000
  O   O50       1.0  0.25239999999999996  0.5580900000000001  0.24997  1.0000
  O   O51       1.0  0.9435099999999997  0.24948000000000004  0.24987  1.0000
  O   O52       1.0  0.44207  0.05649999999999996  0.75002  1.0000
  O   O53       1.0  0.7475900000000001  0.44190999999999997  0.75004  1.0000
  O   O54       1.0  0.056490000000000026  0.7505299999999999  0.75014  1.0000
