data_image0
_chemical_formula_structural       Cd12H72C96O48
_chemical_formula_sum              "Cd12 H72 C96 O48"
_cell_length_a       7.89118
_cell_length_b       11.29733
_cell_length_c       37.41876
_cell_angle_alpha    90.0
_cell_angle_beta     90.0
_cell_angle_gamma    100.8281

_symmetry_space_group_name_H-M    'P 1'
_symmetry_Int_Tables_number       1

loop_
  _symmetry_equiv_pos_as_xyz
  'x,y,z'

loop_
  _atom_site_type_symbol
  _atom_site_label
  _atom_site_symmetry_multiplicity
  _atom_site_fract_x
  _atom_site_fract_y
  _atom_site_fract_z
  _atom_site_occupancy
  Cd  Cd1       1.0  0.6582499999999998  0.43365000000000004  0.9671200000000001  1.0000
  Cd  Cd2       1.0  0.21370000000000003  0.5663400000000001  0.28236  1.0000
  Cd  Cd3       1.0  0.029529999999999997  0.80742  0.12169  1.0000
  Cd  Cd4       1.0  0.8417599999999997  0.5663400000000001  0.46712  1.0000
  Cd  Cd5       1.0  0.28629999999999994  0.43365000000000004  0.78236  1.0000
  Cd  Cd6       1.0  0.4704599999999999  0.19257000000000002  0.62169  1.0000
  Cd  Cd7       1.0  0.34174999999999994  0.5663400000000001  0.03289  1.0000
  Cd  Cd8       1.0  0.7863  0.43365000000000004  0.71765  1.0000
  Cd  Cd9       1.0  0.9704699999999998  0.19257000000000002  0.87831  1.0000
  Cd  Cd10      1.0  0.15824999999999997  0.43365000000000004  0.53289  1.0000
  Cd  Cd11      1.0  0.7136999999999998  0.5663400000000001  0.21764  1.0000
  Cd  Cd12      1.0  0.52955  0.80742  0.37831  1.0000
  H   H1        1.0  0.47815  0.8102300000000001  0.02544  1.0000
  H   H2        1.0  0.8670399999999998  0.12388  0.04332  1.0000
  H   H3        1.0  0.7859  0.9738300000000001  0.9373800000000001  1.0000
  H   H4        1.0  0.5685  0.80149  0.92636  1.0000
  H   H5        1.0  0.39663  0.76877  0.9579300000000001  1.0000
  H   H6        1.0  0.49891  0.8984000000000002  0.08166  1.0000
  H   H7        1.0  0.61509  0.04737000000000001  0.08844  1.0000
  H   H8        1.0  0.038139999999999986  0.13537  0.951  1.0000
  H   H9        1.0  0.06837000000000001  0.19765000000000002  0.99441  1.0000
  H   H10       1.0  0.8532399999999998  0.13506000000000004  0.20748  1.0000
  H   H11       1.0  0.047420000000000004  0.87413  0.27131  1.0000
  H   H12       1.0  0.8774699999999998  0.17199  0.32211  1.0000
  H   H13       1.0  0.7246599999999997  0.28669  0.23573  1.0000
  H   H14       1.0  0.6885299999999998  0.2827  0.28218  1.0000
  H   H15       1.0  0.9477899999999999  0.96646  0.17831  1.0000
  H   H16       1.0  0.11351  0.91239  0.20135  1.0000
  H   H17       1.0  0.08201999999999997  0.04268000000000001  0.35307  1.0000
  H   H18       1.0  0.09116  0.90143  0.3327  1.0000
  H   H19       1.0  0.02185000000000001  0.18976000000000007  0.52544  1.0000
  H   H20       1.0  0.63296  0.87611  0.54332  1.0000
  H   H21       1.0  0.7141199999999998  0.026160000000000003  0.43737  1.0000
  H   H22       1.0  0.9315099999999997  0.19850000000000004  0.42636  1.0000
  H   H23       1.0  0.10338  0.23121  0.45793  1.0000
  H   H24       1.0  0.0010799999999999972  0.1016  0.58166  1.0000
  H   H25       1.0  0.8849  0.9526300000000001  0.58845  1.0000
  H   H26       1.0  0.46186999999999995  0.8646200000000002  0.45099999999999996  1.0000
  H   H27       1.0  0.43164  0.80234  0.49440999999999996  1.0000
  H   H28       1.0  0.64676  0.86493  0.70748  1.0000
  H   H29       1.0  0.4525899999999999  0.12587  0.77131  1.0000
  H   H30       1.0  0.6225399999999998  0.828  0.82212  1.0000
  H   H31       1.0  0.77534  0.7133000000000002  0.73573  1.0000
  H   H32       1.0  0.81147  0.7173  0.78218  1.0000
  H   H33       1.0  0.5522  0.03353  0.67831  1.0000
  H   H34       1.0  0.38648  0.0876  0.70135  1.0000
  H   H35       1.0  0.4180000000000001  0.9573300000000001  0.85307  1.0000
  H   H36       1.0  0.40888  0.09858  0.83271  1.0000
  H   H37       1.0  0.52185  0.18976000000000007  0.9745599999999999  1.0000
  H   H38       1.0  0.13297  0.87611  0.95668  1.0000
  H   H39       1.0  0.21411  0.026170000000000002  0.06263  1.0000
  H   H40       1.0  0.4314999999999999  0.19850000000000004  0.07365  1.0000
  H   H41       1.0  0.60338  0.23122  0.04207  1.0000
  H   H42       1.0  0.5010899999999999  0.10159  0.9183400000000002  1.0000
  H   H43       1.0  0.3849099999999999  0.9526200000000001  0.9115599999999999  1.0000
  H   H44       1.0  0.9618599999999998  0.8646200000000002  0.049  1.0000
  H   H45       1.0  0.9316399999999998  0.80234  0.00559  1.0000
  H   H46       1.0  0.14676000000000003  0.8649400000000002  0.79252  1.0000
  H   H47       1.0  0.95259  0.12586  0.7287  1.0000
  H   H48       1.0  0.12253  0.828  0.67789  1.0000
  H   H49       1.0  0.27534  0.7133000000000002  0.76427  1.0000
  H   H50       1.0  0.3114699999999999  0.71729  0.71782  1.0000
  H   H51       1.0  0.05221  0.03353  0.8217  1.0000
  H   H52       1.0  0.8864899999999998  0.08761  0.79865  1.0000
  H   H53       1.0  0.91798  0.9573100000000001  0.64693  1.0000
  H   H54       1.0  0.9088399999999998  0.09855  0.6673  1.0000
  H   H55       1.0  0.9781599999999998  0.8102300000000001  0.47456  1.0000
  H   H56       1.0  0.36703999999999987  0.12388  0.4566799999999999  1.0000
  H   H57       1.0  0.28589  0.9738300000000001  0.56263  1.0000
  H   H58       1.0  0.0685  0.80149  0.57365  1.0000
  H   H59       1.0  0.8966299999999998  0.7687800000000001  0.54207  1.0000
  H   H60       1.0  0.9989299999999999  0.89839  0.41834  1.0000
  H   H61       1.0  0.11509999999999997  0.04736  0.41156  1.0000
  H   H62       1.0  0.53814  0.13537  0.549  1.0000
  H   H63       1.0  0.56837  0.19766000000000006  0.50559  1.0000
  H   H64       1.0  0.3532499999999999  0.13506000000000004  0.29252  1.0000
  H   H65       1.0  0.5474099999999997  0.87413  0.22869999999999996  1.0000
  H   H66       1.0  0.3774599999999998  0.17199  0.17789  1.0000
  H   H67       1.0  0.22466  0.28669  0.26427  1.0000
  H   H68       1.0  0.18853  0.2827  0.21782  1.0000
  H   H69       1.0  0.44779999999999986  0.96646  0.3217  1.0000
  H   H70       1.0  0.6135199999999997  0.91239  0.29865  1.0000
  H   H71       1.0  0.58201  0.04266  0.14693  1.0000
  H   H72       1.0  0.5911200000000001  0.9014100000000003  0.1673  1.0000
  C   C1        1.0  0.6263599999999998  0.87881  0.97898  1.0000
  C   C2        1.0  0.58222  0.87853  0.01512  1.0000
  C   C3        1.0  0.66775  0.96568  0.03853  1.0000
  C   C4        1.0  0.79687  0.056780000000000004  0.02514  1.0000
  C   C5        1.0  0.83908  0.06107  0.9887799999999999  1.0000
  C   C6        1.0  0.7537899999999997  0.9713500000000002  0.96574  1.0000
  C   C7        1.0  0.53768  0.7799  0.95446  1.0000
  C   C8        1.0  0.5837499999999998  0.65881  0.96291  1.0000
  C   C9        1.0  0.62368  0.95845  0.07778  1.0000
  C   C10       1.0  0.7636099999999998  0.91004  0.09821  1.0000
  C   C11       1.0  0.9712499999999997  0.16414  0.97401  1.0000
  C   C12       1.0  0.88144  0.26593000000000006  0.96307  1.0000
  C   C13       1.0  0.8587999999999998  0.16653  0.26453  1.0000
  C   C14       1.0  0.8862799999999997  0.10262  0.23352  1.0000
  C   C15       1.0  0.95235  0.99646  0.23582000000000003  1.0000
  C   C16       1.0  0.9945799999999998  0.95611  0.26942  1.0000
  C   C17       1.0  0.96899  0.01857  0.30047  1.0000
  C   C18       1.0  0.89934  0.12361000000000001  0.2979  1.0000
  C   C19       1.0  0.78788  0.28168  0.26154  1.0000
  C   C20       1.0  0.9221499999999999  0.39514000000000005  0.26719  1.0000
  C   C21       1.0  0.9773699999999997  0.92308  0.2033  1.0000
  C   C22       1.0  0.8746399999999996  0.79526  0.20388  1.0000
  C   C23       1.0  0.011429999999999987  0.97013  0.33637  1.0000
  C   C24       1.0  0.8445399999999997  0.91295  0.35502  1.0000
  C   C25       1.0  0.8736399999999998  0.12118000000000001  0.47898  1.0000
  C   C26       1.0  0.9177799999999998  0.12146  0.51512  1.0000
  C   C27       1.0  0.8322399999999998  0.03432  0.53853  1.0000
  C   C28       1.0  0.7031299999999998  0.9432100000000001  0.52514  1.0000
  C   C29       1.0  0.6609300000000001  0.9389200000000002  0.48878  1.0000
  C   C30       1.0  0.7462199999999998  0.02864  0.46574  1.0000
  C   C31       1.0  0.96233  0.22009000000000004  0.45446  1.0000
  C   C32       1.0  0.9162599999999996  0.34118  0.46291  1.0000
  C   C33       1.0  0.87631  0.04155  0.57778  1.0000
  C   C34       1.0  0.7363799999999998  0.08995  0.59821  1.0000
  C   C35       1.0  0.5287599999999998  0.8358500000000001  0.47401  1.0000
  C   C36       1.0  0.6185799999999998  0.73406  0.46307000000000004  1.0000
  C   C37       1.0  0.6412099999999997  0.83346  0.76453  1.0000
  C   C38       1.0  0.6137200000000002  0.8973800000000001  0.73352  1.0000
  C   C39       1.0  0.54766  0.00353  0.73582  1.0000
  C   C40       1.0  0.50543  0.04388  0.76942  1.0000
  C   C41       1.0  0.53103  0.98143  0.80047  1.0000
  C   C42       1.0  0.60067  0.87638  0.7979  1.0000
  C   C43       1.0  0.7121199999999998  0.7183200000000001  0.76155  1.0000
  C   C44       1.0  0.57786  0.60485  0.76719  1.0000
  C   C45       1.0  0.52263  0.07691  0.7033  1.0000
  C   C46       1.0  0.62536  0.20473  0.70388  1.0000
  C   C47       1.0  0.4886  0.02987  0.83637  1.0000
  C   C48       1.0  0.65548  0.08704  0.85502  1.0000
  C   C49       1.0  0.37364  0.12118000000000001  0.02103  1.0000
  C   C50       1.0  0.4177899999999999  0.12146  0.98488  1.0000
  C   C51       1.0  0.33225  0.03431  0.96147  1.0000
  C   C52       1.0  0.20313000000000003  0.9432100000000001  0.9748700000000001  1.0000
  C   C53       1.0  0.16093  0.9389200000000002  0.01122  1.0000
  C   C54       1.0  0.24620999999999998  0.02865  0.03426  1.0000
  C   C55       1.0  0.46232  0.22009000000000004  0.04554  1.0000
  C   C56       1.0  0.41626  0.34118  0.03709  1.0000
  C   C57       1.0  0.3763199999999999  0.04154  0.9222199999999999  1.0000
  C   C58       1.0  0.23639  0.08995  0.9017899999999999  1.0000
  C   C59       1.0  0.02875999999999998  0.8358500000000001  0.02599  1.0000
  C   C60       1.0  0.11856999999999994  0.73406  0.03693  1.0000
  C   C61       1.0  0.1412  0.83346  0.73547  1.0000
  C   C62       1.0  0.11373000000000003  0.8973800000000001  0.76649  1.0000
  C   C63       1.0  0.04765999999999999  0.00353  0.76418  1.0000
  C   C64       1.0  0.00543  0.04388  0.73058  1.0000
  C   C65       1.0  0.031019999999999964  0.98142  0.69954  1.0000
  C   C66       1.0  0.10065999999999999  0.87638  0.7021  1.0000
  C   C67       1.0  0.21211999999999995  0.71831  0.73846  1.0000
  C   C68       1.0  0.07786000000000003  0.60485  0.73281  1.0000
  C   C69       1.0  0.022639999999999987  0.07691  0.7967  1.0000
  C   C70       1.0  0.12536999999999995  0.20473  0.79612  1.0000
  C   C71       1.0  0.9885799999999998  0.02986  0.66363  1.0000
  C   C72       1.0  0.15547  0.08704  0.64499  1.0000
  C   C73       1.0  0.12636  0.87881  0.52103  1.0000
  C   C74       1.0  0.08222  0.87853  0.4848799999999999  1.0000
  C   C75       1.0  0.16776  0.96567  0.46147  1.0000
  C   C76       1.0  0.29687999999999987  0.056780000000000004  0.47486000000000006  1.0000
  C   C77       1.0  0.33907  0.06107  0.51122  1.0000
  C   C78       1.0  0.2537899999999999  0.9713500000000002  0.53426  1.0000
  C   C79       1.0  0.03767999999999999  0.7799100000000001  0.54554  1.0000
  C   C80       1.0  0.08374  0.65881  0.53709  1.0000
  C   C81       1.0  0.12368999999999995  0.9584400000000001  0.42222  1.0000
  C   C82       1.0  0.2636199999999999  0.91004  0.40179  1.0000
  C   C83       1.0  0.4712499999999999  0.16415  0.52599  1.0000
  C   C84       1.0  0.3814299999999999  0.26593000000000006  0.53693  1.0000
  C   C85       1.0  0.3587999999999999  0.16653  0.23547000000000004  1.0000
  C   C86       1.0  0.38628  0.10262  0.26648  1.0000
  C   C87       1.0  0.45234999999999986  0.99646  0.26418  1.0000
  C   C88       1.0  0.4945699999999999  0.95611  0.23057999999999998  1.0000
  C   C89       1.0  0.46898  0.01856  0.19953  1.0000
  C   C90       1.0  0.39933999999999986  0.12361000000000001  0.2021  1.0000
  C   C91       1.0  0.2878799999999999  0.28168  0.23845999999999998  1.0000
  C   C92       1.0  0.4221499999999999  0.39514000000000005  0.23281000000000002  1.0000
  C   C93       1.0  0.4773699999999999  0.92308  0.2967  1.0000
  C   C94       1.0  0.37464  0.79526  0.29612  1.0000
  C   C95       1.0  0.51141  0.97012  0.16363  1.0000
  C   C96       1.0  0.3445199999999999  0.91295  0.14499  1.0000
  O   O1        1.0  0.58361  0.61953  0.99513  1.0000
  O   O2        1.0  0.6238199999999998  0.59501  0.9370100000000001  1.0000
  O   O3        1.0  0.8748299999999996  0.98159  0.11596000000000001  1.0000
  O   O4        1.0  0.7678999999999999  0.79694  0.09464  1.0000
  O   O5        1.0  0.8241099999999998  0.32221  0.9893900000000001  1.0000
  O   O6        1.0  0.85555  0.2911  0.93079  1.0000
  O   O7        1.0  0.034919999999999986  0.39444000000000007  0.29172  1.0000
  O   O8        1.0  0.92614  0.48976000000000003  0.24793  1.0000
  O   O9        1.0  0.7905199999999998  0.7560800000000001  0.23216  1.0000
  O   O10       1.0  0.8757299999999997  0.72582  0.17682  1.0000
  O   O11       1.0  0.77488  0.97545  0.37679  1.0000
  O   O12       1.0  0.7753999999999999  0.80414  0.3465  1.0000
  O   O13       1.0  0.9163899999999998  0.38046  0.49512999999999996  1.0000
  O   O14       1.0  0.8761899999999998  0.40498000000000006  0.43701  1.0000
  O   O15       1.0  0.6251599999999998  0.01841  0.61596  1.0000
  O   O16       1.0  0.73209  0.20306000000000002  0.59464  1.0000
  O   O17       1.0  0.6758999999999997  0.67778  0.48939  1.0000
  O   O18       1.0  0.64446  0.7088900000000001  0.43079  1.0000
  O   O19       1.0  0.46509  0.60555  0.79172  1.0000
  O   O20       1.0  0.57387  0.5102300000000001  0.74793  1.0000
  O   O21       1.0  0.70948  0.24391  0.73216  1.0000
  O   O22       1.0  0.6242700000000001  0.27418000000000003  0.67682  1.0000
  O   O23       1.0  0.7251399999999998  0.024540000000000003  0.87679  1.0000
  O   O24       1.0  0.7246099999999998  0.19585  0.8465  1.0000
  O   O25       1.0  0.41638999999999987  0.38046  0.00488  1.0000
  O   O26       1.0  0.3761899999999999  0.40499000000000007  0.06299  1.0000
  O   O27       1.0  0.12517  0.0184  0.88405  1.0000
  O   O28       1.0  0.23209999999999992  0.20306000000000002  0.9053600000000002  1.0000
  O   O29       1.0  0.17588999999999994  0.67778  0.01061  1.0000
  O   O30       1.0  0.14445999999999998  0.7088900000000001  0.06921  1.0000
  O   O31       1.0  0.9650899999999998  0.60555  0.70828  1.0000
  O   O32       1.0  0.07387000000000002  0.5102300000000001  0.75207  1.0000
  O   O33       1.0  0.20947999999999994  0.24391  0.76784  1.0000
  O   O34       1.0  0.12428  0.27417  0.82318  1.0000
  O   O35       1.0  0.22511999999999993  0.024540000000000003  0.62322  1.0000
  O   O36       1.0  0.2246  0.19586  0.65351  1.0000
  O   O37       1.0  0.08361000000000003  0.61954  0.50488  1.0000
  O   O38       1.0  0.12380999999999995  0.59501  0.56299  1.0000
  O   O39       1.0  0.37484000000000006  0.98158  0.38404  1.0000
  O   O40       1.0  0.26790999999999987  0.79693  0.40536  1.0000
  O   O41       1.0  0.3241099999999999  0.32222  0.51061  1.0000
  O   O42       1.0  0.3555399999999998  0.2911  0.56921  1.0000
  O   O43       1.0  0.53492  0.39444000000000007  0.20828  1.0000
  O   O44       1.0  0.42613999999999996  0.48976000000000003  0.25207  1.0000
  O   O45       1.0  0.29052  0.7560800000000001  0.26784  1.0000
  O   O46       1.0  0.3757299999999999  0.7258100000000001  0.32318  1.0000
  O   O47       1.0  0.27487  0.97546  0.12321  1.0000
  O   O48       1.0  0.2753899999999999  0.80414  0.1535  1.0000
