data_image0
_chemical_formula_structural       Zn4H112C132O36
_chemical_formula_sum              "Zn4 H112 C132 O36"
_cell_length_a       8.45596
_cell_length_b       19.07752
_cell_length_c       33.66346999999999
_cell_angle_alpha    84.66652
_cell_angle_beta     82.84456
_cell_angle_gamma    77.17044

_symmetry_space_group_name_H-M    'P 1'
_symmetry_Int_Tables_number       1

loop_
  _symmetry_equiv_pos_as_xyz
  'x,y,z'

loop_
  _atom_site_type_symbol
  _atom_site_label
  _atom_site_symmetry_multiplicity
  _atom_site_fract_x
  _atom_site_fract_y
  _atom_site_fract_z
  _atom_site_occupancy
  Zn  Zn1       1.0  0.8378600000000002  0.53938  0.8235  1.0000
  Zn  Zn2       1.0  0.79827  0.03979000000000001  0.32439  1.0000
  Zn  Zn3       1.0  0.20171999999999993  0.9602100000000001  0.67561  1.0000
  Zn  Zn4       1.0  0.16213999999999987  0.4606100000000001  0.17650000000000005  1.0000
  H   H1        1.0  0.42704000000000003  0.87438  0.10869  1.0000
  H   H2        1.0  0.5881799999999999  0.8786000000000002  0.07047  1.0000
  H   H3        1.0  0.44299999999999984  0.8273100000000001  0.06526  1.0000
  H   H4        1.0  0.0674  0.11723  0.10939000000000002  1.0000
  H   H5        1.0  0.9046499999999998  0.10813000000000002  0.08316  1.0000
  H   H6        1.0  0.03434999999999997  0.16678  0.06334000000000002  1.0000
  H   H7        1.0  0.34847999999999985  0.96537  0.9329500000000002  1.0000
  H   H8        1.0  0.24682000000000004  0.057059999999999986  0.93416  1.0000
  H   H9        1.0  0.13297999999999993  0.9893399999999999  0.9411600000000002  1.0000
  H   H10       1.0  0.53307  0.91318  0.9622800000000001  1.0000
  H   H11       1.0  0.5736299999999999  0.8601900000000001  0.0071800000000000015  1.0000
  H   H12       1.0  0.2516599999999999  0.7536200000000003  0.94547  1.0000
  H   H13       1.0  0.3909699999999998  0.6578900000000002  0.89885  1.0000
  H   H14       1.0  0.8523999999999997  0.7079899999999999  0.9104  1.0000
  H   H15       1.0  0.7163700000000001  0.8042299999999999  0.9561900000000002  1.0000
  H   H16       1.0  0.32514  0.95182  0.13452  1.0000
  H   H17       1.0  0.14777999999999994  0.021060000000000002  0.13832  1.0000
  H   H18       1.0  0.57362  0.13326  0.12458  1.0000
  H   H19       1.0  0.73926  0.13145  0.18217  1.0000
  H   H20       1.0  0.49507  0.9764  0.24855000000000002  1.0000
  H   H21       1.0  0.3276  0.9786700000000002  0.19283  1.0000
  H   H22       1.0  0.9814399999999999  0.08897  0.9687300000000001  1.0000
  H   H23       1.0  0.9159999999999998  0.13318  0.01372  1.0000
  H   H24       1.0  0.78969  0.19373000000000004  0.96404  1.0000
  H   H25       1.0  0.6631199999999999  0.29082  0.91885  1.0000
  H   H26       1.0  0.1143  0.36499  0.89355  1.0000
  H   H27       1.0  0.24513000000000001  0.26385999999999993  0.9401900000000002  1.0000
  H   H28       1.0  0.6042900000000003  0.36928  0.88245  1.0000
  H   H29       1.0  0.5910599999999999  0.37469  0.6088  1.0000
  H   H30       1.0  0.4623999999999999  0.37988999999999995  0.5707300000000002  1.0000
  H   H31       1.0  0.6637299999999998  0.32807  0.5651  1.0000
  H   H32       1.0  0.7079599999999999  0.6178200000000001  0.6096200000000002  1.0000
  H   H33       1.0  0.9066199999999995  0.6077  0.58382  1.0000
  H   H34       1.0  0.7395  0.66677  0.56351  1.0000
  H   H35       1.0  0.7510899999999999  0.46663000000000004  0.43325  1.0000
  H   H36       1.0  0.7623199999999999  0.5579800000000003  0.4346  1.0000
  H   H37       1.0  0.9357499999999996  0.48943  0.44137  1.0000
  H   H38       1.0  0.5904799999999999  0.41434000000000004  0.46247  1.0000
  H   H39       1.0  0.5561599999999999  0.36202  0.50747  1.0000
  H   H40       1.0  0.04728999999999998  0.25388  0.44689  1.0000
  H   H41       1.0  0.05003999999999995  0.15817000000000003  0.40029  1.0000
  H   H42       1.0  0.52751  0.20859000000000008  0.4115  1.0000
  H   H43       1.0  0.5214  0.30474  0.4574  1.0000
  H   H44       1.0  0.5891300000000002  0.4523499999999999  0.63472  1.0000
  H   H45       1.0  0.69159  0.5223  0.63865  1.0000
  H   H46       1.0  0.16880999999999985  0.63393  0.62359  1.0000
  H   H47       1.0  0.9458399999999998  0.6323400000000002  0.68068  1.0000
  H   H48       1.0  0.2788800000000001  0.47846  0.74809  1.0000
  H   H49       1.0  0.49977  0.47994  0.69264  1.0000
  H   H50       1.0  0.9619000000000001  0.58896  0.46909000000000006  1.0000
  H   H51       1.0  0.9406499999999999  0.6323  0.51426  1.0000
  H   H52       1.0  0.055420000000000025  0.69271  0.46494  1.0000
  H   H53       1.0  0.13178999999999985  0.7894400000000001  0.4200000000000001  1.0000
  H   H54       1.0  0.63167  0.86589  0.3946500000000001  1.0000
  H   H55       1.0  0.5538899999999999  0.76509  0.44098  1.0000
  H   H56       1.0  0.1507500000000001  0.86802  0.38417  1.0000
  H   H57       1.0  0.40892999999999996  0.62531  0.39119  1.0000
  H   H58       1.0  0.5375899999999997  0.6201  0.4292600000000001  1.0000
  H   H59       1.0  0.33626999999999985  0.6719200000000001  0.4349  1.0000
  H   H60       1.0  0.29202999999999985  0.3821800000000001  0.3903800000000001  1.0000
  H   H61       1.0  0.09337  0.39230000000000004  0.41618  1.0000
  H   H62       1.0  0.26049  0.33323  0.43648  1.0000
  H   H63       1.0  0.24889999999999993  0.53337  0.56674  1.0000
  H   H64       1.0  0.23768  0.44202  0.5654  1.0000
  H   H65       1.0  0.06424999999999992  0.51056  0.55862  1.0000
  H   H66       1.0  0.40950999999999993  0.58565  0.53753  1.0000
  H   H67       1.0  0.44382999999999995  0.63798  0.4925300000000001  1.0000
  H   H68       1.0  0.9527  0.74612  0.55311  1.0000
  H   H69       1.0  0.9499500000000001  0.8418200000000001  0.5997  1.0000
  H   H70       1.0  0.4724799999999999  0.7914000000000001  0.5885  1.0000
  H   H71       1.0  0.4785900000000002  0.6952500000000001  0.5426000000000002  1.0000
  H   H72       1.0  0.4108599999999999  0.5476400000000001  0.36528  1.0000
  H   H73       1.0  0.30840000000000006  0.4777  0.36135  1.0000
  H   H74       1.0  0.8311899999999999  0.36607  0.37641  1.0000
  H   H75       1.0  0.05415  0.36765  0.31932  1.0000
  H   H76       1.0  0.7211199999999995  0.5215300000000002  0.25191  1.0000
  H   H77       1.0  0.50022  0.52006  0.30736  1.0000
  H   H78       1.0  0.03808999999999988  0.41102999999999995  0.5309100000000002  1.0000
  H   H79       1.0  0.05934999999999999  0.36769  0.48573000000000005  1.0000
  H   H80       1.0  0.9445799999999999  0.30728  0.53506  1.0000
  H   H81       1.0  0.8681999999999999  0.21055  0.57999  1.0000
  H   H82       1.0  0.36831999999999987  0.13410999999999998  0.6053400000000002  1.0000
  H   H83       1.0  0.44611  0.23491  0.55902  1.0000
  H   H84       1.0  0.8492500000000001  0.13198  0.61583  1.0000
  H   H85       1.0  0.57295  0.12561  0.89131  1.0000
  H   H86       1.0  0.41181  0.12139999999999997  0.92953  1.0000
  H   H87       1.0  0.55699  0.17269  0.93474  1.0000
  H   H88       1.0  0.93259  0.8827600000000001  0.8906100000000001  1.0000
  H   H89       1.0  0.09534999999999975  0.8918600000000001  0.9168400000000002  1.0000
  H   H90       1.0  0.9656399999999999  0.8332100000000001  0.93665  1.0000
  H   H91       1.0  0.6515099999999996  0.03462  0.06705  1.0000
  H   H92       1.0  0.7531699999999997  0.94294  0.06584  1.0000
  H   H93       1.0  0.8670099999999998  0.010650000000000003  0.05884  1.0000
  H   H94       1.0  0.46692  0.08682000000000001  0.03772  1.0000
  H   H95       1.0  0.4263700000000001  0.13981000000000002  0.99281  1.0000
  H   H96       1.0  0.74833  0.24638  0.05453  1.0000
  H   H97       1.0  0.6090300000000001  0.34211  0.10115000000000003  1.0000
  H   H98       1.0  0.1476  0.29201  0.08959  1.0000
  H   H99       1.0  0.28362999999999994  0.19576000000000005  0.043810000000000016  1.0000
  H   H100      1.0  0.67486  0.04818  0.8654800000000001  1.0000
  H   H101      1.0  0.8522199999999999  0.9789400000000001  0.8616800000000002  1.0000
  H   H102      1.0  0.42636999999999986  0.86673  0.8754100000000002  1.0000
  H   H103      1.0  0.2607400000000002  0.86855  0.81783  1.0000
  H   H104      1.0  0.50493  0.023599999999999993  0.75145  1.0000
  H   H105      1.0  0.67239  0.021329999999999988  0.80717  1.0000
  H   H106      1.0  0.01855999999999989  0.9110300000000001  0.03127  1.0000
  H   H107      1.0  0.0839899999999999  0.86682  0.9862700000000001  1.0000
  H   H108      1.0  0.21029999999999996  0.80626  0.03595  1.0000
  H   H109      1.0  0.33687  0.70918  0.08115  1.0000
  H   H110      1.0  0.8857  0.63501  0.10644  1.0000
  H   H111      1.0  0.75487  0.73613  0.059810000000000016  1.0000
  H   H112      1.0  0.39570000000000005  0.63072  0.11755  1.0000
  C   C1        1.0  0.35252999999999995  0.9417700000000001  0.05527  1.0000
  C   C2        1.0  0.25013  0.9978300000000001  0.07688  1.0000
  C   C3        1.0  0.14345999999999998  0.05375  0.05694  1.0000
  C   C4        1.0  0.14086  0.05274000000000001  0.01525  1.0000
  C   C5        1.0  0.24968999999999986  0.9998400000000002  0.99285  1.0000
  C   C6        1.0  0.35597  0.94454  0.01307  1.0000
  C   C7        1.0  0.45791999999999994  0.8776900000000001  0.07617  1.0000
  C   C8        1.0  0.032309999999999985  0.11424  0.07952000000000002  1.0000
  C   C9        1.0  0.24623000000000003  0.0027299999999999807  0.94799  1.0000
  C   C10       1.0  0.4754599999999999  0.8885900000000001  0.9895200000000001  1.0000
  C   C11       1.0  0.4748399999999997  0.78471  0.95352  1.0000
  C   C12       1.0  0.3832199999999998  0.7429300000000002  0.9376800000000002  1.0000
  C   C13       1.0  0.46073000000000014  0.68964  0.91202  1.0000
  C   C14       1.0  0.63094  0.6767800000000002  0.90225  1.0000
  C   C15       1.0  0.7210299999999998  0.71833  0.9185700000000002  1.0000
  C   C16       1.0  0.6446000000000001  0.77227  0.94408  1.0000
  C   C17       1.0  0.71696  0.6219400000000002  0.87403  1.0000
  C   C18       1.0  0.2656  0.0032699999999999977  0.12048000000000002  1.0000
  C   C19       1.0  0.44743999999999995  0.053309999999999996  0.15433  1.0000
  C   C20       1.0  0.5609  0.09791999999999998  0.15153000000000005  1.0000
  C   C21       1.0  0.65162  0.09703000000000005  0.18341  1.0000
  C   C22       1.0  0.6314299999999999  0.051689999999999986  0.21818000000000007  1.0000
  C   C23       1.0  0.51386  0.009459999999999998  0.22104  1.0000
  C   C24       1.0  0.42110999999999993  0.01025  0.18947  1.0000
  C   C25       1.0  0.72614  0.051710000000000006  0.25258  1.0000
  C   C26       1.0  0.023689999999999965  0.11000999999999996  0.9938100000000001  1.0000
  C   C27       1.0  0.02765999999999996  0.22152  0.95406  1.0000
  C   C28       1.0  0.86254  0.2299  0.94824  1.0000
  C   C29       1.0  0.79161  0.28622  0.92247  1.0000
  C   C30       1.0  0.8814899999999999  0.3349500000000001  0.90232  1.0000
  C   C31       1.0  0.04623999999999995  0.3266100000000002  0.90914  1.0000
  C   C32       1.0  0.11827999999999991  0.27098  0.93473  1.0000
  C   C33       1.0  0.8140299999999999  0.39474  0.87421  1.0000
  C   C34       1.0  0.65095  0.44244  0.5555700000000001  1.0000
  C   C35       1.0  0.67678  0.49815999999999994  0.57724  1.0000
  C   C36       1.0  0.7479199999999999  0.5538600000000001  0.55736  1.0000
  C   C37       1.0  0.79283  0.55287  0.51566  1.0000
  C   C38       1.0  0.75764  0.50052  0.49318  1.0000
  C   C39       1.0  0.6854899999999999  0.44562  0.5133800000000001  1.0000
  C   C40       1.0  0.5883699999999996  0.37841  0.5763  1.0000
  C   C41       1.0  0.7766099999999998  0.61429  0.57987  1.0000
  C   C42       1.0  0.8023999999999999  0.50347  0.44832  1.0000
  C   C43       1.0  0.6443899999999999  0.38995000000000013  0.4899  1.0000
  C   C44       1.0  0.7848799999999998  0.28531000000000006  0.45467  1.0000
  C   C45       1.0  0.9341699999999996  0.24332  0.43908  1.0000
  C   C46       1.0  0.9355899999999999  0.19009  0.4134  1.0000
  C   C47       1.0  0.7881600000000001  0.17755  0.40337  1.0000
  C   C48       1.0  0.6401799999999999  0.21893  0.41974  1.0000
  C   C49       1.0  0.6371099999999997  0.27276  0.44529000000000013  1.0000
  C   C50       1.0  0.7857599999999997  0.12307000000000001  0.37487  1.0000
  C   C51       1.0  0.6108700000000001  0.50384  0.62065  1.0000
  C   C52       1.0  0.3445700000000001  0.55431  0.65373  1.0000
  C   C53       1.0  0.18928999999999993  0.5988699999999999  0.6506800000000003  1.0000
  C   C54       1.0  0.06674000000000005  0.59803  0.68234  1.0000
  C   C55       1.0  0.09734999999999991  0.5531600000000002  0.71734  1.0000
  C   C56       1.0  0.25456999999999996  0.5112000000000001  0.72045  1.0000
  C   C57       1.0  0.3783699999999998  0.5116800000000001  0.68903  1.0000
  C   C58       1.0  0.9687599999999998  0.5523000000000001  0.75176  1.0000
  C   C59       1.0  0.87453  0.6099199999999999  0.49434  1.0000
  C   C60       1.0  0.7994399999999999  0.72172  0.4549400000000001  1.0000
  C   C61       1.0  0.9624699999999999  0.7292900000000001  0.4491600000000001  1.0000
  C   C62       1.0  0.003889999999999982  0.78557  0.4236  1.0000
  C   C63       1.0  0.88637  0.8350600000000001  0.40344  1.0000
  C   C64       1.0  0.7226300000000003  0.82734  0.41018  1.0000
  C   C65       1.0  0.67944  0.77174  0.43559  1.0000
  C   C66       1.0  0.92422  0.89469  0.3754500000000001  1.0000
  C   C67       1.0  0.34904  0.55756  0.4444300000000001  1.0000
  C   C68       1.0  0.32320999999999994  0.5018400000000001  0.42276  1.0000
  C   C69       1.0  0.25207  0.44613  0.44264  1.0000
  C   C70       1.0  0.20717000000000005  0.44713  0.48433  1.0000
  C   C71       1.0  0.24234999999999982  0.49948  0.50682  1.0000
  C   C72       1.0  0.31450999999999996  0.5543800000000001  0.48662000000000005  1.0000
  C   C73       1.0  0.41162999999999983  0.62158  0.4237  1.0000
  C   C74       1.0  0.22338999999999995  0.38570000000000004  0.42012  1.0000
  C   C75       1.0  0.19758999999999982  0.49653000000000014  0.55168  1.0000
  C   C76       1.0  0.35559999999999997  0.6100400000000001  0.5101  1.0000
  C   C77       1.0  0.21510999999999997  0.71468  0.54533  1.0000
  C   C78       1.0  0.06581999999999992  0.75668  0.56092  1.0000
  C   C79       1.0  0.06440999999999993  0.8099  0.58659  1.0000
  C   C80       1.0  0.21183999999999995  0.82244  0.59662  1.0000
  C   C81       1.0  0.3598199999999999  0.78107  0.58026  1.0000
  C   C82       1.0  0.3628799999999999  0.7272400000000001  0.55471  1.0000
  C   C83       1.0  0.21423000000000003  0.87692  0.62513  1.0000
  C   C84       1.0  0.38912  0.49616  0.37935  1.0000
  C   C85       1.0  0.6554200000000003  0.44568  0.34626  1.0000
  C   C86       1.0  0.8107  0.4011300000000001  0.34932  1.0000
  C   C87       1.0  0.93325  0.40197  0.31766  1.0000
  C   C88       1.0  0.9026399999999999  0.44683000000000006  0.28266  1.0000
  C   C89       1.0  0.7454299999999999  0.4888  0.27954  1.0000
  C   C90       1.0  0.6216199999999995  0.48832  0.31097000000000014  1.0000
  C   C91       1.0  0.031229999999999997  0.44769000000000003  0.24824  1.0000
  C   C92       1.0  0.12547000000000003  0.39008  0.50566  1.0000
  C   C93       1.0  0.20055999999999996  0.27828  0.54506  1.0000
  C   C94       1.0  0.03753  0.27071  0.55084  1.0000
  C   C95       1.0  0.99611  0.21443000000000004  0.5764  1.0000
  C   C96       1.0  0.11362999999999998  0.16493  0.59655  1.0000
  C   C97       1.0  0.27735999999999983  0.17265999999999998  0.58981  1.0000
  C   C98       1.0  0.3205499999999999  0.22825999999999996  0.5644100000000002  1.0000
  C   C99       1.0  0.07577000000000002  0.10531000000000003  0.62455  1.0000
  C   C100      1.0  0.6474599999999999  0.05822999999999999  0.94473  1.0000
  C   C101      1.0  0.7498600000000001  0.002169999999999999  0.92311  1.0000
  C   C102      1.0  0.8565399999999995  0.9462500000000001  0.9430500000000003  1.0000
  C   C103      1.0  0.8591299999999996  0.9472500000000003  0.9847500000000001  1.0000
  C   C104      1.0  0.7503  0.00015999999999999999  0.00715  1.0000
  C   C105      1.0  0.64402  0.05544999999999999  0.9869200000000001  1.0000
  C   C106      1.0  0.54207  0.12231000000000002  0.92383  1.0000
  C   C107      1.0  0.9676899999999998  0.8857500000000001  0.9204800000000001  1.0000
  C   C108      1.0  0.75376  0.9972700000000001  0.05201  1.0000
  C   C109      1.0  0.52453  0.11141000000000002  0.01048  1.0000
  C   C110      1.0  0.5251499999999999  0.21528000000000003  0.04648  1.0000
  C   C111      1.0  0.61677  0.25706  0.062310000000000004  1.0000
  C   C112      1.0  0.53927  0.31035  0.08798  1.0000
  C   C113      1.0  0.36906  0.32321  0.09775000000000003  1.0000
  C   C114      1.0  0.27896  0.28166  0.08142  1.0000
  C   C115      1.0  0.3554  0.22773  0.05591000000000001  1.0000
  C   C116      1.0  0.28303  0.37806  0.12596  1.0000
  C   C117      1.0  0.7343899999999997  0.9967200000000002  0.8795200000000002  1.0000
  C   C118      1.0  0.5525599999999999  0.9466900000000001  0.84566  1.0000
  C   C119      1.0  0.43909  0.90207  0.84846  1.0000
  C   C120      1.0  0.34836999999999996  0.90296  0.81659  1.0000
  C   C121      1.0  0.3685599999999997  0.9483000000000003  0.78182  1.0000
  C   C122      1.0  0.48613000000000006  0.99053  0.77896  1.0000
  C   C123      1.0  0.5788799999999998  0.9897500000000001  0.81053  1.0000
  C   C124      1.0  0.27385000000000004  0.94828  0.7474200000000002  1.0000
  C   C125      1.0  0.9763  0.8899800000000001  0.00619  1.0000
  C   C126      1.0  0.9723299999999999  0.77848  0.04594  1.0000
  C   C127      1.0  0.1374499999999999  0.7700900000000002  0.051760000000000014  1.0000
  C   C128      1.0  0.20837999999999998  0.71378  0.07752  1.0000
  C   C129      1.0  0.11851000000000003  0.66504  0.09768  1.0000
  C   C130      1.0  0.95375  0.67339  0.09086000000000002  1.0000
  C   C131      1.0  0.88171  0.72902  0.06527  1.0000
  C   C132      1.0  0.18597  0.60526  0.12579  1.0000
  O   O1        1.0  0.38742  0.83732  0.97793  1.0000
  O   O2        1.0  0.36643  0.05566  0.12099  1.0000
  O   O3        1.0  0.1100099999999999  0.16716999999999999  0.9776500000000001  1.0000
  O   O4        1.0  0.87188  0.61  0.8665700000000002  1.0000
  O   O5        1.0  0.6337200000000001  0.58691  0.85642  1.0000
  O   O6        1.0  0.69792  0.007050000000000003  0.28345  1.0000
  O   O7        1.0  0.8236  0.09251000000000001  0.25279  1.0000
  O   O8        1.0  0.8966599999999998  0.43671999999999994  0.8569100000000002  1.0000
  O   O9        1.0  0.65732  0.40434  0.86634  1.0000
  O   O10       1.0  0.7950599999999999  0.3382800000000001  0.47884  1.0000
  O   O11       1.0  0.4565399999999998  0.55573  0.6203600000000002  1.0000
  O   O12       1.0  0.7471  0.66771  0.47862  1.0000
  O   O13       1.0  0.6504599999999999  0.11129000000000001  0.36702  1.0000
  O   O14       1.0  0.9216700000000001  0.08789  0.3575000000000001  1.0000
  O   O15       1.0  0.015809999999999956  0.51027  0.78324  1.0000
  O   O16       1.0  0.82664  0.5896600000000001  0.75146  1.0000
  O   O17       1.0  0.8175999999999998  0.9371400000000001  0.35804  1.0000
  O   O18       1.0  0.08002999999999996  0.9033500000000001  0.3677800000000001  1.0000
  O   O19       1.0  0.20494000000000007  0.6617200000000001  0.52116  1.0000
  O   O20       1.0  0.5434599999999999  0.44426  0.3796400000000001  1.0000
  O   O21       1.0  0.2529  0.33228  0.52138  1.0000
  O   O22       1.0  0.3495299999999998  0.8887100000000001  0.63298  1.0000
  O   O23       1.0  0.07832000000000003  0.9121  0.6425  1.0000
  O   O24       1.0  0.9841799999999999  0.48973000000000005  0.21675  1.0000
  O   O25       1.0  0.17334999999999992  0.41034000000000015  0.24854  1.0000
  O   O26       1.0  0.18239000000000002  0.06286000000000003  0.64196  1.0000
  O   O27       1.0  0.9199600000000001  0.09664999999999999  0.6322200000000001  1.0000
  O   O28       1.0  0.61258  0.16267  0.02207  1.0000
  O   O29       1.0  0.6335699999999997  0.94433  0.87901  1.0000
  O   O30       1.0  0.88998  0.8328300000000002  0.02235  1.0000
  O   O31       1.0  0.12810999999999995  0.38999  0.13342  1.0000
  O   O32       1.0  0.36627  0.41307999999999995  0.14357  1.0000
  O   O33       1.0  0.30206999999999984  0.9929500000000003  0.71654  1.0000
  O   O34       1.0  0.17637999999999998  0.9074900000000001  0.74721  1.0000
  O   O35       1.0  0.10332999999999998  0.56327  0.14309  1.0000
  O   O36       1.0  0.34267  0.59565  0.13365  1.0000
