data_image0
_chemical_formula_structural       Cd4H108C132O36
_chemical_formula_sum              "Cd4 H108 C132 O36"
_cell_length_a       9.66715
_cell_length_b       12.44025
_cell_length_c       35.371579999999994
_cell_angle_alpha    90.58530999999999
_cell_angle_beta     89.9307
_cell_angle_gamma    112.92150999999998

_space_group_name_H-M_alt    "P 1"
_space_group_IT_number       1

loop_
  _space_group_symop_operation_xyz
  'x, y, z'

loop_
  _atom_site_type_symbol
  _atom_site_label
  _atom_site_symmetry_multiplicity
  _atom_site_fract_x
  _atom_site_fract_y
  _atom_site_fract_z
  _atom_site_occupancy
  Cd  Cd1       1.0  0.86435  0.60564  0.67909  1.0000
  Cd  Cd2       1.0  0.7365600000000002  0.6041  0.17873999999999995  1.0000
  Cd  Cd3       1.0  0.26350000000000007  0.39591000000000004  0.82126  1.0000
  Cd  Cd4       1.0  0.13561  0.39433  0.32091  1.0000
  H   H1        1.0  0.68333  0.60183  0.55154  1.0000
  H   H2        1.0  0.77532  0.71223  0.5851799999999998  1.0000
  H   H3        1.0  0.7686  0.51084  0.48421  1.0000
  H   H4        1.0  0.71836  0.59347  0.45054  1.0000
  H   H5        1.0  0.63969  0.57522  0.49606  1.0000
  H   H6        1.0  0.10826999999999999  0.72643  0.4191299999999999  1.0000
  H   H7        1.0  0.93571  0.60798  0.42878999999999995  1.0000
  H   H8        1.0  0.35019  0.9686500000000001  0.47194  1.0000
  H   H9        1.0  0.23612000000000005  0.9511200000000001  0.4314  1.0000
  H   H10       1.0  0.28973999999999994  0.8375100000000001  0.44605999999999996  1.0000
  H   H11       1.0  0.28371  0.07589  0.49967  1.0000
  H   H12       1.0  0.16197000000000003  0.08808  0.5351  1.0000
  H   H13       1.0  0.044820000000000006  0.007339999999999993  0.5784999999999998  1.0000
  H   H14       1.0  0.007410000000000045  0.8701200000000001  0.5996  1.0000
  H   H15       1.0  0.85767  0.90578  0.58298  1.0000
  H   H16       1.0  0.21177000000000004  0.80601  0.57612  1.0000
  H   H17       1.0  0.4409  0.84145  0.5375999999999997  1.0000
  H   H18       1.0  0.54589  0.59765  0.60689  1.0000
  H   H19       1.0  0.31599  0.56312  0.64436  1.0000
  H   H20       1.0  0.006800000000000003  0.61007  0.29546  1.0000
  H   H21       1.0  0.04729999999999998  0.63998  0.36361  1.0000
  H   H22       1.0  0.74444  0.82126  0.367  1.0000
  H   H23       1.0  0.70391  0.7893  0.29707  1.0000
  H   H24       1.0  0.61353  0.18978999999999996  0.65349  1.0000
  H   H25       1.0  0.45001  0.014660000000000001  0.6151099999999999  1.0000
  H   H26       1.0  0.38337  0.24456  0.53318  1.0000
  H   H27       1.0  0.53926  0.41592999999999997  0.57255  1.0000
  H   H28       1.0  0.9148200000000001  0.60131  0.05141  1.0000
  H   H29       1.0  0.9356000000000001  0.7124  0.08499999999999999  1.0000
  H   H30       1.0  0.7400000000000001  0.51136  0.98383  1.0000
  H   H31       1.0  0.87378  0.59356  0.9502099999999999  1.0000
  H   H32       1.0  0.93337  0.57468  0.9957099999999999  1.0000
  H   H33       1.0  0.62171  0.72988  0.91864  1.0000
  H   H34       1.0  0.67284  0.61001  0.92815  1.0000
  H   H35       1.0  0.61759  0.96841  0.9716899999999999  1.0000
  H   H36       1.0  0.7140800000000002  0.9506300000000001  0.9310999999999999  1.0000
  H   H37       1.0  0.54727  0.8368200000000001  0.94606  1.0000
  H   H38       1.0  0.79332  0.07615  0.9993499999999998  1.0000
  H   H39       1.0  0.9248000000000001  0.08809  0.03536  1.0000
  H   H40       1.0  0.96092  0.0073  0.07836999999999997  1.0000
  H   H41       1.0  0.8621  0.8698799999999999  0.09953  1.0000
  H   H42       1.0  0.04744999999999998  0.9063400000000001  0.08254999999999997  1.0000
  H   H43       1.0  0.59181  0.8042  0.07599  1.0000
  H   H44       1.0  0.39897  0.83956  0.03715  1.0000
  H   H45       1.0  0.04818999999999999  0.59554  0.10629  1.0000
  H   H46       1.0  0.24302  0.56077  0.14384  1.0000
  H   H47       1.0  0.60689  0.61401  0.7958  1.0000
  H   H48       1.0  0.59587  0.64322  0.86402  1.0000
  H   H49       1.0  0.08106000000000001  0.82395  0.86732  1.0000
  H   H50       1.0  0.08908  0.79302  0.79719  1.0000
  H   H51       1.0  0.57528  0.18974000000000002  0.15321  1.0000
  H   H52       1.0  0.5634  0.01455  0.11475  1.0000
  H   H53       1.0  0.85974  0.24457000000000004  0.0326  1.0000
  H   H54       1.0  0.87486  0.41587  0.07187  1.0000
  H   H55       1.0  0.08516  0.39868  0.94858  1.0000
  H   H56       1.0  0.06439000000000003  0.28759  0.915  1.0000
  H   H57       1.0  0.25997  0.48863  0.01617  1.0000
  H   H58       1.0  0.12619  0.40642  0.049789999999999994  1.0000
  H   H59       1.0  0.06659999999999999  0.42529999999999996  0.00429  1.0000
  H   H60       1.0  0.37826  0.2701  0.08136  1.0000
  H   H61       1.0  0.32713  0.38997  0.07185  1.0000
  H   H62       1.0  0.38239  0.03158  0.028299999999999995  1.0000
  H   H63       1.0  0.2859  0.049350000000000005  0.06889999999999998  1.0000
  H   H64       1.0  0.4527  0.16317  0.05394  1.0000
  H   H65       1.0  0.20665999999999998  0.92383  0.00064  1.0000
  H   H66       1.0  0.07517000000000008  0.9119  0.96464  1.0000
  H   H67       1.0  0.03905999999999998  0.9927  0.9216300000000001  1.0000
  H   H68       1.0  0.13788  0.13011  0.90046  1.0000
  H   H69       1.0  0.95254  0.09365000000000001  0.9174499999999999  1.0000
  H   H70       1.0  0.40819000000000005  0.19580000000000003  0.9240099999999999  1.0000
  H   H71       1.0  0.60101  0.16043  0.96285  1.0000
  H   H72       1.0  0.9518300000000001  0.40444  0.8937199999999997  1.0000
  H   H73       1.0  0.75702  0.43923  0.85616  1.0000
  H   H74       1.0  0.39309  0.38599  0.20419999999999996  1.0000
  H   H75       1.0  0.40411  0.35678  0.13597999999999996  1.0000
  H   H76       1.0  0.9189200000000001  0.17603  0.13267999999999994  1.0000
  H   H77       1.0  0.9108900000000001  0.20697000000000002  0.20279999999999995  1.0000
  H   H78       1.0  0.42469  0.81024  0.84679  1.0000
  H   H79       1.0  0.43657000000000007  0.9854300000000001  0.88525  1.0000
  H   H80       1.0  0.14023000000000002  0.75541  0.9674  1.0000
  H   H81       1.0  0.12510999999999997  0.58411  0.92813  1.0000
  H   H82       1.0  0.31667999999999996  0.39816999999999997  0.44846  1.0000
  H   H83       1.0  0.22468000000000002  0.28777  0.41482  1.0000
  H   H84       1.0  0.2314  0.48916  0.51579  1.0000
  H   H85       1.0  0.28164  0.40653  0.54946  1.0000
  H   H86       1.0  0.36030999999999996  0.42478  0.50395  1.0000
  H   H87       1.0  0.89171  0.27359  0.58087  1.0000
  H   H88       1.0  0.06430000000000001  0.39202  0.5712199999999998  1.0000
  H   H89       1.0  0.64981  0.03135  0.52806  1.0000
  H   H90       1.0  0.7638700000000002  0.04887  0.5686  1.0000
  H   H91       1.0  0.71025  0.16249  0.55394  1.0000
  H   H92       1.0  0.7163  0.9241000000000001  0.50034  1.0000
  H   H93       1.0  0.8380700000000001  0.9119  0.46492  1.0000
  H   H94       1.0  0.9551800000000001  0.99265  0.4215  1.0000
  H   H95       1.0  0.99259  0.12987  0.4004  1.0000
  H   H96       1.0  0.14233  0.09422  0.41702  1.0000
  H   H97       1.0  0.78822  0.19396000000000002  0.42388  1.0000
  H   H98       1.0  0.55909  0.15852  0.4624  1.0000
  H   H99       1.0  0.45409999999999995  0.40233  0.39311  1.0000
  H   H100      1.0  0.684  0.43686  0.35564  1.0000
  H   H101      1.0  0.99317  0.38991999999999993  0.70454  1.0000
  H   H102      1.0  0.95267  0.35999999999999993  0.6363899999999998  1.0000
  H   H103      1.0  0.25552  0.17872  0.6329999999999998  1.0000
  H   H104      1.0  0.29607000000000006  0.2107  0.70293  1.0000
  H   H105      1.0  0.38646000000000014  0.8101700000000001  0.34652  1.0000
  H   H106      1.0  0.5499399999999999  0.98529  0.3848999999999999  1.0000
  H   H107      1.0  0.6165900000000001  0.7554  0.46682999999999997  1.0000
  H   H108      1.0  0.46074  0.58402  0.42746  1.0000
  C   C1        1.0  0.86876  0.75082  0.52902  1.0000
  C   C2        1.0  0.8719  0.69888  0.49364  1.0000
  C   C3        1.0  0.9968100000000002  0.7516800000000001  0.46983  1.0000
  C   C4        1.0  0.11588000000000011  0.85629  0.48074  1.0000
  C   C5        1.0  0.10346999999999987  0.9127599999999999  0.51457  1.0000
  C   C6        1.0  0.9819  0.85936  0.53929  1.0000
  C   C7        1.0  0.73936  0.69649  0.55553  1.0000
  C   C8        1.0  0.7432600000000003  0.58906  0.48056999999999994  1.0000
  C   C9        1.0  0.99515  0.7031499999999999  0.43069  1.0000
  C   C10       1.0  0.25434  0.90625  0.45636  1.0000
  C   C11       1.0  0.21749  0.03207  0.52423  1.0000
  C   C12       1.0  0.9727  0.9144899999999999  0.5769  1.0000
  C   C13       1.0  0.11582999999999999  0.66254  0.6370299999999998  1.0000
  C   C14       1.0  0.24976  0.68239  0.6128799999999998  1.0000
  C   C15       1.0  0.28472  0.76062  0.5824899999999997  1.0000
  C   C16       1.0  0.41235  0.78069  0.561  1.0000
  C   C17       1.0  0.50793  0.72278  0.56973  1.0000
  C   C18       1.0  0.4734  0.64296  0.59962  1.0000
  C   C19       1.0  0.34437  0.62347  0.62081  1.0000
  C   C20       1.0  0.82536  0.67343  0.25073  1.0000
  C   C21       1.0  0.8533800000000001  0.69804  0.29179  1.0000
  C   C22       1.0  0.9500800000000001  0.65665  0.31104  1.0000
  C   C23       1.0  0.97246  0.67338  0.34976  1.0000
  C   C24       1.0  0.89836  0.73363  0.3697  1.0000
  C   C25       1.0  0.8013600000000001  0.77635  0.3506499999999999  1.0000
  C   C26       1.0  0.7791  0.75825  0.31208  1.0000
  C   C27       1.0  0.67716  0.41674  0.63901  1.0000
  C   C28       1.0  0.58452  0.31352  0.61554  1.0000
  C   C29       1.0  0.56123  0.19991  0.62729  1.0000
  C   C30       1.0  0.47161000000000003  0.10316000000000002  0.60614  1.0000
  C   C31       1.0  0.40499  0.11912000000000002  0.57239  1.0000
  C   C32       1.0  0.43123  0.232  0.55969  1.0000
  C   C33       1.0  0.51956  0.32789  0.5815499999999998  1.0000
  C   C34       1.0  0.8808400000000001  0.75086  0.028849999999999997  1.0000
  C   C35       1.0  0.82634  0.69923  0.99341  1.0000
  C   C36       1.0  0.75491  0.75237  0.9696599999999999  1.0000
  C   C37       1.0  0.74005  0.85666  0.9806099999999999  1.0000
  C   C38       1.0  0.8084699999999999  0.91291  0.01447  1.0000
  C   C39       1.0  0.8761700000000001  0.8593300000000001  0.039159999999999986  1.0000
  C   C40       1.0  0.95504  0.69608  0.055359999999999986  1.0000
  C   C41       1.0  0.8442799999999999  0.58921  0.98024  1.0000
  C   C42       1.0  0.70979  0.70517  0.93041  1.0000
  C   C43       1.0  0.6513699999999999  0.90607  0.95619  1.0000
  C   C44       1.0  0.81389  0.03221  0.02409  1.0000
  C   C45       1.0  0.9407000000000001  0.91455  0.07672  1.0000
  C   C46       1.0  0.54283  0.6616  0.1368  1.0000
  C   C47       1.0  0.42899000000000004  0.68065  0.11251999999999997  1.0000
  C   C48       1.0  0.47309999999999997  0.75872  0.08213  1.0000
  C   C49       1.0  0.3660900000000001  0.77864  0.0605  1.0000
  C   C50       1.0  0.21241000000000002  0.7207300000000001  0.06928  1.0000
  C   C51       1.0  0.16625  0.64066  0.09906  1.0000
  C   C52       1.0  0.27531  0.62122  0.12032  1.0000
  C   C53       1.0  0.8525600000000001  0.6778999999999998  0.75125  1.0000
  C   C54       1.0  0.8484600000000001  0.70172  0.79227  1.0000
  C   C55       1.0  0.71001  0.66037  0.81144  1.0000
  C   C56       1.0  0.70428  0.67687  0.85014  1.0000
  C   C57       1.0  0.83903  0.73662  0.86996  1.0000
  C   C58       1.0  0.9791099999999999  0.77955  0.85097  1.0000
  C   C59       1.0  0.98311  0.76186  0.8124  1.0000
  C   C60       1.0  0.73606  0.41683  0.13812  1.0000
  C   C61       1.0  0.7264500000000003  0.31358  0.11485  1.0000
  C   C62       1.0  0.6369400000000001  0.19995  0.12684  1.0000
  C   C63       1.0  0.6298699999999999  0.10319  0.10574  1.0000
  C   C64       1.0  0.71195  0.11920000000000001  0.07186  1.0000
  C   C65       1.0  0.79897  0.23200999999999997  0.05911  1.0000
  C   C66       1.0  0.80619  0.32787  0.08089  1.0000
  C   C67       1.0  0.11915  0.24913  0.9711499999999998  1.0000
  C   C68       1.0  0.17364  0.30075  0.0065899999999999995  1.0000
  C   C69       1.0  0.24506000000000003  0.24761000000000002  0.03034  1.0000
  C   C70       1.0  0.25992  0.14333  0.01939  1.0000
  C   C71       1.0  0.19149999999999998  0.08706999999999997  0.98553  1.0000
  C   C72       1.0  0.12382  0.14066  0.96083  1.0000
  C   C73       1.0  0.04495  0.30390999999999996  0.9446399999999999  1.0000
  C   C74       1.0  0.15570000000000003  0.41078000000000003  0.019759999999999996  1.0000
  C   C75       1.0  0.29019  0.29482  0.06959  1.0000
  C   C76       1.0  0.34861  0.09391  0.04380999999999999  1.0000
  C   C77       1.0  0.18608  0.96778  0.9759100000000002  1.0000
  C   C78       1.0  0.05929000000000001  0.08544  0.92328  1.0000
  C   C79       1.0  0.4573  0.33848  0.86319  1.0000
  C   C80       1.0  0.57105  0.31936  0.88748  1.0000
  C   C81       1.0  0.5269  0.24128  0.9178699999999999  1.0000
  C   C82       1.0  0.6339  0.22135000000000002  0.9394999999999999  1.0000
  C   C83       1.0  0.78759  0.27925  0.93072  1.0000
  C   C84       1.0  0.8337699999999999  0.35933000000000004  0.90094  1.0000
  C   C85       1.0  0.72473  0.37879  0.8796799999999998  1.0000
  C   C86       1.0  0.14742000000000002  0.32209  0.24874999999999997  1.0000
  C   C87       1.0  0.15151  0.29826  0.20772999999999997  1.0000
  C   C88       1.0  0.28997  0.33963  0.18856  1.0000
  C   C89       1.0  0.29569  0.32313  0.14985999999999994  1.0000
  C   C90       1.0  0.16094  0.26337  0.13004  1.0000
  C   C91       1.0  0.02086000000000002  0.22044000000000002  0.14902  1.0000
  C   C92       1.0  0.016860000000000014  0.23813000000000004  0.18759  1.0000
  C   C93       1.0  0.26392  0.58315  0.8618699999999998  1.0000
  C   C94       1.0  0.27353000000000005  0.6864  0.8851399999999999  1.0000
  C   C95       1.0  0.36304  0.80004  0.87316  1.0000
  C   C96       1.0  0.3701  0.8968  0.89426  1.0000
  C   C97       1.0  0.2880200000000001  0.88079  0.9281399999999999  1.0000
  C   C98       1.0  0.201  0.76798  0.9408899999999999  1.0000
  C   C99       1.0  0.19377999999999995  0.67211  0.91911  1.0000
  C   C100      1.0  0.13124  0.24918  0.47097999999999995  1.0000
  C   C101      1.0  0.12809999999999996  0.30112  0.50636  1.0000
  C   C102      1.0  0.003179999999999993  0.24832000000000004  0.53017  1.0000
  C   C103      1.0  0.88412  0.14371  0.51926  1.0000
  C   C104      1.0  0.89654  0.08723  0.48544  1.0000
  C   C105      1.0  0.018100000000000015  0.14063  0.46070999999999995  1.0000
  C   C106      1.0  0.26064  0.30351  0.44447  1.0000
  C   C107      1.0  0.25674  0.41094  0.51943  1.0000
  C   C108      1.0  0.004829999999999988  0.29685  0.56931  1.0000
  C   C109      1.0  0.74566  0.09375000000000001  0.5436399999999999  1.0000
  C   C110      1.0  0.78253  0.96791  0.4757799999999999  1.0000
  C   C111      1.0  0.0273  0.08551  0.42311  1.0000
  C   C112      1.0  0.8841599999999998  0.33744  0.36297  1.0000
  C   C113      1.0  0.75022  0.31759  0.38712  1.0000
  C   C114      1.0  0.71526  0.23936  0.4175  1.0000
  C   C115      1.0  0.5876300000000001  0.21929  0.43899999999999995  1.0000
  C   C116      1.0  0.49206000000000005  0.2772  0.43027  1.0000
  C   C117      1.0  0.52659  0.35701999999999995  0.40038  1.0000
  C   C118      1.0  0.6556199999999999  0.37650999999999996  0.37919  1.0000
  C   C119      1.0  0.17462  0.32658  0.74927  1.0000
  C   C120      1.0  0.14659  0.30195  0.70821  1.0000
  C   C121      1.0  0.0499  0.34334  0.68896  1.0000
  C   C122      1.0  0.027500000000000004  0.3266  0.65024  1.0000
  C   C123      1.0  0.10159  0.26634  0.6303  1.0000
  C   C124      1.0  0.1986  0.22363  0.6493499999999999  1.0000
  C   C125      1.0  0.22087000000000004  0.24174  0.6879199999999998  1.0000
  C   C126      1.0  0.32285  0.58323  0.36098999999999987  1.0000
  C   C127      1.0  0.41548  0.68643  0.38447  1.0000
  C   C128      1.0  0.43876000000000004  0.80004  0.37272  1.0000
  C   C129      1.0  0.52838  0.89679  0.39387  1.0000
  C   C130      1.0  0.59503  0.88084  0.42761  1.0000
  C   C131      1.0  0.56877  0.76795  0.44031  1.0000
  C   C132      1.0  0.48044  0.67207  0.41846  1.0000
  O   O1        1.0  0.022600000000000002  0.70877  0.62831  1.0000
  O   O2        1.0  0.09672  0.59798  0.66605  1.0000
  O   O3        1.0  0.6319600000000001  0.7503400000000001  0.54724  1.0000
  O   O4        1.0  0.78517  0.74052  0.23043  1.0000
  O   O5        1.0  0.83917  0.58299  0.23645  1.0000
  O   O6        1.0  0.91298  0.7564600000000001  0.40743  1.0000
  O   O7        1.0  0.68045  0.51786  0.63064  1.0000
  O   O8        1.0  0.75274  0.4016  0.66648  1.0000
  O   O9        1.0  0.3168  0.01998  0.55354  1.0000
  O   O10       1.0  0.68297  0.71305  0.1293  1.0000
  O   O11       1.0  0.4960399999999999  0.59226  0.16467  1.0000
  O   O12       1.0  0.11637000000000002  0.749  0.04708  1.0000
  O   O13       1.0  0.9590700000000001  0.74596  0.73106  1.0000
  O   O14       1.0  0.74871  0.5868  0.73713  1.0000
  O   O15       1.0  0.84683  0.75846  0.9076900000000001  1.0000
  O   O16       1.0  0.83353  0.51817  0.12972  1.0000
  O   O17       1.0  0.64482  0.40139  0.16555  1.0000
  O   O18       1.0  0.70088  0.02007  0.05303  1.0000
  O   O19       1.0  0.31715000000000004  0.2871800000000001  0.8707  1.0000
  O   O20       1.0  0.50418  0.4077  0.83528  1.0000
  O   O21       1.0  0.88363  0.25098  0.95292  1.0000
  O   O22       1.0  0.0409  0.25403  0.26893  1.0000
  O   O23       1.0  0.25126  0.41318000000000005  0.26286  1.0000
  O   O24       1.0  0.15314  0.24152  0.09231  1.0000
  O   O25       1.0  0.1664400000000001  0.4818200000000001  0.87027  1.0000
  O   O26       1.0  0.35516  0.59859  0.8344499999999998  1.0000
  O   O27       1.0  0.29909  0.97991  0.9469699999999999  1.0000
  O   O28       1.0  0.97738  0.29119  0.37168  1.0000
  O   O29       1.0  0.9032700000000001  0.40201  0.33395999999999987  1.0000
  O   O30       1.0  0.36804  0.24965000000000004  0.45276  1.0000
  O   O31       1.0  0.2148  0.25947  0.76957  1.0000
  O   O32       1.0  0.16083  0.41702  0.76355  1.0000
  O   O33       1.0  0.08693999999999999  0.2435  0.59258  1.0000
  O   O34       1.0  0.31947  0.48209  0.36938  1.0000
  O   O35       1.0  0.2474  0.59841  0.3335099999999999  1.0000
  O   O36       1.0  0.68324  0.97999  0.4464499999999999  1.0000
