data_image0
_chemical_formula_structural       Gd16H88C172N24O72
_chemical_formula_sum              "Gd16 H88 C172 N24 O72"
_cell_length_a       16.43438
_cell_length_b       18.8536
_cell_length_c       20.88254
_cell_angle_alpha    73.22852
_cell_angle_beta     68.04109
_cell_angle_gamma    64.55869

_space_group_name_H-M_alt    "P 1"
_space_group_IT_number       1

loop_
  _space_group_symop_operation_xyz
  'x, y, z'

loop_
  _atom_site_type_symbol
  _atom_site_label
  _atom_site_symmetry_multiplicity
  _atom_site_fract_x
  _atom_site_fract_y
  _atom_site_fract_z
  _atom_site_occupancy
  Gd  Gd1       1.0  0.11137999999999999  0.28573  0.28988  1.0000
  Gd  Gd2       1.0  0.1465799999999999  0.1664  0.4685400000000001  1.0000
  Gd  Gd3       1.0  0.35079  0.20308000000000004  0.3237  1.0000
  Gd  Gd4       1.0  0.16697000000000004  0.3708500000000001  0.41307  1.0000
  Gd  Gd5       1.0  0.69931  0.21196  0.20917000000000002  1.0000
  Gd  Gd6       1.0  0.78536  0.3293300000000001  0.03239  1.0000
  Gd  Gd7       1.0  0.8943399999999999  0.2964000000000001  0.1818  1.0000
  Gd  Gd8       1.0  0.9447900000000002  0.13181  0.09217000000000003  1.0000
  Gd  Gd9       1.0  0.8879000000000004  0.71468  0.7118100000000002  1.0000
  Gd  Gd10      1.0  0.85515  0.8331200000000002  0.53294  1.0000
  Gd  Gd11      1.0  0.6495700000000002  0.7957299999999999  0.67708  1.0000
  Gd  Gd12      1.0  0.8362899999999999  0.62977  0.5876  1.0000
  Gd  Gd13      1.0  0.29747000000000007  0.78787  0.79235  1.0000
  Gd  Gd14      1.0  0.20978  0.6719099999999999  0.9683500000000002  1.0000
  Gd  Gd15      1.0  0.10004  0.70647  0.8205  1.0000
  Gd  Gd16      1.0  0.052289999999999975  0.8695  0.91071  1.0000
  H   H1        1.0  0.8114300000000001  0.48081  0.36153000000000013  1.0000
  H   H2        1.0  0.5005000000000001  0.11197  0.13831000000000002  1.0000
  H   H3        1.0  0.24519000000000002  0.14203000000000005  0.1058  1.0000
  H   H4        1.0  0.6657699999999996  0.6061500000000002  0.3661300000000001  1.0000
  H   H5        1.0  0.5928000000000002  0.02276  0.04899000000000001  1.0000
  H   H6        1.0  0.33457  0.05440000000000001  0.015220000000000001  1.0000
  H   H7        1.0  0.6827  0.7354500000000003  0.3554200000000001  1.0000
  H   H8        1.0  0.4318199999999999  0.89451  0.36522  1.0000
  H   H9        1.0  0.8950400000000001  0.28400999999999993  0.6405800000000001  1.0000
  H   H10       1.0  0.4082199999999999  0.48897000000000007  0.3498400000000001  1.0000
  H   H11       1.0  0.20121999999999993  0.5681100000000002  0.20486000000000004  1.0000
  H   H12       1.0  0.52135  0.75501  0.41368  1.0000
  H   H13       1.0  0.7676400000000002  0.35294999999999993  0.74092  1.0000
  H   H14       1.0  0.5294399999999998  0.5496800000000002  0.2746  1.0000
  H   H15       1.0  0.55405  0.73329  0.52737  1.0000
  H   H16       1.0  0.6047499999999999  0.5262000000000002  0.14876  1.0000
  H   H17       1.0  0.36207999999999985  0.011699999999999943  0.7264800000000002  1.0000
  H   H18       1.0  0.2963700000000002  0.18079  0.54635  1.0000
  H   H19       1.0  0.47409  0.321  0.016670000000000004  1.0000
  H   H20       1.0  0.2022599999999999  0.45613000000000004  0.14219  1.0000
  H   H21       1.0  0.28992  0.15363  0.67281  1.0000
  H   H22       1.0  0.29693  0.3775  0.04397  1.0000
  H   H23       1.0  0.6511899999999999  0.01903000000000001  0.13947  1.0000
  H   H24       1.0  0.7498200000000002  0.40471  0.3648000000000001  1.0000
  H   H25       1.0  0.51528  0.3434  0.39453000000000005  1.0000
  H   H26       1.0  0.6369100000000003  0.89446  0.12953  1.0000
  H   H27       1.0  0.65369  0.49484000000000006  0.4536  1.0000
  H   H28       1.0  0.41758  0.42991000000000007  0.48589  1.0000
  H   H29       1.0  0.7724099999999998  0.76553  0.13816  1.0000
  H   H30       1.0  0.69788  0.6027200000000003  0.13748  1.0000
  H   H31       1.0  0.8194300000000001  0.21317000000000008  0.86152  1.0000
  H   H32       1.0  0.24614  0.003970000000000001  0.16337  1.0000
  H   H33       1.0  0.9735199999999999  0.9277600000000001  0.30112  1.0000
  H   H34       1.0  0.6893999999999999  0.7432  0.08536000000000003  1.0000
  H   H35       1.0  0.85725  0.14752000000000004  0.75873  1.0000
  H   H36       1.0  0.34235000000000004  0.93931  0.24839  1.0000
  H   H37       1.0  0.8077800000000002  0.7652199999999999  0.97141  1.0000
  H   H38       1.0  0.26278  0.96602  0.37289  1.0000
  H   H39       1.0  0.08506999999999997  0.48553  0.77607  1.0000
  H   H40       1.0  0.02490999999999991  0.3158399999999999  0.9588400000000002  1.0000
  H   H41       1.0  0.7996400000000001  0.18912000000000004  0.47546  1.0000
  H   H42       1.0  0.7962899999999999  0.05871  0.33791  1.0000
  H   H43       1.0  0.10882999999999994  0.34293000000000007  0.83168  1.0000
  H   H44       1.0  0.7103299999999999  0.13672  0.43667  1.0000
  H   H45       1.0  0.19243000000000002  0.51999  0.64005  1.0000
  H   H46       1.0  0.49738000000000004  0.88299  0.86711  1.0000
  H   H47       1.0  0.7533899999999999  0.8641900000000001  0.89098  1.0000
  H   H48       1.0  0.3384599999999997  0.39578  0.6322400000000002  1.0000
  H   H49       1.0  0.40490999999999994  0.97136  0.95724  1.0000
  H   H50       1.0  0.66421  0.9538499999999999  0.9797700000000003  1.0000
  H   H51       1.0  0.32227  0.26609999999999995  0.6419800000000001  1.0000
  H   H52       1.0  0.56939  0.10447999999999995  0.6350500000000002  1.0000
  H   H53       1.0  0.10903999999999991  0.71462  0.36241  1.0000
  H   H54       1.0  0.60594  0.50173  0.65188  1.0000
  H   H55       1.0  0.8030100000000003  0.4346  0.79492  1.0000
  H   H56       1.0  0.4788999999999999  0.24346000000000007  0.5867  1.0000
  H   H57       1.0  0.23680999999999988  0.6468999999999999  0.2616800000000001  1.0000
  H   H58       1.0  0.4871199999999999  0.43770999999999993  0.7253200000000002  1.0000
  H   H59       1.0  0.44183000000000006  0.26388  0.4751  1.0000
  H   H60       1.0  0.4043399999999998  0.46412  0.8499200000000001  1.0000
  H   H61       1.0  0.63859  0.98527  0.27474000000000004  1.0000
  H   H62       1.0  0.70462  0.8176300000000002  0.45525000000000004  1.0000
  H   H63       1.0  0.5167699999999997  0.6777100000000003  0.9875900000000002  1.0000
  H   H64       1.0  0.79317  0.5448599999999999  0.8661400000000001  1.0000
  H   H65       1.0  0.7117999999999999  0.8441399999999999  0.32863000000000003  1.0000
  H   H66       1.0  0.6932100000000001  0.62282  0.9643000000000002  1.0000
  H   H67       1.0  0.3492499999999999  0.9804900000000001  0.86078  1.0000
  H   H68       1.0  0.23673  0.61618  0.62055  1.0000
  H   H69       1.0  0.48215999999999987  0.6419700000000003  0.62132  1.0000
  H   H70       1.0  0.36373999999999995  0.10467999999999997  0.8711500000000001  1.0000
  H   H71       1.0  0.33352000000000004  0.52853  0.52945  1.0000
  H   H72       1.0  0.5816500000000001  0.55273  0.5326  1.0000
  H   H73       1.0  0.2272099999999999  0.2335100000000001  0.86475  1.0000
  H   H74       1.0  0.29713999999999985  0.40034000000000003  0.86275  1.0000
  H   H75       1.0  0.17985000000000007  0.78695  0.14076  1.0000
  H   H76       1.0  0.7509799999999999  0.0028800000000000006  0.83635  1.0000
  H   H77       1.0  0.02563000000000004  0.07153000000000001  0.70168  1.0000
  H   H78       1.0  0.30697999999999975  0.2594600000000001  0.91495  1.0000
  H   H79       1.0  0.1419299999999999  0.8521700000000002  0.24385000000000004  1.0000
  H   H80       1.0  0.6575500000000003  0.06591999999999999  0.74951  1.0000
  H   H81       1.0  0.18935  0.23689  0.029110000000000007  1.0000
  H   H82       1.0  0.73924  0.034940000000000006  0.62629  1.0000
  H   H83       1.0  0.9112999999999999  0.5163  0.22517000000000004  1.0000
  H   H84       1.0  0.97322  0.6858900000000002  0.04284000000000001  1.0000
  H   H85       1.0  0.20080999999999985  0.8111900000000002  0.52799  1.0000
  H   H86       1.0  0.20339000000000007  0.94055  0.66661  1.0000
  H   H87       1.0  0.8881100000000003  0.65877  0.16978  1.0000
  H   H88       1.0  0.28981000000000023  0.86266  0.56789  1.0000
  C   C1        1.0  0.98447  0.46874  0.34885  1.0000
  C   C2        1.0  0.31226  0.17966  0.18615000000000004  1.0000
  C   C3        1.0  0.9001600000000001  0.544  0.34688  1.0000
  C   C4        1.0  0.36719999999999997  0.13125  0.12819  1.0000
  C   C5        1.0  0.8139099999999996  0.5390000000000003  0.35628  1.0000
  C   C6        1.0  0.9034299999999997  0.6198900000000004  0.33793  1.0000
  C   C7        1.0  0.46566  0.09814  0.11088  1.0000
  C   C8        1.0  0.32157  0.11549000000000001  0.09218  1.0000
  C   C9        1.0  0.34800000000000003  0.023950000000000003  0.42901  1.0000
  C   C10       1.0  0.06271999999999996  0.30043000000000003  0.5767100000000001  1.0000
  C   C11       1.0  0.36094999999999994  0.3889600000000001  0.31353  1.0000
  C   C12       1.0  0.7339499999999998  0.6080900000000004  0.35889  1.0000
  C   C13       1.0  0.9952400000000001  0.62925  0.32004  1.0000
  C   C14       1.0  0.51664  0.04791  0.06071000000000001  1.0000
  C   C15       1.0  0.37268  0.06543  0.04178000000000001  1.0000
  C   C16       1.0  0.41074  0.94294  0.45429  1.0000
  C   C17       1.0  0.99444  0.32779  0.64381  1.0000
  C   C18       1.0  0.4142600000000001  0.44104999999999994  0.26578  1.0000
  C   C19       1.0  0.7437199999999999  0.68011  0.35216000000000003  1.0000
  C   C20       1.0  0.47163  0.02883  0.025810000000000007  1.0000
  C   C21       1.0  0.44557999999999987  0.8816100000000001  0.41527  1.0000
  C   C22       1.0  0.43192  0.9248000000000001  0.51811  1.0000
  C   C23       1.0  0.9072900000000002  0.31854  0.66737  1.0000
  C   C24       1.0  0.43903999999999993  0.48468000000000006  0.2944700000000001  1.0000
  C   C25       1.0  0.45072  0.44142  0.19274  1.0000
  C   C26       1.0  0.14679000000000003  0.6009  0.24642000000000003  1.0000
  C   C27       1.0  0.4959999999999998  0.8045400000000003  0.44159000000000004  1.0000
  C   C28       1.0  0.39709  0.9862900000000001  0.56265  1.0000
  C   C29       1.0  0.83738  0.35629000000000005  0.7226900000000002  1.0000
  C   C30       1.0  0.50654  0.5180800000000002  0.25272  1.0000
  C   C31       1.0  0.41132  0.41627  0.15327  1.0000
  C   C32       1.0  0.5136699999999997  0.7922100000000002  0.50514  1.0000
  C   C33       1.0  0.39786000000000005  0.9655700000000002  0.63281  1.0000
  C   C34       1.0  0.54712  0.50651  0.18293  1.0000
  C   C35       1.0  0.47066  0.37041000000000013  0.0993  1.0000
  C   C36       1.0  0.3626  0.02676000000000001  0.67208  1.0000
  C   C37       1.0  0.4176699999999998  0.8823400000000003  0.67152  1.0000
  C   C38       1.0  0.32571  0.12027  0.57227  1.0000
  C   C39       1.0  0.4298600000000001  0.35662  0.05845  1.0000
  C   C40       1.0  0.57317  0.33222999999999997  0.09340000000000002  1.0000
  C   C41       1.0  0.27874999999999994  0.4321800000000001  0.12829  1.0000
  C   C42       1.0  0.32369999999999993  0.10518999999999998  0.6422900000000001  1.0000
  C   C43       1.0  0.33202  0.38774  0.07351000000000002  1.0000
  C   C44       1.0  0.7998900000000001  0.030209999999999997  0.15578  1.0000
  C   C45       1.0  0.69366  0.32491000000000003  0.3129  1.0000
  C   C46       1.0  0.78859  0.9558800000000001  0.15427000000000005  1.0000
  C   C47       1.0  0.6376  0.37083  0.37272  1.0000
  C   C48       1.0  0.70701  0.96112  0.14356000000000005  1.0000
  C   C49       1.0  0.8588  0.88004  0.16193  1.0000
  C   C50       1.0  0.67643  0.41211  0.3916000000000001  1.0000
  C   C51       1.0  0.5444099999999997  0.37679  0.4085900000000001  1.0000
  C   C52       1.0  0.80869  0.47138  0.07674  1.0000
  C   C53       1.0  0.94164  0.19927  0.9251000000000001  1.0000
  C   C54       1.0  0.06747000000000002  0.10994000000000005  0.1903  1.0000
  C   C55       1.0  0.69934  0.89237  0.13813  1.0000
  C   C56       1.0  0.94151  0.8701  0.18177  1.0000
  C   C57       1.0  0.6216800000000002  0.46231999999999995  0.44161  1.0000
  C   C58       1.0  0.48984999999999995  0.42639999999999995  0.4593  1.0000
  C   C59       1.0  0.8116500000000001  0.55361  0.04971000000000001  1.0000
  C   C60       1.0  0.9649200000000001  0.17147  0.85804  1.0000
  C   C61       1.0  0.11918  0.056220000000000006  0.24198  1.0000
  C   C62       1.0  0.7744899999999999  0.82052  0.14352  1.0000
  C   C63       1.0  0.5260000000000001  0.47277999999999987  0.4753800000000001  1.0000
  C   C64       1.0  0.7460899999999998  0.6156000000000003  0.08718  1.0000
  C   C65       1.0  0.8734700000000001  0.5721500000000002  0.9848  1.0000
  C   C66       1.0  0.89156  0.1802100000000001  0.83412  1.0000
  C   C67       1.0  0.21426999999999993  0.009529999999999995  0.21848000000000006  1.0000
  C   C68       1.0  0.07842999999999994  0.05824999999999999  0.3145300000000001  1.0000
  C   C69       1.0  0.9924600000000001  0.89668  0.25807  1.0000
  C   C70       1.0  0.7418499999999999  0.69329  0.05876000000000001  1.0000
  C   C71       1.0  0.9426099999999998  0.51049  0.9408500000000001  1.0000
  C   C72       1.0  0.9124999999999999  0.14437999999999998  0.7773300000000002  1.0000
  C   C73       1.0  0.26759999999999995  0.9741800000000002  0.2656  1.0000
  C   C74       1.0  0.9745200000000002  0.08773  0.34687  1.0000
  C   C75       1.0  0.80699  0.70577  0.99477  1.0000
  C   C76       1.0  0.9868300000000002  0.53126  0.86998  1.0000
  C   C77       1.0  0.22350999999999996  0.98763  0.3347900000000001  1.0000
  C   C78       1.0  0.93089  0.13513  0.40035000000000004  1.0000
  C   C79       1.0  0.05100999999999991  0.47026000000000007  0.83098  1.0000
  C   C80       1.0  0.9519800000000002  0.61267  0.8302600000000002  1.0000
  C   C81       1.0  0.016839999999999987  0.3764700000000001  0.93232  1.0000
  C   C82       1.0  0.8349900000000001  0.15209999999999999  0.43439000000000005  1.0000
  C   C83       1.0  0.9843100000000001  0.17704999999999999  0.4094600000000001  1.0000
  C   C84       1.0  0.83352  0.07973999999999999  0.3574200000000001  1.0000
  C   C85       1.0  0.06495000000000002  0.39155999999999996  0.8618900000000002  1.0000
  C   C86       1.0  0.7854000000000001  0.12366000000000002  0.41272  1.0000
  C   C87       1.0  0.01931999999999997  0.53192  0.65125  1.0000
  C   C88       1.0  0.68653  0.82135  0.8146  1.0000
  C   C89       1.0  0.10395999999999993  0.45695  0.6533  1.0000
  C   C90       1.0  0.6310499999999999  0.8696000000000004  0.87269  1.0000
  C   C91       1.0  0.19003999999999982  0.4620700000000001  0.6440700000000003  1.0000
  C   C92       1.0  0.10086999999999997  0.38108000000000003  0.66165  1.0000
  C   C93       1.0  0.5324199999999999  0.89946  0.8924600000000001  1.0000
  C   C94       1.0  0.6768699999999997  0.8886099999999999  0.9062500000000002  1.0000
  C   C95       1.0  0.65258  0.9747900000000002  0.57191  1.0000
  C   C96       1.0  0.9401099999999999  0.7004600000000001  0.42378000000000005  1.0000
  C   C97       1.0  0.6438899999999999  0.6072800000000005  0.68912  1.0000
  C   C98       1.0  0.2703900000000001  0.3932  0.64014  1.0000
  C   C99       1.0  0.008990000000000007  0.37156999999999996  0.68019  1.0000
  C   C100      1.0  0.4812799999999999  0.9495700000000001  0.94278  1.0000
  C   C101      1.0  0.62571  0.9393099999999999  0.9560800000000002  1.0000
  C   C102      1.0  0.58895  0.05546000000000002  0.54675  1.0000
  C   C103      1.0  0.009479999999999926  0.6724  0.3572200000000001  1.0000
  C   C104      1.0  0.5919900000000001  0.55379  0.73619  1.0000
  C   C105      1.0  0.26092999999999994  0.32119999999999993  0.6461100000000002  1.0000
  C   C106      1.0  0.5264099999999999  0.9724900000000001  0.97468  1.0000
  C   C107      1.0  0.5545599999999999  0.117  0.58544  1.0000
  C   C108      1.0  0.56725  0.07318999999999998  0.48315000000000013  1.0000
  C   C109      1.0  0.09686999999999993  0.6810000000000003  0.33469  1.0000
  C   C110      1.0  0.5721300000000004  0.50717  0.7069200000000001  1.0000
  C   C111      1.0  0.55214  0.5546  0.809  1.0000
  C   C112      1.0  0.8574900000000001  0.40061  0.75409  1.0000
  C   C113      1.0  0.5033399999999999  0.19375  0.5592300000000001  1.0000
  C   C114      1.0  0.60282  0.011829999999999993  0.43841  1.0000
  C   C115      1.0  0.16695999999999991  0.64392  0.27909  1.0000
  C   C116      1.0  0.50596  0.47199  0.7476000000000003  1.0000
  C   C117      1.0  0.58769  0.5818199999999999  0.8498300000000001  1.0000
  C   C118      1.0  0.4840499999999998  0.20536000000000004  0.49648000000000003  1.0000
  C   C119      1.0  0.60209  0.03217999999999999  0.3682  1.0000
  C   C120      1.0  0.46121999999999996  0.4852999999999999  0.8168100000000001  1.0000
  C   C121      1.0  0.5257000000000001  0.6281299999999999  0.90302  1.0000
  C   C122      1.0  0.63789  0.97074  0.32915000000000005  1.0000
  C   C123      1.0  0.58215  0.11513000000000005  0.32893  1.0000
  C   C124      1.0  0.6751500000000002  0.8778999999999999  0.42911000000000005  1.0000
  C   C125      1.0  0.5632400000000001  0.64228  0.94599  1.0000
  C   C126      1.0  0.42385000000000017  0.66649  0.9069  1.0000
  C   C127      1.0  0.7168599999999999  0.56782  0.87849  1.0000
  C   C128      1.0  0.6772900000000001  0.89258  0.3591300000000001  1.0000
  C   C129      1.0  0.6606699999999999  0.6120300000000001  0.93315  1.0000
  C   C130      1.0  0.19867999999999994  0.9695000000000001  0.84694  1.0000
  C   C131      1.0  0.29729  0.67733  0.6883700000000001  1.0000
  C   C132      1.0  0.21085  0.04368  0.8477  1.0000
  C   C133      1.0  0.35412  0.63182  0.62832  1.0000
  C   C134      1.0  0.2930599999999999  0.03830999999999996  0.8574800000000002  1.0000
  C   C135      1.0  0.14048999999999992  0.11954000000000001  0.8405700000000002  1.0000
  C   C136      1.0  0.31268  0.60079  0.60081  1.0000
  C   C137      1.0  0.4510499999999999  0.6160000000000002  0.60086  1.0000
  C   C138      1.0  0.18786999999999993  0.5305299999999998  0.9245200000000002  1.0000
  C   C139      1.0  0.057009999999999984  0.80055  0.07765000000000001  1.0000
  C   C140      1.0  0.9287400000000001  0.89376  0.8126  1.0000
  C   C141      1.0  0.3008899999999998  0.10692999999999997  0.8630800000000001  1.0000
  C   C142      1.0  0.057559999999999945  0.12949  0.8209900000000001  1.0000
  C   C143      1.0  0.36775000000000013  0.55123  0.55014  1.0000
  C   C144      1.0  0.5061699999999999  0.5657100000000002  0.55085  1.0000
  C   C145      1.0  0.1846  0.44853000000000004  0.95132  1.0000
  C   C146      1.0  0.03413999999999995  0.82813  0.14472000000000002  1.0000
  C   C147      1.0  0.8789300000000001  0.94759  0.75974  1.0000
  C   C148      1.0  0.22531000000000004  0.17872999999999997  0.85873  1.0000
  C   C149      1.0  0.4665200000000001  0.5300200000000003  0.52561  1.0000
  C   C150      1.0  0.2500800000000001  0.38688999999999996  0.9135  1.0000
  C   C151      1.0  0.12354999999999992  0.42970000000000014  0.01656  1.0000
  C   C152      1.0  0.10765000000000005  0.81953  0.16839000000000007  1.0000
  C   C153      1.0  0.7841199999999999  0.99585  0.7815800000000003  1.0000
  C   C154      1.0  0.9210899999999999  0.9435399999999998  0.6874900000000003  1.0000
  C   C155      1.0  0.006669999999999974  0.10278999999999999  0.7446300000000001  1.0000
  C   C156      1.0  0.25464  0.30916000000000005  0.9418  1.0000
  C   C157      1.0  0.05472  0.49113  0.06081  1.0000
  C   C158      1.0  0.08665999999999999  0.8552  0.22531000000000007  1.0000
  C   C159      1.0  0.7322200000000001  0.030259999999999992  0.73346  1.0000
  C   C160      1.0  0.025149999999999915  0.91283  0.6561700000000003  1.0000
  C   C161      1.0  0.1899  0.29639  0.00592  1.0000
  C   C162      1.0  0.009589999999999965  0.4704  0.13149  1.0000
  C   C163      1.0  0.77746  0.014469999999999998  0.66495  1.0000
  C   C164      1.0  0.06907999999999985  0.8654400000000003  0.60261  1.0000
  C   C165      1.0  0.94543  0.53153  0.17029000000000002  1.0000
  C   C166      1.0  0.04324000000000002  0.38942  0.17216  1.0000
  C   C167      1.0  0.98066  0.62531  0.06935000000000001  1.0000
  C   C168      1.0  0.16517  0.84807  0.56916  1.0000
  C   C169      1.0  0.015650000000000063  0.82401  0.5928  1.0000
  C   C170      1.0  0.16623999999999978  0.92001  0.6466000000000002  1.0000
  C   C171      1.0  0.9320199999999998  0.6101800000000001  0.13959  1.0000
  C   C172      1.0  0.21461000000000013  0.87619  0.59125  1.0000
  N   N1        1.0  0.8262200000000001  0.68672  0.34125000000000005  1.0000
  N   N2        1.0  0.062200000000000005  0.59456  0.26555  1.0000
  N   N3        1.0  0.4841100000000001  0.8507899999999999  0.5417300000000003  1.0000
  N   N4        1.0  0.5175699999999999  0.47175000000000006  0.15282000000000007  1.0000
  N   N5        1.0  0.36322  0.06258000000000005  0.53308  1.0000
  N   N6        1.0  0.31715  0.4467499999999999  0.16748  1.0000
  N   N7        1.0  0.8523199999999999  0.8136500000000002  0.1558  1.0000
  N   N8        1.0  0.92084  0.90328  0.23761000000000002  1.0000
  N   N9        1.0  0.8717899999999998  0.64692  0.9591100000000001  1.0000
  N   N10       1.0  0.13052  0.026509999999999992  0.35943  1.0000
  N   N11       1.0  0.9589899999999999  0.4342  0.9712700000000001  1.0000
  N   N12       1.0  0.9263899999999999  0.06116999999999999  0.32553000000000004  1.0000
  N   N13       1.0  0.17836999999999992  0.31439999999999996  0.6574200000000002  1.0000
  N   N14       1.0  0.9422  0.40684999999999993  0.73444  1.0000
  N   N15       1.0  0.5138500000000001  0.14682  0.45984  1.0000
  N   N16       1.0  0.48603  0.52308  0.84768  1.0000
  N   N17       1.0  0.63722  0.93573  0.46814000000000006  1.0000
  N   N18       1.0  0.6815699999999998  0.5520800000000002  0.8378  1.0000
  N   N19       1.0  0.14710999999999988  0.18578  0.8468700000000001  1.0000
  N   N20       1.0  0.07819999999999998  0.09634  0.76512  1.0000
  N   N21       1.0  0.12548  0.35486  0.04213  1.0000
  N   N22       1.0  0.87041  0.97452  0.64167  1.0000
  N   N23       1.0  0.03879000000000002  0.56748  0.03058  1.0000
  N   N24       1.0  0.07328999999999998  0.9388200000000001  0.67799  1.0000
  O   O1        1.0  0.9949800000000001  0.41469999999999996  0.31885  1.0000
  O   O2        1.0  0.22324999999999995  0.2032800000000001  0.20409  1.0000
  O   O3        1.0  0.20852  0.17696  0.35  1.0000
  O   O4        1.0  0.10326000000000003  0.28895  0.40559  1.0000
  O   O5        1.0  0.21796  0.32248  0.30943  1.0000
  O   O6        1.0  0.0008099999999999357  0.22887000000000007  0.35688000000000003  1.0000
  O   O7        1.0  0.12203999999999998  0.37144  0.18167  1.0000
  O   O8        1.0  0.99161  0.34712  0.20445  1.0000
  O   O9        1.0  0.036739999999999905  0.46445000000000014  0.38354  1.0000
  O   O10       1.0  0.3604  0.19285000000000005  0.21464  1.0000
  O   O11       1.0  0.25985  0.04184999999999998  0.46149000000000007  1.0000
  O   O12       1.0  0.25089000000000017  0.23539000000000004  0.4327  1.0000
  O   O13       1.0  0.07549999999999991  0.23280999999999996  0.5655300000000002  1.0000
  O   O14       1.0  0.008650000000000008  0.16114  0.46463  1.0000
  O   O15       1.0  0.39156999999999986  0.31839  0.30183000000000004  1.0000
  O   O16       1.0  0.38461999999999996  0.06423999999999999  0.3752800000000001  1.0000
  O   O17       1.0  0.29178999999999994  0.41669000000000006  0.36634000000000005  1.0000
  O   O18       1.0  0.09962000000000001  0.34946  0.5329  1.0000
  O   O19       1.0  0.72813  0.08306  0.1872  1.0000
  O   O20       1.0  0.65202  0.29685  0.29206  1.0000
  O   O21       1.0  0.76662  0.30796  0.14912000000000003  1.0000
  O   O22       1.0  0.79387  0.20617000000000002  0.09087  1.0000
  O   O23       1.0  0.8571399999999999  0.17890000000000006  0.19984000000000005  1.0000
  O   O24       1.0  0.5912700000000001  0.28912999999999994  0.14951000000000003  1.0000
  O   O25       1.0  0.64482  0.14315  0.31831  1.0000
  O   O26       1.0  0.51506  0.14882000000000004  0.3013300000000001  1.0000
  O   O27       1.0  0.88085  0.035470000000000015  0.12321000000000001  1.0000
  O   O28       1.0  0.7802900000000004  0.31851  0.28607  1.0000
  O   O29       1.0  0.7686800000000001  0.45124000000000003  0.04639  1.0000
  O   O30       1.0  0.92109  0.26571  0.07329  1.0000
  O   O31       1.0  0.8777999999999999  0.26768000000000003  0.93467  1.0000
  O   O32       1.0  0.6346599999999999  0.34351000000000015  0.03621  1.0000
  O   O33       1.0  0.026629999999999994  0.18257  0.19831000000000001  1.0000
  O   O34       1.0  0.83724  0.4324900000000001  0.12956  1.0000
  O   O35       1.0  0.07179  0.08217  0.13931  1.0000
  O   O36       1.0  0.98319  0.15118999999999996  0.9703  1.0000
  O   O37       1.0  0.008019999999999914  0.58628  0.6813  1.0000
  O   O38       1.0  0.7754  0.7988099999999999  0.7966400000000001  1.0000
  O   O39       1.0  0.7908400000000001  0.8241  0.6518300000000002  1.0000
  O   O40       1.0  0.8999200000000003  0.71113  0.59552  1.0000
  O   O41       1.0  0.78299  0.6781200000000002  0.69096  1.0000
  O   O42       1.0  0.99634  0.77393  0.64619  1.0000
  O   O43       1.0  0.8729599999999996  0.63079  0.8210300000000003  1.0000
  O   O44       1.0  0.0028500000000000318  0.6557  0.7983  1.0000
  O   O45       1.0  0.9674600000000001  0.53543  0.61655  1.0000
  O   O46       1.0  0.6391699999999999  0.8073500000000001  0.78592  1.0000
  O   O47       1.0  0.7405600000000001  0.9575900000000002  0.53916  1.0000
  O   O48       1.0  0.7507000000000001  0.7648  0.56823  1.0000
  O   O49       1.0  0.9278599999999999  0.7679800000000002  0.43491  1.0000
  O   O50       1.0  0.99406  0.83846  0.53661  1.0000
  O   O51       1.0  0.6112199999999998  0.6779700000000002  0.7011800000000002  1.0000
  O   O52       1.0  0.6165999999999999  0.9342199999999999  0.6258500000000001  1.0000
  O   O53       1.0  0.7140000000000001  0.5803  0.63655  1.0000
  O   O54       1.0  0.90145  0.65248  0.46728  1.0000
  O   O55       1.0  0.26978999999999986  0.9162000000000002  0.8155600000000002  1.0000
  O   O56       1.0  0.33912000000000003  0.7035700000000001  0.71087  1.0000
  O   O57       1.0  0.2301200000000001  0.6922300000000001  0.85126  1.0000
  O   O58       1.0  0.20306999999999997  0.79442  0.9098300000000001  1.0000
  O   O59       1.0  0.13798999999999995  0.8239900000000001  0.8019200000000001  1.0000
  O   O60       1.0  0.40742  0.7092400000000002  0.8502  1.0000
  O   O61       1.0  0.3543099999999999  0.85488  0.68261  1.0000
  O   O62       1.0  0.4854599999999997  0.8478600000000004  0.69844  1.0000
  O   O63       1.0  0.11743999999999993  0.9650000000000001  0.8802000000000001  1.0000
  O   O64       1.0  0.21021999999999988  0.6851500000000003  0.7139500000000002  1.0000
  O   O65       1.0  0.23033000000000003  0.5490800000000001  0.95397  1.0000
  O   O66       1.0  0.07464999999999997  0.73631  0.92881  1.0000
  O   O67       1.0  0.11969999999999999  0.73179  0.06813  1.0000
  O   O68       1.0  0.36137999999999987  0.65589  0.9636000000000001  1.0000
  O   O69       1.0  0.9681300000000002  0.82089  0.80518  1.0000
  O   O70       1.0  0.15705  0.5707  0.87293  1.0000
  O   O71       1.0  0.92454  0.9213200000000002  0.86366  1.0000
  O   O72       1.0  0.016019999999999954  0.84943  0.03237000000000001  1.0000
