data_image0
_chemical_formula_structural       Cu6H120C168N24
_chemical_formula_sum              "Cu6 H120 C168 N24"
_cell_length_a       22.15721
_cell_length_b       22.15721
_cell_length_c       22.15721
_cell_angle_alpha    90.0
_cell_angle_beta     90.0
_cell_angle_gamma    90.0

_symmetry_space_group_name_H-M    'P 1'
_symmetry_Int_Tables_number       1

loop_
  _symmetry_equiv_pos_as_xyz
  'x,y,z'

loop_
  _atom_site_type_symbol
  _atom_site_label
  _atom_site_symmetry_multiplicity
  _atom_site_fract_x
  _atom_site_fract_y
  _atom_site_fract_z
  _atom_site_occupancy
  Cu  Cu1       1.0  0.4999999999999999  0.69838  0.0  1.0000
  Cu  Cu2       1.0  0.4999999999999999  0.30162  0.9999899999999999  1.0000
  Cu  Cu3       1.0  0.0  0.4999999999999999  0.69838  1.0000
  Cu  Cu4       1.0  1e-05  0.4999999999999999  0.30162  1.0000
  Cu  Cu5       1.0  0.69838  0.0  0.4999999999999999  1.0000
  Cu  Cu6       1.0  0.30162  0.0  0.4999999999999999  1.0000
  H   H1        1.0  0.56628  0.79713  0.06608  1.0000
  H   H2        1.0  0.6365999999999999  0.8128299999999998  0.1514  1.0000
  H   H3        1.0  0.65238  0.619  0.16512  1.0000
  H   H4        1.0  0.5813999999999999  0.6112099999999999  0.07916999999999999  1.0000
  H   H5        1.0  0.7483899999999999  0.64814  0.19519  1.0000
  H   H6        1.0  0.43372  0.20286999999999997  0.06608  1.0000
  H   H7        1.0  0.36339999999999995  0.18716999999999995  0.1514  1.0000
  H   H8        1.0  0.34761999999999993  0.381  0.16512  1.0000
  H   H9        1.0  0.41859999999999997  0.38878  0.07916999999999999  1.0000
  H   H10       1.0  0.25161  0.35186  0.19519  1.0000
  H   H11       1.0  0.43372  0.79713  0.9339199999999999  1.0000
  H   H12       1.0  0.36339999999999995  0.8128299999999998  0.8486  1.0000
  H   H13       1.0  0.34761999999999993  0.619  0.8348799999999997  1.0000
  H   H14       1.0  0.41859999999999997  0.6112099999999999  0.9208299999999999  1.0000
  H   H15       1.0  0.25161  0.64814  0.80481  1.0000
  H   H16       1.0  0.56628  0.20286999999999997  0.9339199999999999  1.0000
  H   H17       1.0  0.6365999999999999  0.18716999999999995  0.8486  1.0000
  H   H18       1.0  0.65238  0.381  0.8348799999999997  1.0000
  H   H19       1.0  0.5813999999999999  0.38878  0.9208299999999999  1.0000
  H   H20       1.0  0.7483899999999999  0.35186  0.80481  1.0000
  H   H21       1.0  0.06608  0.56628  0.79713  1.0000
  H   H22       1.0  0.1514  0.6365999999999999  0.8128299999999998  1.0000
  H   H23       1.0  0.16512  0.65238  0.619  1.0000
  H   H24       1.0  0.07916999999999999  0.5813999999999999  0.6112099999999999  1.0000
  H   H25       1.0  0.19519  0.7483899999999999  0.64814  1.0000
  H   H26       1.0  0.06608  0.43372  0.20286999999999997  1.0000
  H   H27       1.0  0.1514  0.36339999999999995  0.18716999999999995  1.0000
  H   H28       1.0  0.16512  0.34761999999999993  0.381  1.0000
  H   H29       1.0  0.07916999999999999  0.41859999999999997  0.38878999999999997  1.0000
  H   H30       1.0  0.19519  0.25161  0.35186  1.0000
  H   H31       1.0  0.9339199999999999  0.43372  0.79713  1.0000
  H   H32       1.0  0.8486  0.36339999999999995  0.8128299999999998  1.0000
  H   H33       1.0  0.8348799999999997  0.34761999999999993  0.619  1.0000
  H   H34       1.0  0.9208299999999999  0.41859999999999997  0.6112099999999999  1.0000
  H   H35       1.0  0.80481  0.25161  0.64814  1.0000
  H   H36       1.0  0.9339199999999999  0.56628  0.20286999999999997  1.0000
  H   H37       1.0  0.8486  0.6365999999999999  0.18716999999999995  1.0000
  H   H38       1.0  0.8348799999999997  0.65238  0.381  1.0000
  H   H39       1.0  0.9208299999999999  0.5813999999999999  0.38878  1.0000
  H   H40       1.0  0.80481  0.7483899999999999  0.35186  1.0000
  H   H41       1.0  0.79713  0.06608  0.56628  1.0000
  H   H42       1.0  0.8128299999999998  0.1514  0.6365999999999999  1.0000
  H   H43       1.0  0.619  0.16512  0.65238  1.0000
  H   H44       1.0  0.6112199999999999  0.07916999999999999  0.5813999999999999  1.0000
  H   H45       1.0  0.64814  0.19519  0.7483899999999999  1.0000
  H   H46       1.0  0.20286999999999997  0.06608  0.43372  1.0000
  H   H47       1.0  0.18716999999999995  0.1514  0.36339999999999995  1.0000
  H   H48       1.0  0.381  0.16512  0.34761999999999993  1.0000
  H   H49       1.0  0.38878999999999997  0.07916999999999999  0.41859999999999997  1.0000
  H   H50       1.0  0.35186  0.19519  0.25161  1.0000
  H   H51       1.0  0.79713  0.9339199999999999  0.43372  1.0000
  H   H52       1.0  0.8128299999999998  0.8486  0.36339999999999995  1.0000
  H   H53       1.0  0.619  0.8348799999999997  0.34761999999999993  1.0000
  H   H54       1.0  0.6112199999999999  0.9208299999999999  0.41859999999999997  1.0000
  H   H55       1.0  0.64814  0.80481  0.25161  1.0000
  H   H56       1.0  0.20286999999999997  0.9339199999999999  0.56628  1.0000
  H   H57       1.0  0.18716999999999995  0.8486  0.6365999999999999  1.0000
  H   H58       1.0  0.381  0.8348799999999997  0.65238  1.0000
  H   H59       1.0  0.38878999999999997  0.9208299999999999  0.5813999999999999  1.0000
  H   H60       1.0  0.35186  0.80481  0.7483899999999999  1.0000
  H   H61       1.0  0.43372  0.20286999999999997  0.9339199999999999  1.0000
  H   H62       1.0  0.36339999999999995  0.18716999999999995  0.8486  1.0000
  H   H63       1.0  0.34761999999999993  0.381  0.8348799999999997  1.0000
  H   H64       1.0  0.41859999999999997  0.38878  0.9208299999999999  1.0000
  H   H65       1.0  0.25161  0.35186  0.80481  1.0000
  H   H66       1.0  0.56628  0.79713  0.9339199999999999  1.0000
  H   H67       1.0  0.6365999999999999  0.8128299999999998  0.8486  1.0000
  H   H68       1.0  0.65238  0.619  0.8348799999999997  1.0000
  H   H69       1.0  0.5813999999999999  0.6112099999999999  0.9208299999999999  1.0000
  H   H70       1.0  0.7483899999999999  0.64814  0.80481  1.0000
  H   H71       1.0  0.56628  0.20286999999999997  0.06608  1.0000
  H   H72       1.0  0.6365999999999999  0.18716999999999995  0.1514  1.0000
  H   H73       1.0  0.65238  0.381  0.16512  1.0000
  H   H74       1.0  0.5813999999999999  0.38878  0.07916999999999999  1.0000
  H   H75       1.0  0.7483899999999999  0.35186  0.19519  1.0000
  H   H76       1.0  0.43372  0.79713  0.06608  1.0000
  H   H77       1.0  0.36339999999999995  0.8128299999999998  0.1514  1.0000
  H   H78       1.0  0.34761999999999993  0.619  0.16512  1.0000
  H   H79       1.0  0.41859999999999997  0.6112099999999999  0.07916999999999999  1.0000
  H   H80       1.0  0.25161  0.64814  0.19519  1.0000
  H   H81       1.0  0.9339199999999999  0.43372  0.20286999999999997  1.0000
  H   H82       1.0  0.8486  0.36339999999999995  0.18716999999999995  1.0000
  H   H83       1.0  0.8348799999999997  0.34761999999999993  0.381  1.0000
  H   H84       1.0  0.9208299999999999  0.41859999999999997  0.38878  1.0000
  H   H85       1.0  0.80481  0.25161  0.35186  1.0000
  H   H86       1.0  0.9339199999999999  0.56628  0.79713  1.0000
  H   H87       1.0  0.8486  0.6365999999999999  0.8128299999999998  1.0000
  H   H88       1.0  0.8348799999999997  0.65238  0.619  1.0000
  H   H89       1.0  0.9208299999999999  0.5813999999999999  0.6112099999999999  1.0000
  H   H90       1.0  0.80481  0.7483899999999999  0.64814  1.0000
  H   H91       1.0  0.06608  0.56628  0.20286999999999997  1.0000
  H   H92       1.0  0.1514  0.6365999999999999  0.18716999999999995  1.0000
  H   H93       1.0  0.16512  0.65238  0.381  1.0000
  H   H94       1.0  0.07916999999999999  0.5813999999999999  0.38878  1.0000
  H   H95       1.0  0.19519  0.7483899999999999  0.35186  1.0000
  H   H96       1.0  0.06608  0.43372  0.79713  1.0000
  H   H97       1.0  0.1514  0.36339999999999995  0.8128299999999998  1.0000
  H   H98       1.0  0.16512  0.34761999999999993  0.619  1.0000
  H   H99       1.0  0.07916999999999999  0.41859999999999997  0.6112099999999999  1.0000
  H   H100      1.0  0.19519  0.25161  0.64814  1.0000
  H   H101      1.0  0.20286999999999997  0.9339199999999999  0.43372  1.0000
  H   H102      1.0  0.18716999999999995  0.8486  0.36339999999999995  1.0000
  H   H103      1.0  0.381  0.8348799999999997  0.34761999999999993  1.0000
  H   H104      1.0  0.38878999999999997  0.9208299999999999  0.41859999999999997  1.0000
  H   H105      1.0  0.35186  0.80481  0.25161  1.0000
  H   H106      1.0  0.79713  0.9339199999999999  0.56628  1.0000
  H   H107      1.0  0.8128299999999998  0.8486  0.6365999999999999  1.0000
  H   H108      1.0  0.619  0.8348799999999997  0.65238  1.0000
  H   H109      1.0  0.6112199999999999  0.9208299999999999  0.5813999999999999  1.0000
  H   H110      1.0  0.64814  0.80481  0.7483899999999999  1.0000
  H   H111      1.0  0.20286999999999997  0.06608  0.56628  1.0000
  H   H112      1.0  0.18716999999999995  0.1514  0.6365999999999999  1.0000
  H   H113      1.0  0.381  0.16512  0.65238  1.0000
  H   H114      1.0  0.38878999999999997  0.07916999999999999  0.5813999999999999  1.0000
  H   H115      1.0  0.35186  0.19519  0.7483899999999999  1.0000
  H   H116      1.0  0.79713  0.06608  0.43372  1.0000
  H   H117      1.0  0.8128299999999998  0.1514  0.36339999999999995  1.0000
  H   H118      1.0  0.619  0.16512  0.34761999999999993  1.0000
  H   H119      1.0  0.6112199999999999  0.07916999999999999  0.41859999999999997  1.0000
  H   H120      1.0  0.64814  0.19519  0.25161  1.0000
  C   C1        1.0  0.58571  0.75854  0.08954  1.0000
  C   C2        1.0  0.62491  0.76723  0.13749  1.0000
  C   C3        1.0  0.65136  0.71717  0.16681  1.0000
  C   C4        1.0  0.63497  0.65984  0.14415  1.0000
  C   C5        1.0  0.5947899999999999  0.6552899999999999  0.0963  1.0000
  C   C6        1.0  0.69304  0.72504  0.21769  1.0000
  C   C7        1.0  0.7417199999999999  0.68519  0.22662999999999997  1.0000
  C   C8        1.0  0.41429999999999995  0.24146  0.08954  1.0000
  C   C9        1.0  0.3750899999999999  0.23276999999999995  0.13749  1.0000
  C   C10       1.0  0.34864  0.28283  0.16681  1.0000
  C   C11       1.0  0.36503  0.34015999999999996  0.14415  1.0000
  C   C12       1.0  0.40520999999999996  0.34471  0.0963  1.0000
  C   C13       1.0  0.30696  0.27496  0.21769  1.0000
  C   C14       1.0  0.25828  0.31481  0.22662999999999997  1.0000
  C   C15       1.0  0.41429  0.75854  0.91046  1.0000
  C   C16       1.0  0.3750899999999999  0.76723  0.8625099999999998  1.0000
  C   C17       1.0  0.34864  0.71717  0.8331899999999999  1.0000
  C   C18       1.0  0.36503  0.65984  0.8558499999999998  1.0000
  C   C19       1.0  0.40520999999999996  0.6552899999999999  0.9037  1.0000
  C   C20       1.0  0.30696  0.72504  0.78231  1.0000
  C   C21       1.0  0.25828  0.68519  0.77337  1.0000
  C   C22       1.0  0.58571  0.24146  0.91046  1.0000
  C   C23       1.0  0.62491  0.23276999999999995  0.8625099999999998  1.0000
  C   C24       1.0  0.65136  0.28283  0.8331899999999999  1.0000
  C   C25       1.0  0.63497  0.34015999999999996  0.8558499999999998  1.0000
  C   C26       1.0  0.5947899999999999  0.34471  0.9037  1.0000
  C   C27       1.0  0.69304  0.27496  0.78231  1.0000
  C   C28       1.0  0.7417199999999999  0.31481  0.77337  1.0000
  C   C29       1.0  0.08954  0.58571  0.75854  1.0000
  C   C30       1.0  0.13749  0.62491  0.76723  1.0000
  C   C31       1.0  0.16681  0.65136  0.71717  1.0000
  C   C32       1.0  0.14415  0.63497  0.65984  1.0000
  C   C33       1.0  0.0963  0.5947899999999999  0.6552899999999999  1.0000
  C   C34       1.0  0.21769  0.69304  0.72504  1.0000
  C   C35       1.0  0.22662999999999997  0.7417199999999999  0.68519  1.0000
  C   C36       1.0  0.08954  0.41429  0.24146  1.0000
  C   C37       1.0  0.13749  0.3750899999999999  0.23276999999999995  1.0000
  C   C38       1.0  0.16681  0.34864  0.28283  1.0000
  C   C39       1.0  0.14415  0.36503  0.34015999999999996  1.0000
  C   C40       1.0  0.0963  0.40520999999999996  0.34471  1.0000
  C   C41       1.0  0.21769  0.30696  0.27496  1.0000
  C   C42       1.0  0.22662999999999997  0.25828  0.31481  1.0000
  C   C43       1.0  0.91046  0.41429  0.75854  1.0000
  C   C44       1.0  0.8625099999999998  0.3750899999999999  0.76723  1.0000
  C   C45       1.0  0.8331899999999999  0.34864  0.71717  1.0000
  C   C46       1.0  0.8558499999999998  0.36503  0.65984  1.0000
  C   C47       1.0  0.9037  0.40520999999999996  0.6552899999999999  1.0000
  C   C48       1.0  0.78231  0.30696  0.72504  1.0000
  C   C49       1.0  0.77337  0.25828  0.68519  1.0000
  C   C50       1.0  0.91046  0.5857  0.24146  1.0000
  C   C51       1.0  0.8625099999999998  0.62491  0.23276999999999995  1.0000
  C   C52       1.0  0.8331899999999999  0.65136  0.28283  1.0000
  C   C53       1.0  0.8558499999999998  0.63497  0.34015999999999996  1.0000
  C   C54       1.0  0.9037  0.5947899999999999  0.34471  1.0000
  C   C55       1.0  0.78231  0.69304  0.27496  1.0000
  C   C56       1.0  0.77337  0.7417199999999999  0.31481  1.0000
  C   C57       1.0  0.75854  0.08954  0.58571  1.0000
  C   C58       1.0  0.76723  0.13749  0.62491  1.0000
  C   C59       1.0  0.71717  0.16681  0.65136  1.0000
  C   C60       1.0  0.65984  0.14415  0.63497  1.0000
  C   C61       1.0  0.6552899999999999  0.0963  0.5947899999999999  1.0000
  C   C62       1.0  0.72504  0.21769  0.69304  1.0000
  C   C63       1.0  0.68519  0.22662999999999997  0.7417199999999999  1.0000
  C   C64       1.0  0.24146  0.08954  0.41429  1.0000
  C   C65       1.0  0.23276999999999995  0.13749  0.3750899999999999  1.0000
  C   C66       1.0  0.28283  0.16681  0.34864  1.0000
  C   C67       1.0  0.34015999999999996  0.14415  0.36503  1.0000
  C   C68       1.0  0.34471  0.0963  0.40520999999999996  1.0000
  C   C69       1.0  0.27496  0.21769  0.30696  1.0000
  C   C70       1.0  0.31481  0.22662999999999997  0.25827  1.0000
  C   C71       1.0  0.75854  0.91046  0.41429  1.0000
  C   C72       1.0  0.76723  0.8625099999999998  0.3750899999999999  1.0000
  C   C73       1.0  0.71717  0.8331899999999999  0.34864  1.0000
  C   C74       1.0  0.65984  0.8558499999999998  0.36503  1.0000
  C   C75       1.0  0.6552899999999999  0.9037  0.40520999999999996  1.0000
  C   C76       1.0  0.72504  0.78231  0.30696  1.0000
  C   C77       1.0  0.68519  0.77337  0.25828  1.0000
  C   C78       1.0  0.24146  0.91046  0.58571  1.0000
  C   C79       1.0  0.23276999999999995  0.8625099999999998  0.62491  1.0000
  C   C80       1.0  0.28283  0.8331899999999999  0.65136  1.0000
  C   C81       1.0  0.34015999999999996  0.8558499999999998  0.63497  1.0000
  C   C82       1.0  0.34471  0.9037  0.5947899999999999  1.0000
  C   C83       1.0  0.27496  0.78231  0.69304  1.0000
  C   C84       1.0  0.31481  0.77337  0.7417199999999999  1.0000
  C   C85       1.0  0.41429  0.24146  0.91046  1.0000
  C   C86       1.0  0.3750899999999999  0.23276999999999995  0.8625099999999998  1.0000
  C   C87       1.0  0.34864  0.28283  0.8331899999999999  1.0000
  C   C88       1.0  0.36503  0.34015999999999996  0.8558499999999998  1.0000
  C   C89       1.0  0.40520999999999996  0.34471  0.9037  1.0000
  C   C90       1.0  0.30696  0.27496  0.78231  1.0000
  C   C91       1.0  0.25828  0.31481  0.77337  1.0000
  C   C92       1.0  0.58571  0.75854  0.91046  1.0000
  C   C93       1.0  0.62491  0.76723  0.8625099999999998  1.0000
  C   C94       1.0  0.65136  0.71717  0.8331899999999999  1.0000
  C   C95       1.0  0.63497  0.65984  0.8558499999999998  1.0000
  C   C96       1.0  0.5947899999999999  0.6552899999999999  0.9037  1.0000
  C   C97       1.0  0.69304  0.72504  0.78231  1.0000
  C   C98       1.0  0.7417299999999999  0.68519  0.77337  1.0000
  C   C99       1.0  0.58571  0.24146  0.08954  1.0000
  C   C100      1.0  0.62491  0.23276999999999995  0.13749  1.0000
  C   C101      1.0  0.65136  0.28283  0.16681  1.0000
  C   C102      1.0  0.63497  0.34015999999999996  0.14415  1.0000
  C   C103      1.0  0.5947899999999999  0.34471  0.0963  1.0000
  C   C104      1.0  0.69304  0.27496  0.21769  1.0000
  C   C105      1.0  0.7417199999999999  0.31481  0.22662999999999997  1.0000
  C   C106      1.0  0.41429  0.75854  0.08954  1.0000
  C   C107      1.0  0.3750899999999999  0.76723  0.13749  1.0000
  C   C108      1.0  0.34864  0.71717  0.16681  1.0000
  C   C109      1.0  0.36503  0.65984  0.14415  1.0000
  C   C110      1.0  0.40520999999999996  0.6552899999999999  0.0963  1.0000
  C   C111      1.0  0.30696  0.72504  0.21769  1.0000
  C   C112      1.0  0.25828  0.68519  0.22662999999999997  1.0000
  C   C113      1.0  0.91046  0.41429  0.24146  1.0000
  C   C114      1.0  0.8625099999999998  0.3750899999999999  0.23276999999999995  1.0000
  C   C115      1.0  0.8331899999999999  0.34864  0.28283  1.0000
  C   C116      1.0  0.8558499999999998  0.36503  0.34015999999999996  1.0000
  C   C117      1.0  0.9037  0.40520999999999996  0.34471  1.0000
  C   C118      1.0  0.78231  0.30696  0.27496  1.0000
  C   C119      1.0  0.77337  0.25828  0.31481  1.0000
  C   C120      1.0  0.91046  0.58571  0.75854  1.0000
  C   C121      1.0  0.8625099999999998  0.62491  0.76723  1.0000
  C   C122      1.0  0.8331899999999999  0.65136  0.71717  1.0000
  C   C123      1.0  0.8558499999999998  0.63497  0.65984  1.0000
  C   C124      1.0  0.9037  0.5947899999999999  0.6552899999999999  1.0000
  C   C125      1.0  0.78231  0.69304  0.72504  1.0000
  C   C126      1.0  0.77337  0.7417199999999999  0.68519  1.0000
  C   C127      1.0  0.08954  0.58571  0.24146  1.0000
  C   C128      1.0  0.13749  0.62491  0.23276999999999995  1.0000
  C   C129      1.0  0.16681  0.65136  0.28283  1.0000
  C   C130      1.0  0.14415  0.63497  0.34015999999999996  1.0000
  C   C131      1.0  0.0963  0.5947899999999999  0.34471  1.0000
  C   C132      1.0  0.21769  0.69304  0.27496  1.0000
  C   C133      1.0  0.22662999999999997  0.7417199999999999  0.31481  1.0000
  C   C134      1.0  0.08954  0.41429  0.75854  1.0000
  C   C135      1.0  0.13749  0.3750899999999999  0.76723  1.0000
  C   C136      1.0  0.16681  0.34864  0.71717  1.0000
  C   C137      1.0  0.14415  0.36503  0.65984  1.0000
  C   C138      1.0  0.0963  0.40520999999999996  0.6552899999999999  1.0000
  C   C139      1.0  0.21769  0.30696  0.72504  1.0000
  C   C140      1.0  0.22662999999999997  0.25828  0.68519  1.0000
  C   C141      1.0  0.24146  0.91046  0.41429  1.0000
  C   C142      1.0  0.23276999999999995  0.8625099999999998  0.3750899999999999  1.0000
  C   C143      1.0  0.28283  0.8331899999999999  0.34864  1.0000
  C   C144      1.0  0.34015999999999996  0.8558499999999998  0.36503  1.0000
  C   C145      1.0  0.34471  0.9037  0.40520999999999996  1.0000
  C   C146      1.0  0.27496  0.78231  0.30696  1.0000
  C   C147      1.0  0.31481  0.77337  0.25827  1.0000
  C   C148      1.0  0.75854  0.91046  0.58571  1.0000
  C   C149      1.0  0.76723  0.8625099999999998  0.62491  1.0000
  C   C150      1.0  0.71717  0.8331899999999999  0.65136  1.0000
  C   C151      1.0  0.65984  0.8558499999999998  0.63497  1.0000
  C   C152      1.0  0.6552899999999999  0.9037  0.5947899999999999  1.0000
  C   C153      1.0  0.72504  0.78231  0.69304  1.0000
  C   C154      1.0  0.68519  0.77337  0.7417199999999999  1.0000
  C   C155      1.0  0.24146  0.08954  0.58571  1.0000
  C   C156      1.0  0.23276999999999995  0.13749  0.62491  1.0000
  C   C157      1.0  0.28283  0.16681  0.65136  1.0000
  C   C158      1.0  0.34015999999999996  0.14415  0.63497  1.0000
  C   C159      1.0  0.34471  0.0963  0.5947899999999999  1.0000
  C   C160      1.0  0.27496  0.21769  0.69304  1.0000
  C   C161      1.0  0.31481  0.22662999999999997  0.7417199999999999  1.0000
  C   C162      1.0  0.75854  0.08954  0.41429  1.0000
  C   C163      1.0  0.76723  0.13749  0.3750899999999999  1.0000
  C   C164      1.0  0.71717  0.16681  0.34864  1.0000
  C   C165      1.0  0.65984  0.14415  0.36503  1.0000
  C   C166      1.0  0.6552899999999999  0.0963  0.40520999999999996  1.0000
  C   C167      1.0  0.72504  0.21769  0.30696  1.0000
  C   C168      1.0  0.68519  0.22662999999999997  0.25828  1.0000
  N   N1        1.0  0.5695399999999999  0.7034599999999999  0.0683  1.0000
  N   N2        1.0  0.43045999999999995  0.29654  0.0683  1.0000
  N   N3        1.0  0.43045999999999995  0.7034599999999999  0.9316999999999998  1.0000
  N   N4        1.0  0.5695399999999999  0.29654  0.9316999999999998  1.0000
  N   N5        1.0  0.0683  0.5695399999999999  0.7034599999999999  1.0000
  N   N6        1.0  0.0683  0.43045999999999995  0.29654  1.0000
  N   N7        1.0  0.9316999999999998  0.43045999999999995  0.7034599999999999  1.0000
  N   N8        1.0  0.9316999999999998  0.5695399999999999  0.29654  1.0000
  N   N9        1.0  0.7034599999999999  0.0683  0.5695399999999999  1.0000
  N   N10       1.0  0.29654  0.0683  0.43045999999999995  1.0000
  N   N11       1.0  0.7034599999999999  0.9316999999999998  0.43045999999999995  1.0000
  N   N12       1.0  0.29654  0.9316999999999998  0.5695399999999999  1.0000
  N   N13       1.0  0.43045999999999995  0.29654  0.9316999999999998  1.0000
  N   N14       1.0  0.5695399999999999  0.7034599999999999  0.9316999999999998  1.0000
  N   N15       1.0  0.5695399999999999  0.29654  0.0683  1.0000
  N   N16       1.0  0.43045999999999995  0.7034599999999999  0.0683  1.0000
  N   N17       1.0  0.9316999999999998  0.43045999999999995  0.29654  1.0000
  N   N18       1.0  0.9316999999999998  0.5695399999999999  0.7034599999999999  1.0000
  N   N19       1.0  0.0683  0.5695399999999999  0.29654  1.0000
  N   N20       1.0  0.0683  0.43045999999999995  0.7034599999999999  1.0000
  N   N21       1.0  0.29654  0.9316999999999998  0.43045999999999995  1.0000
  N   N22       1.0  0.7034599999999999  0.9316999999999998  0.5695399999999999  1.0000
  N   N23       1.0  0.29654  0.0683  0.5695399999999999  1.0000
  N   N24       1.0  0.7034599999999999  0.0683  0.43045999999999995  1.0000
