data_image0
_chemical_formula_structural       Cu6H96C96N24O24
_chemical_formula_sum              "Cu6 H96 C96 N24 O24"
_cell_length_a       10.25259
_cell_length_b       13.833499999999999
_cell_length_c       22.85832
_cell_angle_alpha    97.78405
_cell_angle_beta     89.97492999999999
_cell_angle_gamma    112.0197

_symmetry_space_group_name_H-M    'P 1'
_symmetry_Int_Tables_number       1

loop_
  _symmetry_equiv_pos_as_xyz
  'x,y,z'

loop_
  _atom_site_type_symbol
  _atom_site_label
  _atom_site_symmetry_multiplicity
  _atom_site_fract_x
  _atom_site_fract_y
  _atom_site_fract_z
  _atom_site_occupancy
  Cu  Cu1       1.0  0.8892  0.59039  0.45779  1.0000
  Cu  Cu2       1.0  0.2988299999999999  0.40962  0.04189  1.0000
  Cu  Cu3       1.0  0.11080000000000004  0.4096100000000001  0.5422  1.0000
  Cu  Cu4       1.0  0.70117  0.59038  0.9581  1.0000
  Cu  Cu5       1.0  0.61118  0.000519999999999996  0.25016  1.0000
  Cu  Cu6       1.0  0.3888199999999999  0.99948  0.74984  1.0000
  H   H1        1.0  0.23738999999999996  0.7274  0.36855  1.0000
  H   H2        1.0  0.4443499999999999  0.5928  0.47905999999999993  1.0000
  H   H3        1.0  0.6766099999999998  0.78285  0.35124  1.0000
  H   H4        1.0  0.57813  0.20361  0.319  1.0000
  H   H5        1.0  0.70338  0.9764800000000002  0.38036  1.0000
  H   H6        1.0  0.6323399999999999  0.25448  0.44236  1.0000
  H   H7        1.0  0.74847  0.04075000000000003  0.48817  1.0000
  H   H8        1.0  0.7634699999999999  0.17081000000000005  0.51523  1.0000
  H   H9        1.0  0.57186  0.04200000000000001  0.56275  1.0000
  H   H10       1.0  0.50359  0.11181000000000002  0.52115  1.0000
  H   H11       1.0  0.99487  0.61265  0.32869  1.0000
  H   H12       1.0  0.62509  0.39256  0.38454999999999995  1.0000
  H   H13       1.0  0.61817  0.35878000000000004  0.26076  1.0000
  H   H14       1.0  0.9670199999999999  0.56556  0.21983  1.0000
  H   H15       1.0  0.8489399999999998  0.4374  0.19006  1.0000
  H   H16       1.0  0.65352  0.50018  0.18303  1.0000
  H   H17       1.0  0.79698  0.56863  0.14357  1.0000
  H   H18       1.0  0.73047  0.65224  0.26779  1.0000
  H   H19       1.0  0.87663  0.71985  0.22877  1.0000
  H   H20       1.0  0.6835399999999999  0.78537  0.21763  1.0000
  H   H21       1.0  0.5646  0.65766  0.18978999999999996  1.0000
  H   H22       1.0  0.55589  0.58694  0.08303  1.0000
  H   H23       1.0  0.90655  0.8649000000000001  0.14669  1.0000
  H   H24       1.0  0.9219699999999998  0.8094  0.02511  1.0000
  H   H25       1.0  0.50842  0.27409  0.13061  1.0000
  H   H26       1.0  0.85333  0.40609000000000006  0.0203  1.0000
  H   H27       1.0  0.89011  0.21728999999999998  0.14934  1.0000
  H   H28       1.0  0.37481  0.79645  0.18128999999999998  1.0000
  H   H29       1.0  0.7276099999999999  0.025920000000000006  0.1199  1.0000
  H   H30       1.0  0.3790899999999999  0.74524  0.05807  1.0000
  H   H31       1.0  0.7085600000000001  0.9608400000000001  0.011849999999999998  1.0000
  H   H32       1.0  0.59281  0.83039  0.9851  1.0000
  H   H33       1.0  0.53014  0.9582000000000002  0.9373399999999998  1.0000
  H   H34       1.0  0.3915  0.88779  0.97889  1.0000
  H   H35       1.0  0.38197  0.38730000000000003  0.17171  1.0000
  H   H36       1.0  0.23271  0.60562  0.11501  1.0000
  H   H37       1.0  0.2602  0.6405900000000002  0.23881999999999995  1.0000
  H   H38       1.0  0.40209000000000006  0.4354600000000001  0.28038  1.0000
  H   H39       1.0  0.41295999999999994  0.56354  0.30988  1.0000
  H   H40       1.0  0.15387  0.50003  0.31691  1.0000
  H   H41       1.0  0.22842000000000004  0.4319700000000001  0.35651  1.0000
  H   H42       1.0  0.07773000000000002  0.34808000000000006  0.23227  1.0000
  H   H43       1.0  0.156  0.28073  0.27122  1.0000
  H   H44       1.0  0.8963499999999999  0.21492000000000006  0.28261  1.0000
  H   H45       1.0  0.9066299999999999  0.3425500000000001  0.31047  1.0000
  H   H46       1.0  0.96824  0.4126  0.41735  1.0000
  H   H47       1.0  0.042249999999999996  0.13675  0.35308  1.0000
  H   H48       1.0  0.11258  0.19148  0.47471  1.0000
  H   H49       1.0  0.7626000000000001  0.27260000000000006  0.63145  1.0000
  H   H50       1.0  0.55565  0.40720000000000006  0.52093  1.0000
  H   H51       1.0  0.32339  0.21714999999999998  0.6487599999999999  1.0000
  H   H52       1.0  0.42187000000000013  0.79639  0.681  1.0000
  H   H53       1.0  0.29662  0.02352  0.61964  1.0000
  H   H54       1.0  0.3676600000000001  0.7455200000000002  0.55764  1.0000
  H   H55       1.0  0.25151999999999997  0.9592500000000002  0.51183  1.0000
  H   H56       1.0  0.23651999999999995  0.82919  0.48476  1.0000
  H   H57       1.0  0.4281399999999999  0.958  0.43724  1.0000
  H   H58       1.0  0.4964  0.88819  0.47884999999999994  1.0000
  H   H59       1.0  0.005129999999999998  0.38735  0.67131  1.0000
  H   H60       1.0  0.3749  0.60745  0.61544  1.0000
  H   H61       1.0  0.3818200000000001  0.6412200000000001  0.73924  1.0000
  H   H62       1.0  0.03298000000000002  0.4344400000000001  0.78017  1.0000
  H   H63       1.0  0.15104999999999993  0.5626  0.80994  1.0000
  H   H64       1.0  0.34647  0.49982  0.81697  1.0000
  H   H65       1.0  0.20302000000000003  0.4313700000000001  0.85643  1.0000
  H   H66       1.0  0.26952  0.34776  0.73221  1.0000
  H   H67       1.0  0.12336  0.28015  0.77122  1.0000
  H   H68       1.0  0.3164600000000001  0.21463000000000002  0.7823599999999999  1.0000
  H   H69       1.0  0.43539999999999995  0.3423400000000001  0.81021  1.0000
  H   H70       1.0  0.4441  0.41306000000000004  0.9169599999999999  1.0000
  H   H71       1.0  0.09344000000000001  0.13510000000000005  0.85331  1.0000
  H   H72       1.0  0.07801999999999999  0.19060000000000002  0.9748799999999999  1.0000
  H   H73       1.0  0.4915799999999999  0.72591  0.8693899999999999  1.0000
  H   H74       1.0  0.14666  0.59391  0.97969  1.0000
  H   H75       1.0  0.10989  0.78271  0.85066  1.0000
  H   H76       1.0  0.62519  0.20355  0.81871  1.0000
  H   H77       1.0  0.2723799999999999  0.97409  0.8800899999999999  1.0000
  H   H78       1.0  0.6208999999999999  0.25476  0.94192  1.0000
  H   H79       1.0  0.29144  0.039160000000000014  0.98815  1.0000
  H   H80       1.0  0.40718  0.16961000000000007  0.0149  1.0000
  H   H81       1.0  0.46986000000000006  0.041800000000000004  0.06266  1.0000
  H   H82       1.0  0.6085  0.11221000000000003  0.02111  1.0000
  H   H83       1.0  0.6180299999999999  0.6127  0.8282899999999999  1.0000
  H   H84       1.0  0.76729  0.39438  0.88499  1.0000
  H   H85       1.0  0.73979  0.35941000000000006  0.76117  1.0000
  H   H86       1.0  0.5979  0.56454  0.71962  1.0000
  H   H87       1.0  0.58703  0.43646  0.69011  1.0000
  H   H88       1.0  0.84612  0.49997000000000025  0.68309  1.0000
  H   H89       1.0  0.7715700000000001  0.5680300000000003  0.64349  1.0000
  H   H90       1.0  0.9222599999999999  0.6519200000000002  0.76773  1.0000
  H   H91       1.0  0.8440000000000002  0.7192700000000001  0.7287799999999999  1.0000
  H   H92       1.0  0.10364000000000013  0.7850800000000002  0.71738  1.0000
  H   H93       1.0  0.09336999999999997  0.65745  0.68953  1.0000
  H   H94       1.0  0.03175999999999993  0.5874  0.58265  1.0000
  H   H95       1.0  0.95775  0.8632500000000002  0.64692  1.0000
  H   H96       1.0  0.88742  0.80853  0.52529  1.0000
  C   C1        1.0  0.33140000000000003  0.7154600000000002  0.3818599999999999  1.0000
  C   C2        1.0  0.32731  0.6567200000000001  0.4278  1.0000
  C   C3        1.0  0.44882999999999995  0.6411900000000001  0.44466  1.0000
  C   C4        1.0  0.57463  0.68731  0.4168299999999999  1.0000
  C   C5        1.0  0.5777300000000001  0.7475000000000002  0.37193  1.0000
  C   C6        1.0  0.45619  0.7607200000000001  0.35338  1.0000
  C   C7        1.0  0.19235  0.60916  0.45844  1.0000
  C   C8        1.0  0.70859  0.67408  0.43281  1.0000
  C   C9        1.0  0.45931999999999995  0.82416  0.30438  1.0000
  C   C10       1.0  0.61255  0.16561000000000003  0.3507  1.0000
  C   C11       1.0  0.67759  0.04530999999999999  0.37983  1.0000
  C   C12       1.0  0.63638  0.18971  0.41101999999999994  1.0000
  C   C13       1.0  0.69419  0.09588000000000002  0.48967  1.0000
  C   C14       1.0  0.5510099999999999  0.052050000000000006  0.51722  1.0000
  C   C15       1.0  0.8941399999999999  0.54791  0.32742999999999994  1.0000
  C   C16       1.0  0.7002500000000002  0.43249  0.35408  1.0000
  C   C17       1.0  0.6943400000000001  0.41697000000000006  0.29322  1.0000
  C   C18       1.0  0.85626  0.5115100000000001  0.21677  1.0000
  C   C19       1.0  0.7624000000000001  0.55825  0.18865  1.0000
  C   C20       1.0  0.7671200000000001  0.66263  0.22294999999999995  1.0000
  C   C21       1.0  0.67614  0.70985  0.19271999999999997  1.0000
  C   C22       1.0  0.6535500000000001  0.6542300000000001  0.08328  1.0000
  C   C23       1.0  0.83827  0.7998000000000002  0.1153  1.0000
  C   C24       1.0  0.8450400000000002  0.7719900000000001  0.05569  1.0000
  C   C25       1.0  0.6146900000000001  0.28587  0.11755999999999998  1.0000
  C   C26       1.0  0.6707499999999998  0.34388  0.07147  1.0000
  C   C27       1.0  0.80793  0.35841  0.05487  1.0000
  C   C28       1.0  0.8860699999999999  0.31193  0.08292999999999999  1.0000
  C   C29       1.0  0.82777  0.25274  0.1282  1.0000
  C   C30       1.0  0.6928799999999999  0.24057  0.14647  1.0000
  C   C31       1.0  0.58445  0.39063  0.03987  1.0000
  C   C32       1.0  0.03258  0.32372  0.06649  1.0000
  C   C33       1.0  0.62933  0.1775  0.19539999999999996  1.0000
  C   C34       1.0  0.44755  0.8348  0.14962  1.0000
  C   C35       1.0  0.63301  0.95645  0.1205  1.0000
  C   C36       1.0  0.44749000000000017  0.8107400000000001  0.08932  1.0000
  C   C37       1.0  0.59879  0.90526  0.01056  1.0000
  C   C38       1.0  0.49902  0.94809  0.98286  1.0000
  C   C39       1.0  0.34625000000000006  0.4517500000000001  0.17269  1.0000
  C   C40       1.0  0.26787999999999995  0.56623  0.14566  1.0000
  C   C41       1.0  0.27802  0.58242  0.20652  1.0000
  C   C42       1.0  0.34558  0.4892000000000001  0.2833  1.0000
  C   C43       1.0  0.20446999999999999  0.44224  0.31141  1.0000
  C   C44       1.0  0.10404999999999999  0.33775  0.27708  1.0000
  C   C45       1.0  0.96551  0.29044  0.30744  1.0000
  C   C46       1.0  0.9987400000000002  0.34571000000000013  0.41696999999999995  1.0000
  C   C47       1.0  0.03845  0.20118000000000003  0.3846399999999999  1.0000
  C   C48       1.0  0.0729  0.22875  0.44429  1.0000
  C   C49       1.0  0.6685899999999999  0.28453999999999996  0.61813  1.0000
  C   C50       1.0  0.6726899999999999  0.34328  0.5722  1.0000
  C   C51       1.0  0.5511699999999999  0.35882  0.55534  1.0000
  C   C52       1.0  0.42536999999999997  0.31269  0.58317  1.0000
  C   C53       1.0  0.42227000000000003  0.2525000000000001  0.62807  1.0000
  C   C54       1.0  0.54381  0.23928000000000005  0.64662  1.0000
  C   C55       1.0  0.80765  0.39084  0.54156  1.0000
  C   C56       1.0  0.2914  0.32592  0.56718  1.0000
  C   C57       1.0  0.54068  0.17585  0.69562  1.0000
  C   C58       1.0  0.38745000000000007  0.8343900000000001  0.6493  1.0000
  C   C59       1.0  0.32240000000000013  0.9546900000000003  0.62017  1.0000
  C   C60       1.0  0.36362  0.8102900000000002  0.58898  1.0000
  C   C61       1.0  0.3058099999999999  0.90412  0.51032  1.0000
  C   C62       1.0  0.44899  0.94796  0.48278  1.0000
  C   C63       1.0  0.10585999999999998  0.45209  0.67257  1.0000
  C   C64       1.0  0.29974999999999996  0.56751  0.64592  1.0000
  C   C65       1.0  0.30566  0.58303  0.70678  1.0000
  C   C66       1.0  0.14373999999999995  0.4884899999999999  0.7832299999999999  1.0000
  C   C67       1.0  0.23759  0.44175  0.8113499999999999  1.0000
  C   C68       1.0  0.23287  0.33737  0.77705  1.0000
  C   C69       1.0  0.32384999999999997  0.29014999999999996  0.8072699999999999  1.0000
  C   C70       1.0  0.3464499999999999  0.3457700000000001  0.91671  1.0000
  C   C71       1.0  0.16173  0.2002  0.88469  1.0000
  C   C72       1.0  0.15496  0.22801000000000005  0.94431  1.0000
  C   C73       1.0  0.38531  0.71413  0.8824399999999999  1.0000
  C   C74       1.0  0.32924  0.65612  0.92853  1.0000
  C   C75       1.0  0.19207  0.64159  0.94513  1.0000
  C   C76       1.0  0.11393000000000006  0.6880700000000001  0.91706  1.0000
  C   C77       1.0  0.17222  0.7472600000000001  0.8718  1.0000
  C   C78       1.0  0.30711999999999995  0.7594300000000002  0.85352  1.0000
  C   C79       1.0  0.41553999999999996  0.60937  0.96013  1.0000
  C   C80       1.0  0.96741  0.67628  0.9335  1.0000
  C   C81       1.0  0.37066999999999994  0.8225  0.8046  1.0000
  C   C82       1.0  0.55245  0.1652  0.85038  1.0000
  C   C83       1.0  0.36698  0.04355000000000001  0.8795  1.0000
  C   C84       1.0  0.5525  0.18926  0.91067  1.0000
  C   C85       1.0  0.40121  0.09473999999999999  0.9894399999999999  1.0000
  C   C86       1.0  0.5009799999999999  0.05191  0.01713  1.0000
  C   C87       1.0  0.6537499999999999  0.5482499999999999  0.82731  1.0000
  C   C88       1.0  0.73212  0.43377000000000004  0.85434  1.0000
  C   C89       1.0  0.72198  0.41758  0.79348  1.0000
  C   C90       1.0  0.6544199999999999  0.5108  0.7166999999999999  1.0000
  C   C91       1.0  0.79552  0.55776  0.68859  1.0000
  C   C92       1.0  0.89595  0.66225  0.72291  1.0000
  C   C93       1.0  0.034490000000000055  0.7095600000000001  0.69256  1.0000
  C   C94       1.0  0.0012600000000000452  0.6542900000000001  0.58303  1.0000
  C   C95       1.0  0.96155  0.79882  0.61536  1.0000
  C   C96       1.0  0.9271  0.77125  0.5557  1.0000
  N   N1        1.0  0.63837  0.07544000000000002  0.3319  1.0000
  N   N2        1.0  0.67808  0.11307  0.42865  1.0000
  N   N3        1.0  0.82551  0.51336  0.37467  1.0000
  N   N4        1.0  0.81853  0.49095  0.27703  1.0000
  N   N5        1.0  0.71622  0.7246300000000002  0.1321  1.0000
  N   N6        1.0  0.7291099999999999  0.68101  0.03639  1.0000
  N   N7        1.0  0.56357  0.9257400000000001  0.16843  1.0000
  N   N8        1.0  0.5658  0.8882200000000001  0.07167  1.0000
  N   N9        1.0  0.31184999999999996  0.48548000000000013  0.1253  1.0000
  N   N10       1.0  0.32826  0.5091  0.22294  1.0000
  N   N11       1.0  0.99121  0.27581  0.36802  1.0000
  N   N12       1.0  0.04759  0.31906  0.46379  1.0000
  N   N13       1.0  0.36163  0.92456  0.6681  1.0000
  N   N14       1.0  0.32191999999999993  0.8869300000000001  0.57135  1.0000
  N   N15       1.0  0.17448  0.48664  0.62532  1.0000
  N   N16       1.0  0.18146999999999996  0.50905  0.72296  1.0000
  N   N17       1.0  0.2837799999999999  0.27537  0.8679  1.0000
  N   N18       1.0  0.27088  0.31899  0.9636  1.0000
  N   N19       1.0  0.43642999999999993  0.07426000000000002  0.83156  1.0000
  N   N20       1.0  0.4342  0.11178  0.92833  1.0000
  N   N21       1.0  0.68815  0.51452  0.8747  1.0000
  N   N22       1.0  0.6717399999999998  0.4909  0.77705  1.0000
  N   N23       1.0  0.008790000000000001  0.72419  0.63197  1.0000
  N   N24       1.0  0.95241  0.68094  0.53621  1.0000
  O   O1        1.0  0.08312999999999998  0.61204  0.43189  1.0000
  O   O2        1.0  0.19539  0.57234  0.50555  1.0000
  O   O3        1.0  0.69577  0.59855  0.46308  1.0000
  O   O4        1.0  0.8232599999999999  0.73374  0.41554  1.0000
  O   O5        1.0  0.58466  0.87124  0.28556  1.0000
  O   O6        1.0  0.34828999999999993  0.82927  0.28538  1.0000
  O   O7        1.0  0.47361999999999993  0.39087  0.06647  1.0000
  O   O8        1.0  0.6241099999999999  0.42391999999999996  0.9917899999999998  1.0000
  O   O9        1.0  0.09745000000000006  0.4003500000000001  0.0371  1.0000
  O   O10       1.0  0.08462  0.26189  0.08254  1.0000
  O   O11       1.0  0.70762  0.13275  0.21634999999999996  1.0000
  O   O12       1.0  0.5112899999999999  0.17126999999999998  0.21250999999999998  1.0000
  O   O13       1.0  0.9168599999999999  0.38796  0.5681099999999999  1.0000
  O   O14       1.0  0.80461  0.42766  0.49444999999999995  1.0000
  O   O15       1.0  0.30423  0.40145  0.53691  1.0000
  O   O16       1.0  0.17673  0.26626  0.58446  1.0000
  O   O17       1.0  0.41534  0.12875999999999999  0.71444  1.0000
  O   O18       1.0  0.6517099999999999  0.17072999999999994  0.7146199999999999  1.0000
  O   O19       1.0  0.5263699999999999  0.6091300000000002  0.93353  1.0000
  O   O20       1.0  0.37589  0.57608  0.00821  1.0000
  O   O21       1.0  0.90254  0.5996500000000002  0.9629  1.0000
  O   O22       1.0  0.9153799999999999  0.73811  0.91745  1.0000
  O   O23       1.0  0.29238  0.86725  0.78364  1.0000
  O   O24       1.0  0.4887099999999999  0.82873  0.7874899999999999  1.0000
