data_image0
_chemical_formula_structural       Cu28H48C72I16N60
_chemical_formula_sum              "Cu28 H48 C72 I16 N60"
_cell_length_a       14.73445
_cell_length_b       14.734630000000001
_cell_length_c       21.659019999999998
_cell_angle_alpha    90.03786
_cell_angle_beta     89.96237
_cell_angle_gamma    120.10840000000002

_space_group_name_H-M_alt    "P 1"
_space_group_IT_number       1

loop_
  _space_group_symop_operation_xyz
  'x, y, z'

loop_
  _atom_site_type_symbol
  _atom_site_label
  _atom_site_symmetry_multiplicity
  _atom_site_fract_x
  _atom_site_fract_y
  _atom_site_fract_z
  _atom_site_occupancy
  Cu  Cu1       1.0  0.13610000000000003  0.51772  0.74846  1.0000
  Cu  Cu2       1.0  0.23632000000000003  0.46788999999999986  0.88206  1.0000
  Cu  Cu3       1.0  0.3822699999999999  0.8641299999999997  0.74838  1.0000
  Cu  Cu4       1.0  0.23307999999999998  0.7633299999999998  0.88211  1.0000
  Cu  Cu5       1.0  0.48200000000000004  0.61798  0.74843  1.0000
  Cu  Cu6       1.0  0.5309100000000002  0.76728  0.8819099999999999  1.0000
  Cu  Cu7       1.0  0.6179900000000003  0.48198999999999986  0.75157  1.0000
  Cu  Cu8       1.0  0.7672800000000002  0.5309  0.61809  1.0000
  Cu  Cu9       1.0  0.51772  0.1361  0.75154  1.0000
  Cu  Cu10      1.0  0.46788999999999986  0.23630999999999994  0.61793  1.0000
  Cu  Cu11      1.0  0.8641300000000002  0.38226999999999994  0.75162  1.0000
  Cu  Cu12      1.0  0.76334  0.23306999999999994  0.61789  1.0000
  Cu  Cu13      1.0  0.8639099999999998  0.48228  0.25154  1.0000
  Cu  Cu14      1.0  0.7636900000000001  0.5321099999999999  0.11793  1.0000
  Cu  Cu15      1.0  0.6177400000000002  0.13586999999999996  0.25162  1.0000
  Cu  Cu16      1.0  0.76693  0.23666999999999994  0.11788999999999997  1.0000
  Cu  Cu17      1.0  0.51801  0.3820199999999999  0.25157  1.0000
  Cu  Cu18      1.0  0.46910000000000013  0.23271999999999995  0.11809  1.0000
  Cu  Cu19      1.0  0.38202  0.51801  0.24843  1.0000
  Cu  Cu20      1.0  0.23273  0.4690999999999999  0.38191  1.0000
  Cu  Cu21      1.0  0.48229  0.8638999999999998  0.24845999999999996  1.0000
  Cu  Cu22      1.0  0.5321200000000001  0.76369  0.38205999999999996  1.0000
  Cu  Cu23      1.0  0.13588000000000006  0.61773  0.24838  1.0000
  Cu  Cu24      1.0  0.23667000000000005  0.76693  0.38210999999999995  1.0000
  Cu  Cu25      1.0  0.3359099999999999  0.6678199999999997  0.8013399999999999  1.0000
  Cu  Cu26      1.0  0.6678200000000002  0.33589999999999987  0.6986599999999998  1.0000
  Cu  Cu27      1.0  0.6641  0.33218  0.19865999999999998  1.0000
  Cu  Cu28      1.0  0.3321900000000001  0.6641  0.30134  1.0000
  H   H1        1.0  0.8415200000000002  0.3206199999999999  0.9932199999999998  1.0000
  H   H2        1.0  0.9892300000000002  0.32495999999999997  0.1575  1.0000
  H   H3        1.0  0.16581999999999994  0.4180299999999999  0.10682999999999998  1.0000
  H   H4        1.0  0.17558000000000007  0.45443  0.99273  1.0000
  H   H5        1.0  0.47918  0.15873  0.9933399999999999  1.0000
  H   H6        1.0  0.33532  0.010539999999999997  0.15759  1.0000
  H   H7        1.0  0.25242  0.83399  0.10697  1.0000
  H   H8        1.0  0.2797899999999999  0.8243699999999999  0.9928999999999999  1.0000
  H   H9        1.0  0.68004  0.52249  0.99359  1.0000
  H   H10       1.0  0.67448  0.66634  0.15755  1.0000
  H   H11       1.0  0.58074  0.74837  0.10654  1.0000
  H   H12       1.0  0.5442899999999999  0.7204699999999999  0.9924799999999999  1.0000
  H   H13       1.0  0.5224900000000002  0.68003  0.50641  1.0000
  H   H14       1.0  0.6663500000000001  0.67448  0.34245  1.0000
  H   H15       1.0  0.7483700000000001  0.5807399999999999  0.3934599999999999  1.0000
  H   H16       1.0  0.7204799999999999  0.5442799999999999  0.50752  1.0000
  H   H17       1.0  0.32062  0.84151  0.50678  1.0000
  H   H18       1.0  0.3249599999999999  0.9892299999999998  0.3425  1.0000
  H   H19       1.0  0.4180400000000001  0.16581  0.39316999999999996  1.0000
  H   H20       1.0  0.45444  0.17556999999999998  0.50727  1.0000
  H   H21       1.0  0.15873  0.4791799999999999  0.50666  1.0000
  H   H22       1.0  0.010540000000000015  0.33532  0.3423999999999999  1.0000
  H   H23       1.0  0.8340000000000002  0.25242  0.39302999999999993  1.0000
  H   H24       1.0  0.82438  0.2797799999999999  0.5071  1.0000
  H   H25       1.0  0.15848999999999994  0.6793799999999999  0.006779999999999998  1.0000
  H   H26       1.0  0.010779999999999982  0.6750399999999999  0.8425  1.0000
  H   H27       1.0  0.83419  0.58197  0.8931699999999998  1.0000
  H   H28       1.0  0.8244300000000001  0.54556  0.00727  1.0000
  H   H29       1.0  0.52083  0.8412699999999997  0.00666  1.0000
  H   H30       1.0  0.66469  0.9894599999999998  0.8424  1.0000
  H   H31       1.0  0.74759  0.16601  0.89303  1.0000
  H   H32       1.0  0.72022  0.17563  0.0071  1.0000
  H   H33       1.0  0.31996999999999987  0.4775099999999999  0.006409999999999999  1.0000
  H   H34       1.0  0.32552999999999993  0.3336599999999999  0.84245  1.0000
  H   H35       1.0  0.4192700000000001  0.25163  0.8934599999999998  1.0000
  H   H36       1.0  0.45572  0.27953  0.007519999999999999  1.0000
  H   H37       1.0  0.47751999999999994  0.31996999999999987  0.49359  1.0000
  H   H38       1.0  0.33366000000000007  0.3255199999999999  0.6575499999999999  1.0000
  H   H39       1.0  0.25164  0.41925999999999997  0.60654  1.0000
  H   H40       1.0  0.27953  0.45572  0.49248  1.0000
  H   H41       1.0  0.67939  0.15847999999999998  0.4932199999999999  1.0000
  H   H42       1.0  0.67505  0.010769999999999997  0.6575  1.0000
  H   H43       1.0  0.5819699999999999  0.8341799999999998  0.60683  1.0000
  H   H44       1.0  0.54557  0.82443  0.49272999999999995  1.0000
  H   H45       1.0  0.8412800000000001  0.5208199999999998  0.49334  1.0000
  H   H46       1.0  0.98947  0.66468  0.65759  1.0000
  H   H47       1.0  0.16601000000000005  0.7475799999999999  0.60697  1.0000
  H   H48       1.0  0.17562999999999995  0.72022  0.49289999999999995  1.0000
  C   C1        1.0  0.9135900000000002  0.33843  0.01691  1.0000
  C   C2        1.0  0.005959999999999957  0.40005999999999997  0.91758  1.0000
  C   C3        1.0  0.008069999999999982  0.38443999999999995  0.9838999999999998  1.0000
  C   C4        1.0  0.9972500000000002  0.3433  0.1085  1.0000
  C   C5        1.0  0.09502999999999998  0.3942699999999999  0.07986  1.0000
  C   C6        1.0  0.10074  0.41447  0.01679  1.0000
  C   C7        1.0  0.42497  0.08649  0.017  1.0000
  C   C8        1.0  0.39474  0.9941299999999997  0.9176999999999998  1.0000
  C   C9        1.0  0.37685  0.9919599999999997  0.98401  1.0000
  C   C10       1.0  0.34591  0.0025899999999999994  0.10860999999999998  1.0000
  C   C11       1.0  0.29946999999999985  0.9048099999999998  0.07999  1.0000
  C   C12       1.0  0.31432  0.89919  0.01694  1.0000
  C   C13       1.0  0.66171  0.5764599999999999  0.01712  1.0000
  C   C14       1.0  0.5996099999999999  0.6058699999999999  0.9176399999999999  1.0000
  C   C15       1.0  0.6152000000000002  0.6240099999999998  0.9839499999999999  1.0000
  C   C16       1.0  0.65624  0.6554799999999997  0.10854  1.0000
  C   C17       1.0  0.6048300000000002  0.7014599999999999  0.07972999999999998  1.0000
  C   C18       1.0  0.58462  0.68634  0.016679999999999997  1.0000
  C   C19       1.0  0.57647  0.6616999999999997  0.4828799999999999  1.0000
  C   C20       1.0  0.6058800000000002  0.5995999999999999  0.58235  1.0000
  C   C21       1.0  0.62402  0.61519  0.51604  1.0000
  C   C22       1.0  0.6554800000000001  0.65624  0.3914599999999999  1.0000
  C   C23       1.0  0.70147  0.60483  0.42027  1.0000
  C   C24       1.0  0.6863500000000002  0.58461  0.48331999999999997  1.0000
  C   C25       1.0  0.33844  0.91359  0.48309  1.0000
  C   C26       1.0  0.40006000000000014  0.00595  0.5824199999999999  1.0000
  C   C27       1.0  0.38444  0.00807  0.5161  1.0000
  C   C28       1.0  0.3433000000000001  0.99724  0.3915  1.0000
  C   C29       1.0  0.39427  0.09502999999999999  0.42013  1.0000
  C   C30       1.0  0.41447  0.10074  0.4832  1.0000
  C   C31       1.0  0.0865  0.42496  0.48299  1.0000
  C   C32       1.0  0.9941400000000002  0.39473  0.5823  1.0000
  C   C33       1.0  0.99197  0.37683999999999995  0.51598  1.0000
  C   C34       1.0  0.002589999999999927  0.3459099999999999  0.39138999999999996  1.0000
  C   C35       1.0  0.9048200000000002  0.29946  0.42001  1.0000
  C   C36       1.0  0.8992000000000002  0.31432  0.48305999999999993  1.0000
  C   C37       1.0  0.08642000000000007  0.66157  0.98309  1.0000
  C   C38       1.0  0.99405  0.5999399999999999  0.08241999999999998  1.0000
  C   C39       1.0  0.9919400000000003  0.61556  0.0161  1.0000
  C   C40       1.0  0.002759999999999979  0.6567  0.8914999999999997  1.0000
  C   C41       1.0  0.9049800000000001  0.60573  0.9201299999999999  1.0000
  C   C42       1.0  0.89927  0.5855299999999999  0.9832  1.0000
  C   C43       1.0  0.57505  0.9135099999999998  0.98299  1.0000
  C   C44       1.0  0.6052700000000002  0.005859999999999998  0.08229999999999998  1.0000
  C   C45       1.0  0.62316  0.00804  0.01598  1.0000
  C   C46       1.0  0.6541  0.9974099999999998  0.8913899999999999  1.0000
  C   C47       1.0  0.70054  0.09519  0.92001  1.0000
  C   C48       1.0  0.68569  0.10080999999999998  0.9830599999999998  1.0000
  C   C49       1.0  0.3383  0.42353  0.9828699999999999  1.0000
  C   C50       1.0  0.4003999999999999  0.3941199999999999  0.08235999999999999  1.0000
  C   C51       1.0  0.38481  0.37599  0.01604  1.0000
  C   C52       1.0  0.34377  0.34452  0.8914599999999999  1.0000
  C   C53       1.0  0.3951800000000001  0.29852999999999996  0.9202599999999999  1.0000
  C   C54       1.0  0.41539  0.31366  0.9833199999999999  1.0000
  C   C55       1.0  0.42354  0.3382999999999999  0.51712  1.0000
  C   C56       1.0  0.3941300000000001  0.4004  0.41764  1.0000
  C   C57       1.0  0.37599000000000005  0.3848099999999999  0.48396  1.0000
  C   C58       1.0  0.34453000000000006  0.3437599999999999  0.60854  1.0000
  C   C59       1.0  0.29854  0.39516999999999997  0.5797299999999999  1.0000
  C   C60       1.0  0.31366  0.41538999999999987  0.51667  1.0000
  C   C61       1.0  0.6615700000000001  0.08641  0.51691  1.0000
  C   C62       1.0  0.5999499999999999  0.9940499999999999  0.41757999999999995  1.0000
  C   C63       1.0  0.6155699999999998  0.9919299999999998  0.4838999999999999  1.0000
  C   C64       1.0  0.65671  0.002759999999999999  0.6085  1.0000
  C   C65       1.0  0.60574  0.90497  0.57986  1.0000
  C   C66       1.0  0.58554  0.8992599999999997  0.51679  1.0000
  C   C67       1.0  0.91352  0.5750299999999999  0.517  1.0000
  C   C68       1.0  0.005869999999999894  0.6052699999999999  0.4176999999999999  1.0000
  C   C69       1.0  0.00803999999999991  0.6231599999999999  0.48402  1.0000
  C   C70       1.0  0.9974200000000002  0.6540899999999997  0.60861  1.0000
  C   C71       1.0  0.09518999999999998  0.7005399999999999  0.57998  1.0000
  C   C72       1.0  0.10080999999999998  0.68568  0.51694  1.0000
  I   I1        1.0  0.28597999999999996  0.4691799999999999  0.75693  1.0000
  I   I2        1.0  0.18435000000000007  0.71365  0.75717  1.0000
  I   I3        1.0  0.53118  0.8167699999999998  0.7567199999999997  1.0000
  I   I4        1.0  0.8167800000000001  0.5311599999999999  0.7432799999999999  1.0000
  I   I5        1.0  0.46918  0.28598  0.7430699999999999  1.0000
  I   I6        1.0  0.7136500000000002  0.18434  0.74283  1.0000
  I   I7        1.0  0.7140300000000003  0.53082  0.24307  1.0000
  I   I8        1.0  0.8156600000000002  0.28634999999999994  0.24283  1.0000
  I   I9        1.0  0.46883000000000014  0.18323  0.24328  1.0000
  I   I10       1.0  0.18323  0.46883  0.25672  1.0000
  I   I11       1.0  0.5308300000000001  0.71402  0.25693  1.0000
  I   I12       1.0  0.2863599999999999  0.8156499999999998  0.25717  1.0000
  I   I13       1.0  0.33292  0.66561  0.9280599999999999  1.0000
  I   I14       1.0  0.6656200000000002  0.33291  0.5719399999999999  1.0000
  I   I15       1.0  0.6670899999999998  0.3343899999999999  0.07194  1.0000
  I   I16       1.0  0.3343899999999999  0.6670899999999997  0.42806  1.0000
  N   N1        1.0  0.05055  0.44065  0.82277  1.0000
  N   N2        1.0  0.9478800000000002  0.40561999999999987  0.8284299999999999  1.0000
  N   N3        1.0  0.9179300000000002  0.37981  0.8870999999999998  1.0000
  N   N4        1.0  0.08892  0.43619  0.87839  1.0000
  N   N5        1.0  0.90695  0.31593  0.07767  1.0000
  N   N6        1.0  0.39162999999999987  0.9494799999999999  0.8229899999999999  1.0000
  N   N7        1.0  0.45781000000000005  0.05256999999999999  0.8284399999999998  1.0000
  N   N8        1.0  0.46139000000000013  0.08259  0.88705  1.0000
  N   N9        1.0  0.34912999999999994  0.9108299999999999  0.87868  1.0000
  N   N10       1.0  0.40881000000000006  0.09297999999999997  0.07776  1.0000
  N   N11       1.0  0.5584000000000001  0.6088999999999999  0.82287  1.0000
  N   N12       1.0  0.5947800000000002  0.5425  0.8284399999999998  1.0000
  N   N13       1.0  0.6210100000000002  0.53898  0.8870899999999999  1.0000
  N   N14       1.0  0.56237  0.6515499999999997  0.87852  1.0000
  N   N15       1.0  0.6841500000000003  0.5927999999999999  0.0779  1.0000
  N   N16       1.0  0.6089099999999998  0.5583899999999999  0.67712  1.0000
  N   N17       1.0  0.5425  0.59477  0.67156  1.0000
  N   N18       1.0  0.53899  0.621  0.6129099999999998  1.0000
  N   N19       1.0  0.6515600000000003  0.56236  0.62148  1.0000
  N   N20       1.0  0.5928100000000001  0.6841399999999997  0.42209999999999986  1.0000
  N   N21       1.0  0.4406500000000001  0.05054  0.67723  1.0000
  N   N22       1.0  0.40562  0.9478699999999998  0.67157  1.0000
  N   N23       1.0  0.37981000000000004  0.9179199999999998  0.6128899999999999  1.0000
  N   N24       1.0  0.43620000000000003  0.08891999999999997  0.6216099999999999  1.0000
  N   N25       1.0  0.31593  0.9069499999999998  0.42233  1.0000
  N   N26       1.0  0.94948  0.3916199999999999  0.6770099999999999  1.0000
  N   N27       1.0  0.05256999999999996  0.4577999999999999  0.67156  1.0000
  N   N28       1.0  0.08258999999999998  0.46138  0.61295  1.0000
  N   N29       1.0  0.9108299999999999  0.3491199999999999  0.62132  1.0000
  N   N30       1.0  0.09298000000000005  0.40881  0.42223999999999995  1.0000
  N   N31       1.0  0.94946  0.5593499999999999  0.17722999999999997  1.0000
  N   N32       1.0  0.05212999999999999  0.59438  0.17157  1.0000
  N   N33       1.0  0.08207999999999992  0.6201899999999999  0.11289  1.0000
  N   N34       1.0  0.9110900000000003  0.5638  0.12160999999999997  1.0000
  N   N35       1.0  0.0930599999999999  0.6840699999999997  0.92232  1.0000
  N   N36       1.0  0.6083800000000003  0.05052  0.17700999999999997  1.0000
  N   N37       1.0  0.5422  0.9474299999999998  0.17155999999999996  1.0000
  N   N38       1.0  0.53862  0.91741  0.11295  1.0000
  N   N39       1.0  0.65088  0.08917  0.12132  1.0000
  N   N40       1.0  0.5912  0.9070199999999998  0.92224  1.0000
  N   N41       1.0  0.44161  0.3911  0.17712  1.0000
  N   N42       1.0  0.40523000000000003  0.4574999999999999  0.17155999999999996  1.0000
  N   N43       1.0  0.37900000000000006  0.4610199999999999  0.11290999999999997  1.0000
  N   N44       1.0  0.4376400000000001  0.34845  0.12148  1.0000
  N   N45       1.0  0.31586  0.40719  0.9221  1.0000
  N   N46       1.0  0.3911000000000001  0.44161  0.32288  1.0000
  N   N47       1.0  0.45751  0.40522999999999987  0.32843999999999995  1.0000
  N   N48       1.0  0.46102000000000004  0.37899999999999995  0.38709  1.0000
  N   N49       1.0  0.3484500000000001  0.43763999999999986  0.37852  1.0000
  N   N50       1.0  0.4072  0.31586  0.5779  1.0000
  N   N51       1.0  0.5593600000000001  0.94945  0.32277  1.0000
  N   N52       1.0  0.59439  0.05213  0.32843  1.0000
  N   N53       1.0  0.6202  0.08207999999999999  0.38709999999999994  1.0000
  N   N54       1.0  0.5638100000000003  0.91108  0.37839  1.0000
  N   N55       1.0  0.6840800000000001  0.09305  0.5776699999999999  1.0000
  N   N56       1.0  0.05053  0.60838  0.32298999999999994  1.0000
  N   N57       1.0  0.9474399999999998  0.5421899999999998  0.32843999999999995  1.0000
  N   N58       1.0  0.91742  0.5386199999999999  0.38705  1.0000
  N   N59       1.0  0.08918000000000005  0.65087  0.37867999999999996  1.0000
  N   N60       1.0  0.90703  0.5911899999999999  0.5777599999999999  1.0000
