data_image0
_chemical_formula_structural       Cu12H112C136N24O64
_chemical_formula_sum              "Cu12 H112 C136 N24 O64"
_cell_length_a       9.92755
_cell_length_b       18.86116
_cell_length_c       23.89006
_cell_angle_alpha    89.627
_cell_angle_beta     90.00983
_cell_angle_gamma    97.33376

_symmetry_space_group_name_H-M    'P 1'
_symmetry_Int_Tables_number       1

loop_
  _symmetry_equiv_pos_as_xyz
  'x,y,z'

loop_
  _atom_site_type_symbol
  _atom_site_label
  _atom_site_symmetry_multiplicity
  _atom_site_fract_x
  _atom_site_fract_y
  _atom_site_fract_z
  _atom_site_occupancy
  Cu  Cu1       1.0  0.54452  0.09449  0.9824  1.0000
  Cu  Cu2       1.0  0.37826  0.07589  0.8601599999999999  1.0000
  Cu  Cu3       1.0  0.34549  0.18487000000000003  0.9529999999999998  1.0000
  Cu  Cu4       1.0  0.9501299999999999  0.40817  0.48306999999999994  1.0000
  Cu  Cu5       1.0  0.11843999999999999  0.41919  0.3615299999999999  1.0000
  Cu  Cu6       1.0  0.15660999999999997  0.30949  0.45298999999999995  1.0000
  Cu  Cu7       1.0  0.45538  0.90789  0.01762  1.0000
  Cu  Cu8       1.0  0.6218899999999999  0.92449  0.13966  1.0000
  Cu  Cu9       1.0  0.6534099999999999  0.81502  0.04704  1.0000
  Cu  Cu10      1.0  0.050319999999999976  0.59007  0.51579  1.0000
  Cu  Cu11      1.0  0.8809299999999998  0.57865  0.63705  1.0000
  Cu  Cu12      1.0  0.8446899999999999  0.69077  0.54698  1.0000
  H   H1        1.0  0.4115599999999999  0.26527  0.05956  1.0000
  H   H2        1.0  0.6439  0.07094  0.07105  1.0000
  H   H3        1.0  0.76112  0.04701  0.03264  1.0000
  H   H4        1.0  0.4018399999999999  0.39166  0.08979999999999999  1.0000
  H   H5        1.0  0.19520999999999997  0.51651  0.9654299999999999  1.0000
  H   H6        1.0  0.22008999999999998  0.59383  0.11663  1.0000
  H   H7        1.0  0.29268  0.44032  0.91981  1.0000
  H   H8        1.0  0.30750999999999995  0.31351  0.89618  1.0000
  H   H9        1.0  0.33488  0.63465  0.0333  1.0000
  H   H10       1.0  0.33897  0.65386  0.9307899999999999  1.0000
  H   H11       1.0  0.16209  0.63239  0.92698  1.0000
  H   H12       1.0  0.31236999999999987  0.7616  0.98917  1.0000
  H   H13       1.0  0.22487999999999997  0.76494  0.92535  1.0000
  H   H14       1.0  0.0061900000000000175  0.7180900000000001  0.97355  1.0000
  H   H15       1.0  0.0832  0.79608  0.006769999999999999  1.0000
  H   H16       1.0  0.18094000000000002  0.7228500000000001  0.0797  1.0000
  H   H17       1.0  0.0033599999999999863  0.69957  0.07747  1.0000
  H   H18       1.0  0.02894  0.59156  0.021689999999999997  1.0000
  H   H19       1.0  0.004290000000000001  0.38656  0.15256  1.0000
  H   H20       1.0  0.051329999999999994  0.34477  0.25058  1.0000
  H   H21       1.0  0.19849  0.54966  0.29971  1.0000
  H   H22       1.0  0.16213999999999995  0.59971  0.20481  1.0000
  H   H23       1.0  0.15666999999999995  0.03477  0.054869999999999995  1.0000
  H   H24       1.0  0.9608199999999999  0.9808  0.21278  1.0000
  H   H25       1.0  0.39369  0.04204  0.20736999999999997  1.0000
  H   H26       1.0  0.6923899999999997  0.16214  0.75975  1.0000
  H   H27       1.0  0.12905  0.20682  0.75171  1.0000
  H   H28       1.0  0.93093  0.15559  0.9097299999999999  1.0000
  H   H29       1.0  0.08769  0.22891999999999998  0.55991  1.0000
  H   H30       1.0  0.8589599999999997  0.43564  0.57226  1.0000
  H   H31       1.0  0.73539  0.45209000000000005  0.53371  1.0000
  H   H32       1.0  0.09947999999999997  0.10209  0.5906  1.0000
  H   H33       1.0  0.30526  0.98104  0.46479999999999994  1.0000
  H   H34       1.0  0.2812  0.90343  0.61568  1.0000
  H   H35       1.0  0.20821  0.056130000000000006  0.4204  1.0000
  H   H36       1.0  0.19176999999999997  0.183  0.3966  1.0000
  H   H37       1.0  0.17011999999999994  0.86107  0.53323  1.0000
  H   H38       1.0  0.16693999999999995  0.84424  0.43072  1.0000
  H   H39       1.0  0.34373999999999993  0.86648  0.427  1.0000
  H   H40       1.0  0.19444999999999998  0.7359300000000001  0.48911  1.0000
  H   H41       1.0  0.28304  0.73366  0.42555  1.0000
  H   H42       1.0  0.50047  0.78089  0.47386999999999996  1.0000
  H   H43       1.0  0.42452  0.70239  0.50738  1.0000
  H   H44       1.0  0.32537999999999995  0.77434  0.58008  1.0000
  H   H45       1.0  0.50289  0.79807  0.57751  1.0000
  H   H46       1.0  0.47547000000000006  0.9068500000000002  0.52187  1.0000
  H   H47       1.0  0.4934  0.10981000000000002  0.65168  1.0000
  H   H48       1.0  0.44432  0.15103  0.7492299999999998  1.0000
  H   H49       1.0  0.29458999999999996  0.9462000000000002  0.79943  1.0000
  H   H50       1.0  0.333  0.8963499999999999  0.70501  1.0000
  H   H51       1.0  0.34570999999999996  0.4677700000000001  0.55372  1.0000
  H   H52       1.0  0.53985  0.51834  0.71207  1.0000
  H   H53       1.0  0.10594999999999996  0.45951999999999993  0.7052599999999999  1.0000
  H   H54       1.0  0.8074799999999998  0.33774  0.26016  1.0000
  H   H55       1.0  0.37114  0.29237  0.25208  1.0000
  H   H56       1.0  0.56771  0.34617  0.40941999999999995  1.0000
  H   H57       1.0  0.5882099999999999  0.73479  0.94054  1.0000
  H   H58       1.0  0.35624000000000006  0.93317  0.92901  1.0000
  H   H59       1.0  0.24008000000000002  0.9575400000000001  0.96791  1.0000
  H   H60       1.0  0.59814  0.60847  0.9101699999999999  1.0000
  H   H61       1.0  0.8046999999999999  0.48359  0.03412  1.0000
  H   H62       1.0  0.77898  0.40574  0.88299  1.0000
  H   H63       1.0  0.7072  0.55961  0.08016  1.0000
  H   H64       1.0  0.6921799999999999  0.6862800000000001  0.10390999999999999  1.0000
  H   H65       1.0  0.6648999999999999  0.36533  0.9664699999999999  1.0000
  H   H66       1.0  0.66121  0.34633  0.06897  1.0000
  H   H67       1.0  0.8380699999999999  0.36785  0.07268  1.0000
  H   H68       1.0  0.68782  0.23858000000000001  0.0106  1.0000
  H   H69       1.0  0.7753200000000001  0.23525000000000001  0.07439  1.0000
  H   H70       1.0  0.9939499999999999  0.28221  0.026209999999999997  1.0000
  H   H71       1.0  0.91705  0.2042  0.9930199999999999  1.0000
  H   H72       1.0  0.81917  0.27721  0.92007  1.0000
  H   H73       1.0  0.9967199999999999  0.30063  0.9222599999999999  1.0000
  H   H74       1.0  0.97084  0.40885  0.9777499999999998  1.0000
  H   H75       1.0  0.9922599999999998  0.61332  0.84583  1.0000
  H   H76       1.0  0.9448699999999999  0.6536700000000001  0.7474  1.0000
  H   H77       1.0  0.79886  0.44813  0.6998199999999999  1.0000
  H   H78       1.0  0.83582  0.39923  0.7952099999999998  1.0000
  H   H79       1.0  0.8419099999999999  0.9674200000000001  0.94499  1.0000
  H   H80       1.0  0.03948  0.01862  0.78694  1.0000
  H   H81       1.0  0.6058899999999999  0.95928  0.79235  1.0000
  H   H82       1.0  0.30763999999999997  0.83789  0.2401  1.0000
  H   H83       1.0  0.87106  0.79307  0.24820999999999996  1.0000
  H   H84       1.0  0.06889000000000002  0.8445800000000001  0.09015999999999999  1.0000
  H   H85       1.0  0.9126499999999999  0.77146  0.44028999999999996  1.0000
  H   H86       1.0  0.14141  0.56372  0.4256499999999999  1.0000
  H   H87       1.0  0.26558  0.54723  0.46430999999999994  1.0000
  H   H88       1.0  0.90096  0.89819  0.40955  1.0000
  H   H89       1.0  0.6948499999999999  0.01945  0.53507  1.0000
  H   H90       1.0  0.71863  0.09704  0.38406  1.0000
  H   H91       1.0  0.7914899999999998  0.9442200000000001  0.57966  1.0000
  H   H92       1.0  0.8069299999999998  0.81727  0.60341  1.0000
  H   H93       1.0  0.82985  0.13944  0.46658999999999995  1.0000
  H   H94       1.0  0.8327499999999999  0.15604000000000004  0.56919  1.0000
  H   H95       1.0  0.65588  0.13391  0.57272  1.0000
  H   H96       1.0  0.80589  0.2644  0.51079  1.0000
  H   H97       1.0  0.71702  0.26675  0.57427  1.0000
  H   H98       1.0  0.49969  0.21983999999999998  0.52587  1.0000
  H   H99       1.0  0.57612  0.29818000000000006  0.49231999999999987  1.0000
  H   H100      1.0  0.67478  0.22602000000000003  0.41969  1.0000
  H   H101      1.0  0.49724  0.20241  0.42232  1.0000
  H   H102      1.0  0.5245  0.09358  0.47793  1.0000
  H   H103      1.0  0.5069899999999999  0.89037  0.34824  1.0000
  H   H104      1.0  0.5557199999999999  0.84913  0.25069  1.0000
  H   H105      1.0  0.7052599999999998  0.05397  0.20041  1.0000
  H   H106      1.0  0.6670900000000001  0.10381  0.29482  1.0000
  H   H107      1.0  0.6522399999999997  0.53029  0.44533999999999996  1.0000
  H   H108      1.0  0.45856  0.4803  0.28654  1.0000
  H   H109      1.0  0.8909599999999998  0.54377  0.2935  1.0000
  H   H110      1.0  0.19178  0.66134  0.7387499999999999  1.0000
  H   H111      1.0  0.6287399999999999  0.7067  0.7473899999999999  1.0000
  H   H112      1.0  0.43229  0.65209  0.59007  1.0000
  C   C1        1.0  0.3838599999999999  0.30536  0.03023  1.0000
  C   C2        1.0  0.37734999999999996  0.37524  0.04698999999999999  1.0000
  C   C3        1.0  0.33985999999999994  0.42505  0.00813  1.0000
  C   C4        1.0  0.31542000000000003  0.4033300000000001  0.95268  1.0000
  C   C5        1.0  0.32464  0.33279  0.9387199999999999  1.0000
  C   C6        1.0  0.33372999999999997  0.50014  0.02799  1.0000
  C   C7        1.0  0.24563  0.61428  0.00811  1.0000
  C   C8        1.0  0.24450999999999998  0.6575  0.9537499999999998  1.0000
  C   C9        1.0  0.22546  0.73536  0.96504  1.0000
  C   C10       1.0  0.0951  0.74001  0.99836  1.0000
  C   C11       1.0  0.09712  0.69802  0.05338999999999999  1.0000
  C   C12       1.0  0.11735  0.61981  0.04336  1.0000
  C   C13       1.0  0.048440000000000025  0.5232700000000001  0.11338999999999999  1.0000
  C   C14       1.0  0.08185999999999997  0.4963000000000001  0.1705  1.0000
  C   C15       1.0  0.049979999999999976  0.42375  0.18388  1.0000
  C   C16       1.0  0.07409000000000002  0.4005500000000001  0.23797999999999997  1.0000
  C   C17       1.0  0.15863  0.51552  0.26551  1.0000
  C   C18       1.0  0.13881  0.54253  0.21228  1.0000
  C   C19       1.0  0.42012999999999995  0.06011  0.09604  1.0000
  C   C20       1.0  0.28972  0.04002  0.12765  1.0000
  C   C21       1.0  0.16337999999999994  0.02825  0.10017  1.0000
  C   C22       1.0  0.04469  0.00694  0.13102  1.0000
  C   C23       1.0  0.05237000000000004  0.9982700000000001  0.18913  1.0000
  C   C24       1.0  0.17742999999999995  0.012309999999999998  0.21564  1.0000
  C   C25       1.0  0.29691  0.03252  0.18586  1.0000
  C   C26       1.0  0.9057299999999999  0.9937299999999999  0.10373  1.0000
  C   C27       1.0  0.66858  0.13518  0.87113  1.0000
  C   C28       1.0  0.7968799999999998  0.15774  0.83888  1.0000
  C   C29       1.0  0.78942  0.16859000000000002  0.7810999999999999  1.0000
  C   C30       1.0  0.90875  0.18604  0.75073  1.0000
  C   C31       1.0  0.03657  0.19346  0.7759399999999999  1.0000
  C   C32       1.0  0.04290999999999999  0.18326  0.8338699999999998  1.0000
  C   C33       1.0  0.9237599999999999  0.16495  0.8649799999999999  1.0000
  C   C34       1.0  0.17829999999999996  0.19104  0.8627599999999999  1.0000
  C   C35       1.0  0.11585999999999999  0.18916  0.5308  1.0000
  C   C36       1.0  0.12317999999999998  0.11918000000000001  0.54773  1.0000
  C   C37       1.0  0.1609  0.07015  0.50881  1.0000
  C   C38       1.0  0.18484999999999996  0.09244  0.45325  1.0000
  C   C39       1.0  0.17497999999999997  0.16299  0.43916  1.0000
  C   C40       1.0  0.16838999999999998  0.9949500000000001  0.52841  1.0000
  C   C41       1.0  0.2590199999999999  0.88261  0.50805  1.0000
  C   C42       1.0  0.26142  0.84053  0.4537  1.0000
  C   C43       1.0  0.28148  0.76275  0.46511  1.0000
  C   C44       1.0  0.4116  0.75838  0.49869999999999987  1.0000
  C   C45       1.0  0.4089  0.79969  0.55362  1.0000
  C   C46       1.0  0.3873400000000001  0.8777900000000001  0.54348  1.0000
  C   C47       1.0  0.45378  0.97311  0.61409  1.0000
  C   C48       1.0  0.41656  0.9997700000000002  0.67046  1.0000
  C   C49       1.0  0.44752  0.07235  0.6831599999999999  1.0000
  C   C50       1.0  0.42244  0.09531  0.73694  1.0000
  C   C51       1.0  0.33660999999999996  0.98022  0.7651399999999999  1.0000
  C   C52       1.0  0.35741  0.95343  0.71222  1.0000
  C   C53       1.0  0.08265000000000003  0.4474600000000001  0.5937  1.0000
  C   C54       1.0  0.21237999999999999  0.46215  0.62618  1.0000
  C   C55       1.0  0.3391199999999999  0.4731000000000001  0.59903  1.0000
  C   C56       1.0  0.45769  0.49326  0.63002  1.0000
  C   C57       1.0  0.4490199999999999  0.50096  0.68812  1.0000
  C   C58       1.0  0.32336  0.48693  0.71439  1.0000
  C   C59       1.0  0.20390999999999998  0.46796  0.68436  1.0000
  C   C60       1.0  0.59583  0.50785  0.60197  1.0000
  C   C61       1.0  0.82841  0.36584  0.37192  1.0000
  C   C62       1.0  0.70167  0.34339  0.33896999999999994  1.0000
  C   C63       1.0  0.7100399999999998  0.33179  0.28134  1.0000
  C   C64       1.0  0.59034  0.31422  0.25119  1.0000
  C   C65       1.0  0.46291  0.30616  0.27647  1.0000
  C   C66       1.0  0.45629  0.31639000000000006  0.33413  1.0000
  C   C67       1.0  0.57481  0.33619  0.36489999999999995  1.0000
  C   C68       1.0  0.3217399999999999  0.30641  0.36315  1.0000
  C   C69       1.0  0.61586  0.69466  0.9698399999999999  1.0000
  C   C70       1.0  0.62248  0.62484  0.9529999999999998  1.0000
  C   C71       1.0  0.6598299999999999  0.57496  0.99183  1.0000
  C   C72       1.0  0.6843299999999998  0.5966  0.0473  1.0000
  C   C73       1.0  0.67499  0.66711  0.061339999999999985  1.0000
  C   C74       1.0  0.66545  0.4998600000000001  0.97186  1.0000
  C   C75       1.0  0.75422  0.38581  0.99157  1.0000
  C   C76       1.0  0.7555999999999998  0.34269000000000005  0.04597  1.0000
  C   C77       1.0  0.77472  0.26486  0.03472  1.0000
  C   C78       1.0  0.90507  0.26025  0.00139  1.0000
  C   C79       1.0  0.9029499999999999  0.30218  0.94634  1.0000
  C   C80       1.0  0.88242  0.38039  0.95622  1.0000
  C   C81       1.0  0.9502699999999997  0.47664  0.88558  1.0000
  C   C82       1.0  0.9155199999999999  0.50315  0.82859  1.0000
  C   C83       1.0  0.9469199999999999  0.5756  0.8148  1.0000
  C   C84       1.0  0.9228599999999999  0.5980600000000001  0.7605199999999999  1.0000
  C   C85       1.0  0.8391599999999998  0.48264  0.73374  1.0000
  C   C86       1.0  0.8588799999999999  0.45631  0.78717  1.0000
  C   C87       1.0  0.57936  0.94249  0.9041  1.0000
  C   C88       1.0  0.7095699999999998  0.9617199999999999  0.87219  1.0000
  C   C89       1.0  0.83597  0.9734200000000001  0.89965  1.0000
  C   C90       1.0  0.95508  0.99408  0.8688999999999999  1.0000
  C   C91       1.0  0.9476899999999999  0.00185  0.81067  1.0000
  C   C92       1.0  0.82251  0.98782  0.78419  1.0000
  C   C93       1.0  0.7026399999999999  0.96853  0.81394  1.0000
  C   C94       1.0  0.09383  0.008110000000000001  0.89649  1.0000
  C   C95       1.0  0.3313099999999999  0.86608  0.12879  1.0000
  C   C96       1.0  0.20311  0.8426800000000001  0.16098  1.0000
  C   C97       1.0  0.21061999999999997  0.83144  0.21872999999999995  1.0000
  C   C98       1.0  0.09132000000000003  0.8137800000000001  0.2491  1.0000
  C   C99       1.0  0.96346  0.8063600000000001  0.22391  1.0000
  C   C100      1.0  0.957  0.8165800000000001  0.16597  1.0000
  C   C101      1.0  0.07614999999999995  0.83515  0.13489  1.0000
  C   C102      1.0  0.82136  0.80895  0.1372  1.0000
  C   C103      1.0  0.8843299999999998  0.81121  0.46938  1.0000
  C   C104      1.0  0.8770199999999998  0.88115  0.45241  1.0000
  C   C105      1.0  0.83917  0.9302099999999999  0.49128  1.0000
  C   C106      1.0  0.81488  0.9079  0.54682  1.0000
  C   C107      1.0  0.8244699999999999  0.8373200000000001  0.5609  1.0000
  C   C108      1.0  0.83173  0.005369999999999999  0.47154  1.0000
  C   C109      1.0  0.74098  0.11780000000000002  0.49175  1.0000
  C   C110      1.0  0.7384199999999997  0.15984  0.54612  1.0000
  C   C111      1.0  0.7186699999999999  0.23764999999999997  0.53471  1.0000
  C   C112      1.0  0.5887099999999998  0.24215  0.50105  1.0000
  C   C113      1.0  0.5912499999999999  0.20074  0.44617  1.0000
  C   C114      1.0  0.61266  0.12261  0.45632  1.0000
  C   C115      1.0  0.54635  0.027069999999999997  0.38582  1.0000
  C   C116      1.0  0.5837199999999999  0.0004100000000000001  0.32945  1.0000
  C   C117      1.0  0.55281  0.92782  0.31675  1.0000
  C   C118      1.0  0.57776  0.90485  0.26296  1.0000
  C   C119      1.0  0.66347  0.01994  0.23472  1.0000
  C   C120      1.0  0.6427399999999998  0.04673  0.28766  1.0000
  C   C121      1.0  0.9173999999999999  0.5507  0.40503  1.0000
  C   C122      1.0  0.7863199999999999  0.53725  0.37301999999999996  1.0000
  C   C123      1.0  0.6595  0.52559  0.39996999999999994  1.0000
  C   C124      1.0  0.54109  0.50544  0.36880999999999997  1.0000
  C   C125      1.0  0.54915  0.49833  0.31057  1.0000
  C   C126      1.0  0.6748  0.51449  0.28444  1.0000
  C   C127      1.0  0.7937799999999998  0.53355  0.31467  1.0000
  C   C128      1.0  0.40369999999999995  0.49024  0.3972299999999999  1.0000
  C   C129      1.0  0.17123  0.63227  0.6274  1.0000
  C   C130      1.0  0.29808999999999997  0.6554  0.6603  1.0000
  C   C131      1.0  0.28956999999999994  0.66726  0.7178999999999999  1.0000
  C   C132      1.0  0.40875999999999996  0.68487  0.74839  1.0000
  C   C133      1.0  0.53655  0.69273  0.7232199999999999  1.0000
  C   C134      1.0  0.54341  0.6824200000000001  0.66554  1.0000
  C   C135      1.0  0.42511999999999994  0.66251  0.63452  1.0000
  C   C136      1.0  0.67817  0.69227  0.63663  1.0000
  N   N1        1.0  0.35653  0.28412  0.97691  1.0000
  N   N2        1.0  0.12511  0.44595000000000007  0.27842  1.0000
  N   N3        1.0  0.2585  0.53979  0.9959499999999999  1.0000
  N   N4        1.0  0.12918  0.58305  0.09674  1.0000
  N   N5        1.0  0.18334  0.006060000000000001  0.27698  1.0000
  N   N6        1.0  0.8965499999999998  0.19651  0.68998  1.0000
  N   N7        1.0  0.14297999999999997  0.21084  0.47741  1.0000
  N   N8        1.0  0.3714099999999999  0.04963  0.77761  1.0000
  N   N9        1.0  0.24385  0.9568  0.4957699999999999  1.0000
  N   N10       1.0  0.37356  0.91385  0.59674  1.0000
  N   N11       1.0  0.31555  0.49353  0.77566  1.0000
  N   N12       1.0  0.59983  0.30377  0.19049  1.0000
  N   N13       1.0  0.64296  0.7158  0.0232  1.0000
  N   N14       1.0  0.8725999999999999  0.55205  0.72039  1.0000
  N   N15       1.0  0.7411599999999998  0.46026000000000006  0.0036999999999999997  1.0000
  N   N16       1.0  0.86986  0.41697  0.90281  1.0000
  N   N17       1.0  0.8168  0.99294  0.72284  1.0000
  N   N18       1.0  0.10341  0.80335  0.3099  1.0000
  N   N19       1.0  0.8569  0.7894800000000001  0.52273  1.0000
  N   N20       1.0  0.6287599999999999  0.95052  0.22228  1.0000
  N   N21       1.0  0.75623  0.04363  0.50407  1.0000
  N   N22       1.0  0.62637  0.0865  0.40308  1.0000
  N   N23       1.0  0.6840699999999998  0.50955  0.22312  1.0000
  N   N24       1.0  0.3984499999999999  0.69586  0.80907  1.0000
  O   O1        1.0  0.40718  0.08380000000000001  0.0458  1.0000
  O   O2        1.0  0.69281  0.08237  0.03443  1.0000
  O   O3        1.0  0.53138  0.05208  0.11953  1.0000
  O   O4        1.0  0.28572999999999993  0.03658  0.30107  1.0000
  O   O5        1.0  0.08567999999999994  0.9709899999999999  0.30133  1.0000
  O   O6        1.0  0.8125399999999999  0.96903  0.13906  1.0000
  O   O7        1.0  0.89363  0.00867  0.05309  1.0000
  O   O8        1.0  0.68132  0.12568  0.92378  1.0000
  O   O9        1.0  0.56067  0.12699  0.84217  1.0000
  O   O10       1.0  0.7809899999999999  0.19854  0.6704999999999999  1.0000
  O   O11       1.0  0.0026100000000000025  0.20326  0.66165  1.0000
  O   O12       1.0  0.2864399999999999  0.20326  0.8356199999999999  1.0000
  O   O13       1.0  0.16857  0.1848  0.9170699999999999  1.0000
  O   O14       1.0  0.39636  0.52204  0.07088  1.0000
  O   O15       1.0  0.95196  0.49299000000000004  0.08573  1.0000
  O   O16       1.0  0.3869199999999999  0.09567  0.93762  1.0000
  O   O17       1.0  0.09335999999999997  0.42471  0.54351  1.0000
  O   O18       1.0  0.80605  0.41828  0.53735  1.0000
  O   O19       1.0  0.97279  0.45946999999999993  0.61694  1.0000
  O   O20       1.0  0.21043  0.46438  0.79884  1.0000
  O   O21       1.0  0.41285  0.52735  0.80063  1.0000
  O   O22       1.0  0.6906699999999999  0.53253  0.6363  1.0000
  O   O23       1.0  0.6062999999999998  0.49396  0.55112  1.0000
  O   O24       1.0  0.81332  0.37959  0.42369999999999997  1.0000
  O   O25       1.0  0.93756  0.36929000000000006  0.34384  1.0000
  O   O26       1.0  0.7149599999999999  0.30352  0.17040999999999998  1.0000
  O   O27       1.0  0.49283999999999994  0.2957  0.1627  1.0000
  O   O28       1.0  0.21336  0.29684  0.33592  1.0000
  O   O29       1.0  0.3322799999999999  0.30782  0.4174799999999999  1.0000
  O   O30       1.0  0.10701000000000002  0.9713000000000002  0.57133  1.0000
  O   O31       1.0  0.5532299999999999  0.00356  0.58791  1.0000
  O   O32       1.0  0.10086000000000003  0.39519000000000004  0.43875  1.0000
  O   O33       1.0  0.5928199999999999  0.91944  0.9544099999999999  1.0000
  O   O34       1.0  0.30727  0.92168  0.96571  1.0000
  O   O35       1.0  0.46791999999999995  0.95037  0.88055  1.0000
  O   O36       1.0  0.71562  0.9608900000000001  0.69886  1.0000
  O   O37       1.0  0.91376  0.02862  0.6984  1.0000
  O   O38       1.0  0.1875  0.03121  0.86084  1.0000
  O   O39       1.0  0.10571  0.9957100000000001  0.94758  1.0000
  O   O40       1.0  0.31852999999999987  0.8757900000000001  0.07619  1.0000
  O   O41       1.0  0.43906  0.8746700000000001  0.15783  1.0000
  O   O42       1.0  0.219  0.80156  0.32945  1.0000
  O   O43       1.0  0.99734  0.7964900000000001  0.3382  1.0000
  O   O44       1.0  0.7134199999999998  0.79677  0.16446  1.0000
  O   O45       1.0  0.83047  0.81531  0.08288999999999999  1.0000
  O   O46       1.0  0.60185  0.47800000000000004  0.92918  1.0000
  O   O47       1.0  0.04796999999999998  0.50712  0.91231  1.0000
  O   O48       1.0  0.6128  0.90437  0.06224999999999999  1.0000
  O   O49       1.0  0.9064499999999999  0.56814  0.45675  1.0000
  O   O50       1.0  0.19350999999999993  0.58047  0.4608  1.0000
  O   O51       1.0  0.027089999999999993  0.54284  0.38023  1.0000
  O   O52       1.0  0.78513  0.54271  0.19953  1.0000
  O   O53       1.0  0.59015  0.47226  0.19851  1.0000
  O   O54       1.0  0.3100199999999999  0.46182  0.36368  1.0000
  O   O55       1.0  0.39333999999999986  0.5071  0.44749  1.0000
  O   O56       1.0  0.18633  0.61824  0.57566  1.0000
  O   O57       1.0  0.06222999999999999  0.62823  0.65574  1.0000
  O   O58       1.0  0.2833399999999999  0.69671  0.82933  1.0000
  O   O59       1.0  0.50579  0.70392  0.8367499999999999  1.0000
  O   O60       1.0  0.78655  0.70076  0.6639  1.0000
  O   O61       1.0  0.66817  0.6916400000000001  0.58228  1.0000
  O   O62       1.0  0.8930899999999999  0.028790000000000003  0.42858  1.0000
  O   O63       1.0  0.44709999999999994  0.9965500000000002  0.41204  1.0000
  O   O64       1.0  0.89962  0.60467  0.55998  1.0000
