data_image0
_chemical_formula_structural       Zn8H84C144N12O26
_chemical_formula_sum              "Zn8 H84 C144 N12 O26"
_cell_length_a       21.47494
_cell_length_b       21.474890000000002
_cell_length_c       21.47496
_cell_angle_alpha    101.60246999999998
_cell_angle_beta     101.55604
_cell_angle_gamma    101.55608

_space_group_name_H-M_alt    "P 1"
_space_group_IT_number       1

loop_
  _space_group_symop_operation_xyz
  'x, y, z'

loop_
  _atom_site_type_symbol
  _atom_site_label
  _atom_site_symmetry_multiplicity
  _atom_site_fract_x
  _atom_site_fract_y
  _atom_site_fract_z
  _atom_site_occupancy
  Zn  Zn1       1.0  0.24499999999999997  0.33575  0.23636999999999994  1.0000
  Zn  Zn2       1.0  0.3357699999999999  0.23635  0.24499999999999994  1.0000
  Zn  Zn3       1.0  0.76365  0.66425  0.755  1.0000
  Zn  Zn4       1.0  0.6347399999999997  0.63472  0.63473  1.0000
  Zn  Zn5       1.0  0.23635  0.24499  0.33574  1.0000
  Zn  Zn6       1.0  0.66423  0.755  0.76364  1.0000
  Zn  Zn7       1.0  0.755  0.76363  0.6642499999999999  1.0000
  Zn  Zn8       1.0  0.36526  0.3652599999999999  0.36528  1.0000
  H   H1        1.0  0.10796999999999995  0.5905699999999999  0.6324399999999999  1.0000
  H   H2        1.0  0.38762  0.57344  0.4211999999999999  1.0000
  H   H3        1.0  0.7579  0.47871  0.7637099999999999  1.0000
  H   H4        1.0  0.37324  0.4118299999999999  0.7790799999999999  1.0000
  H   H5        1.0  0.57332  0.42117999999999994  0.38762  1.0000
  H   H6        1.0  0.05168999999999995  0.7740099999999999  0.61473  1.0000
  H   H7        1.0  0.16311999999999996  0.8625999999999999  0.30386  1.0000
  H   H8        1.0  0.7442699999999999  0.36179  0.76676  1.0000
  H   H9        1.0  0.63827  0.2556999999999999  0.23325999999999997  1.0000
  H   H10       1.0  0.2332599999999999  0.6381999999999998  0.25572  1.0000
  H   H11       1.0  0.42668  0.61237  0.5788099999999999  1.0000
  H   H12       1.0  0.3676  0.40944  0.8920999999999998  1.0000
  H   H13       1.0  0.64918  0.32554  0.94058  1.0000
  H   H14       1.0  0.8368799999999998  0.6961299999999999  0.1374  1.0000
  H   H15       1.0  0.77405  0.6147499999999999  0.051629999999999995  1.0000
  H   H16       1.0  0.61468  0.05171999999999999  0.77397  1.0000
  H   H17       1.0  0.42117999999999994  0.3876  0.57342  1.0000
  H   H18       1.0  0.43607999999999997  0.38476999999999995  0.69092  1.0000
  H   H19       1.0  0.94052  0.77749  0.19196999999999997  1.0000
  H   H20       1.0  0.77749  0.19196999999999997  0.9404399999999998  1.0000
  H   H21       1.0  0.7169899999999999  0.05032000000000001  0.62075  1.0000
  H   H22       1.0  0.77901  0.3732099999999999  0.41184999999999994  1.0000
  H   H23       1.0  0.47867  0.7637399999999999  0.7579399999999997  1.0000
  H   H24       1.0  0.67687  0.32142  0.16858999999999996  1.0000
  H   H25       1.0  0.30387999999999993  0.16316999999999998  0.8625799999999999  1.0000
  H   H26       1.0  0.05948999999999994  0.6745399999999998  0.35081999999999997  1.0000
  H   H27       1.0  0.94051  0.64918  0.32545  1.0000
  H   H28       1.0  0.3508199999999999  0.05940999999999997  0.6744599999999998  1.0000
  H   H29       1.0  0.22251  0.05955999999999997  0.80802  1.0000
  H   H30       1.0  0.61522  0.56391  0.30903999999999987  1.0000
  H   H31       1.0  0.6324000000000001  0.10789000000000001  0.59055  1.0000
  H   H32       1.0  0.94831  0.38525999999999994  0.22598999999999994  1.0000
  H   H33       1.0  0.59063  0.63246  0.10794999999999999  1.0000
  H   H34       1.0  0.059480000000000005  0.80802  0.22251  1.0000
  H   H35       1.0  0.05536  0.363  0.21448999999999996  1.0000
  H   H36       1.0  0.05045999999999996  0.6208099999999999  0.7169799999999998  1.0000
  H   H37       1.0  0.4118  0.7790499999999999  0.37322  1.0000
  H   H38       1.0  0.69084  0.4360999999999999  0.38483999999999996  1.0000
  H   H39       1.0  0.7855100000000002  0.6369899999999998  0.9445899999999999  1.0000
  H   H40       1.0  0.36768  0.05705  0.26163  1.0000
  H   H41       1.0  0.22099  0.58814  0.62678  1.0000
  H   H42       1.0  0.13738999999999996  0.8368599999999999  0.6961099999999999  1.0000
  H   H43       1.0  0.9446399999999999  0.7855  0.63699  1.0000
  H   H44       1.0  0.21449  0.055409999999999994  0.363  1.0000
  H   H45       1.0  0.36172999999999994  0.76673  0.74429  1.0000
  H   H46       1.0  0.63233  0.73836  0.94295  1.0000
  H   H47       1.0  0.61238  0.57879  0.42655999999999994  1.0000
  H   H48       1.0  0.7667399999999999  0.74428  0.36179999999999995  1.0000
  H   H49       1.0  0.57882  0.42656999999999995  0.6124  1.0000
  H   H50       1.0  0.40937  0.89205  0.36754  1.0000
  H   H51       1.0  0.3231299999999999  0.8313999999999999  0.6785799999999998  1.0000
  H   H52       1.0  0.30916  0.61515  0.5638999999999998  1.0000
  H   H53       1.0  0.6961199999999999  0.13741999999999993  0.8368199999999998  1.0000
  H   H54       1.0  0.67861  0.3231800000000001  0.83145  1.0000
  H   H55       1.0  0.37918999999999997  0.9494999999999999  0.28299  1.0000
  H   H56       1.0  0.7637  0.75789  0.47873  1.0000
  H   H57       1.0  0.26163  0.36763  0.05718999999999999  1.0000
  H   H58       1.0  0.32139  0.16853999999999997  0.6768199999999999  1.0000
  H   H59       1.0  0.8920299999999999  0.36756  0.40942  1.0000
  H   H60       1.0  0.80803  0.22247999999999998  0.05941  1.0000
  H   H61       1.0  0.23629999999999995  0.5212599999999998  0.24210999999999994  1.0000
  H   H62       1.0  0.5882000000000001  0.62678  0.22094999999999998  1.0000
  H   H63       1.0  0.25572999999999996  0.23323  0.6382099999999999  1.0000
  H   H64       1.0  0.73837  0.9428  0.63237  1.0000
  H   H65       1.0  0.05708999999999998  0.26163999999999993  0.36762999999999996  1.0000
  H   H66       1.0  0.19197000000000003  0.9405799999999999  0.77751  1.0000
  H   H67       1.0  0.56392  0.30907  0.61523  1.0000
  H   H68       1.0  0.36306  0.21446999999999997  0.05529  1.0000
  H   H69       1.0  0.16856  0.67687  0.32141999999999993  1.0000
  H   H70       1.0  0.83144  0.67858  0.32312  1.0000
  H   H71       1.0  0.32545999999999997  0.9404199999999999  0.6491299999999999  1.0000
  H   H72       1.0  0.2421  0.23627999999999996  0.52129  1.0000
  H   H73       1.0  0.62676  0.22091  0.5881699999999999  1.0000
  H   H74       1.0  0.52133  0.24205999999999997  0.23624999999999996  1.0000
  H   H75       1.0  0.86261  0.30389  0.16313  1.0000
  H   H76       1.0  0.22595000000000004  0.94836  0.3852499999999999  1.0000
  H   H77       1.0  0.6745400000000001  0.35086  0.05958  1.0000
  H   H78       1.0  0.28301  0.37924  0.94967  1.0000
  H   H79       1.0  0.38477999999999996  0.69095  0.4360899999999999  1.0000
  H   H80       1.0  0.62081  0.717  0.05049  1.0000
  H   H81       1.0  0.38532  0.22602  0.94827  1.0000
  H   H82       1.0  0.63694  0.9447  0.7855199999999999  1.0000
  H   H83       1.0  0.94291  0.63236  0.73835  1.0000
  H   H84       1.0  0.94954  0.2830099999999999  0.3791899999999999  1.0000
  C   C1        1.0  0.24781999999999998  0.76081  0.33833999999999986  1.0000
  C   C2        1.0  0.69746  0.31649  0.03369  1.0000
  C   C3        1.0  0.64184  0.14478  0.6365  1.0000
  C   C4        1.0  0.76278  0.30738  0.13967999999999997  1.0000
  C   C5        1.0  0.45989  0.68808  0.66905  1.0000
  C   C6        1.0  0.33022999999999997  0.24616000000000002  0.82413  1.0000
  C   C7        1.0  0.3561  0.25541  0.97086  1.0000
  C   C8        1.0  0.32029  0.3137  0.46994999999999987  1.0000
  C   C9        1.0  0.68629  0.67968  0.53005  1.0000
  C   C10       1.0  0.54011  0.33094  0.31191  1.0000
  C   C11       1.0  0.24956  0.03127  0.34481  1.0000
  C   C12       1.0  0.64623  0.61436  0.4116699999999999  1.0000
  C   C13       1.0  0.39366999999999985  0.3520499999999999  0.6539099999999998  1.0000
  C   C14       1.0  0.75388  0.66977  0.17586  1.0000
  C   C15       1.0  0.69263  0.23726  0.86033  1.0000
  C   C16       1.0  0.65239  0.32709999999999995  0.6921399999999999  1.0000
  C   C17       1.0  0.2655699999999999  0.62392  0.29324  1.0000
  C   C18       1.0  0.031240000000000014  0.34481000000000006  0.24956  1.0000
  C   C19       1.0  0.33832999999999996  0.24782999999999997  0.7607899999999999  1.0000
  C   C20       1.0  0.12547000000000003  0.29531  0.28176  1.0000
  C   C21       1.0  0.75044  0.6551799999999999  0.96872  1.0000
  C   C22       1.0  0.82413  0.33024  0.24614999999999998  1.0000
  C   C23       1.0  0.032429999999999966  0.2881699999999999  0.3365499999999999  1.0000
  C   C24       1.0  0.7521800000000003  0.66166  0.23919  1.0000
  C   C25       1.0  0.35206  0.65393  0.39368  1.0000
  C   C26       1.0  0.17587  0.75385  0.66975  1.0000
  C   C27       1.0  0.35377  0.58832  0.38564  1.0000
  C   C28       1.0  0.34291  0.97246  0.30026999999999987  1.0000
  C   C29       1.0  0.3011400000000001  0.9394999999999999  0.33285  1.0000
  C   C30       1.0  0.31646  0.0336  0.69739  1.0000
  C   C31       1.0  0.28911999999999993  0.06201  0.30933  1.0000
  C   C32       1.0  0.7608  0.33835  0.24785999999999997  1.0000
  C   C33       1.0  0.34484999999999993  0.24955999999999998  0.031219999999999994  1.0000
  C   C34       1.0  0.30685  0.74183  0.35199  1.0000
  C   C35       1.0  0.062  0.30933  0.2891  1.0000
  C   C36       1.0  0.61438  0.41169  0.64625  1.0000
  C   C37       1.0  0.3036699999999999  0.8737799999999999  0.34106999999999993  1.0000
  C   C38       1.0  0.64801  0.25818  0.69314  1.0000
  C   C39       1.0  0.33658  0.03240999999999999  0.28816  1.0000
  C   C40       1.0  0.69213  0.65238  0.32709  1.0000
  C   C41       1.0  0.36343999999999993  0.8551799999999998  0.35812999999999995  1.0000
  C   C42       1.0  0.22681999999999994  0.9663799999999999  0.75503  1.0000
  C   C43       1.0  0.26776  0.55867  0.2848  1.0000
  C   C44       1.0  0.64794  0.6063199999999999  0.34606  1.0000
  C   C45       1.0  0.53006  0.6863  0.67971  1.0000
  C   C46       1.0  0.23722  0.86032  0.69262  1.0000
  C   C47       1.0  0.6728799999999998  0.34761  0.30789999999999995  1.0000
  C   C48       1.0  0.69885  0.66714  0.0605  1.0000
  C   C49       1.0  0.8737699999999999  0.34109  0.3037  1.0000
  C   C50       1.0  0.7101  0.25551999999999997  0.9290299999999999  1.0000
  C   C51       1.0  0.25819  0.6931  0.64799  1.0000
  C   C52       1.0  0.2898999999999999  0.07096999999999994  0.7444699999999997  1.0000
  C   C53       1.0  0.96876  0.75043  0.65518  1.0000
  C   C54       1.0  0.29528  0.28171  0.12545999999999996  1.0000
  C   C55       1.0  0.24611999999999998  0.8241299999999999  0.33022  1.0000
  C   C56       1.0  0.14483  0.63651  0.64186  1.0000
  C   C57       1.0  0.44129999999999997  0.73226  0.71524  1.0000
  C   C58       1.0  0.029119999999999983  0.7446099999999999  0.6439499999999999  1.0000
  C   C59       1.0  0.74463  0.64396  0.02909  1.0000
  C   C60       1.0  0.31371  0.46995  0.32031  1.0000
  C   C61       1.0  0.63503  0.63694  0.20803999999999997  1.0000
  C   C62       1.0  0.87453  0.71824  0.70469  1.0000
  C   C63       1.0  0.6690399999999996  0.4598599999999999  0.6880799999999998  1.0000
  C   C64       1.0  0.66711  0.06046000000000001  0.69879  1.0000
  C   C65       1.0  0.9663499999999999  0.75503  0.22681999999999994  1.0000
  C   C66       1.0  0.65386  0.39368  0.35209999999999997  1.0000
  C   C67       1.0  0.35198999999999997  0.30685999999999997  0.74182  1.0000
  C   C68       1.0  0.7047199999999999  0.87453  0.7182799999999998  1.0000
  C   C69       1.0  0.06051000000000002  0.69883  0.66713  1.0000
  C   C70       1.0  0.25536  0.97091  0.35604  1.0000
  C   C71       1.0  0.71822  0.7046799999999999  0.8745299999999999  1.0000
  C   C72       1.0  0.41174999999999995  0.64622  0.61437  1.0000
  C   C73       1.0  0.97248  0.3002799999999999  0.3429099999999999  1.0000
  C   C74       1.0  0.86035  0.69262  0.23721  1.0000
  C   C75       1.0  0.73224  0.7151999999999998  0.44132  1.0000
  C   C76       1.0  0.65515  0.9687699999999999  0.7504399999999999  1.0000
  C   C77       1.0  0.33096  0.31192  0.54013  1.0000
  C   C78       1.0  0.67971  0.53004  0.68629  1.0000
  C   C79       1.0  0.28478999999999993  0.26774  0.55868  1.0000
  C   C80       1.0  0.3856199999999999  0.35374999999999995  0.5883099999999999  1.0000
  C   C81       1.0  0.35816  0.3634899999999999  0.8552199999999998  1.0000
  C   C82       1.0  0.36495999999999995  0.7919499999999999  0.36305  1.0000
  C   C83       1.0  0.58825  0.38561999999999996  0.35377  1.0000
  C   C84       1.0  0.2449699999999999  0.03368999999999996  0.7731599999999998  1.0000
  C   C85       1.0  0.6634199999999999  0.71183  0.96758  1.0000
  C   C86       1.0  0.03364999999999999  0.77317  0.24496999999999997  1.0000
  C   C87       1.0  0.9394899999999999  0.33287  0.30116  1.0000
  C   C88       1.0  0.74181  0.3519999999999999  0.30689  1.0000
  C   C89       1.0  0.07096  0.74452  0.2899  1.0000
  C   C90       1.0  0.13965  0.76278  0.30737  1.0000
  C   C91       1.0  0.71182  0.9675  0.66343  1.0000
  C   C92       1.0  0.3271199999999999  0.6920999999999999  0.6523899999999999  1.0000
  C   C93       1.0  0.65891  0.12619999999999998  0.6962599999999999  1.0000
  C   C94       1.0  0.34761000000000003  0.30786  0.6728899999999999  1.0000
  C   C95       1.0  0.65709  0.69973  0.027539999999999995  1.0000
  C   C96       1.0  0.85517  0.35814  0.36347999999999997  1.0000
  C   C97       1.0  0.3329  0.3012  0.93953  1.0000
  C   C98       1.0  0.027519999999999985  0.65708  0.69971  1.0000
  C   C99       1.0  0.68807  0.66902  0.45986  1.0000
  C   C100      1.0  0.29324  0.26556  0.62392  1.0000
  C   C101      1.0  0.3411  0.30373  0.8738  1.0000
  C   C102      1.0  0.71521  0.4413099999999999  0.7322499999999998  1.0000
  C   C103      1.0  0.70676  0.37608  0.73444  1.0000
  C   C104      1.0  0.30934  0.28908  0.062019999999999985  1.0000
  C   C105      1.0  0.31192999999999993  0.54013  0.33098  1.0000
  C   C106      1.0  0.30737  0.13967  0.76274  1.0000
  C   C107      1.0  0.30787  0.6729  0.3476099999999999  1.0000
  C   C108      1.0  0.033639999999999975  0.69745  0.3164499999999999  1.0000
  C   C109      1.0  0.7445299999999999  0.28991  0.07096999999999999  1.0000
  C   C110      1.0  0.97088  0.35605  0.25539  1.0000
  C   C111      1.0  0.64391  0.02912999999999999  0.74458  1.0000
  C   C112      1.0  0.2080699999999999  0.6349799999999998  0.63694  1.0000
  C   C113      1.0  0.3003  0.3429499999999999  0.9725599999999999  1.0000
  C   C114      1.0  0.63693  0.20801999999999995  0.6349999999999999  1.0000
  C   C115      1.0  0.79193  0.36306  0.36501  1.0000
  C   C116      1.0  0.69066  0.9379799999999999  0.71092  1.0000
  C   C117      1.0  0.69315  0.648  0.25817  1.0000
  C   C118      1.0  0.36306999999999995  0.365  0.7919699999999998  1.0000
  C   C119      1.0  0.96757  0.66344  0.71182  1.0000
  C   C120      1.0  0.66977  0.17587000000000003  0.75384  1.0000
  C   C121      1.0  0.75503  0.22683  0.9662999999999999  1.0000
  C   C122      1.0  0.6835499999999998  0.3026  0.96639  1.0000
  C   C123      1.0  0.7731799999999999  0.24497  0.03361999999999999  1.0000
  C   C124      1.0  0.5587000000000001  0.28476  0.26773  1.0000
  C   C125      1.0  0.938  0.71089  0.69067  1.0000
  C   C126      1.0  0.60633  0.34608  0.64795  1.0000
  C   C127      1.0  0.3461399999999999  0.6478999999999999  0.6063199999999997  1.0000
  C   C128      1.0  0.96636  0.6835399999999999  0.30254  1.0000
  C   C129      1.0  0.69971  0.027440000000000003  0.65704  1.0000
  C   C130      1.0  0.28178  0.12546999999999997  0.29530999999999996  1.0000
  C   C131      1.0  0.23919999999999997  0.75214  0.6616399999999999  1.0000
  C   C132      1.0  0.73443  0.70676  0.37608  1.0000
  C   C133      1.0  0.62395  0.29322  0.26558  1.0000
  C   C134      1.0  0.46994  0.32028  0.3137  1.0000
  C   C135      1.0  0.37605999999999995  0.73442  0.7067799999999997  1.0000
  C   C136      1.0  0.30254  0.9663  0.6835099999999998  1.0000
  C   C137      1.0  0.28818  0.33656  0.0325  1.0000
  C   C138      1.0  0.6365599999999999  0.64187  0.14481  1.0000
  C   C139      1.0  0.2554699999999999  0.92902  0.7100799999999999  1.0000
  C   C140      1.0  0.12622999999999995  0.69629  0.65891  1.0000
  C   C141      1.0  0.9290399999999999  0.71009  0.25547  1.0000
  C   C142      1.0  0.71088  0.69067  0.9379799999999998  1.0000
  C   C143      1.0  0.6616699999999999  0.23920999999999995  0.75216  1.0000
  C   C144      1.0  0.6963300000000001  0.65893  0.12622  1.0000
  N   N1        1.0  0.17739999999999997  0.8198599999999999  0.69156  1.0000
  N   N2        1.0  0.18011999999999997  0.8226  0.3084299999999999  1.0000
  N   N3        1.0  0.72618  0.32803  0.18284  1.0000
  N   N4        1.0  0.8198799999999999  0.69157  0.1774  1.0000
  N   N5        1.0  0.8226  0.30844  0.18013  1.0000
  N   N6        1.0  0.6719899999999999  0.2738499999999999  0.8171899999999999  1.0000
  N   N7        1.0  0.1828  0.72619  0.32802  1.0000
  N   N8        1.0  0.30843999999999994  0.18014999999999995  0.8225799999999999  1.0000
  N   N9        1.0  0.69157  0.17740999999999993  0.8198399999999998  1.0000
  N   N10       1.0  0.8171999999999999  0.6719799999999999  0.27381  1.0000
  N   N11       1.0  0.27382  0.81715  0.67196  1.0000
  N   N12       1.0  0.32800999999999997  0.1828  0.72614  1.0000
  O   O1        1.0  0.32214999999999994  0.24287  0.15335999999999997  1.0000
  O   O2        1.0  0.7343599999999998  0.5682999999999999  0.7217899999999999  1.0000
  O   O3        1.0  0.5682999999999999  0.7218099999999997  0.7343699999999997  1.0000
  O   O4        1.0  0.6341999999999999  0.54668  0.64977  1.0000
  O   O5        1.0  0.68533  0.74299  0.85291  1.0000
  O   O6        1.0  0.3658  0.35022  0.45332  1.0000
  O   O7        1.0  0.26565  0.27821  0.4317  1.0000
  O   O8        1.0  0.7431  0.85294  0.6854599999999998  1.0000
  O   O9        1.0  0.5467  0.6497599999999999  0.6341899999999999  1.0000
  O   O10       1.0  0.35023  0.45331  0.36581  1.0000
  O   O11       1.0  0.2569  0.31454  0.14706  1.0000
  O   O12       1.0  0.2782  0.43169  0.26565999999999995  1.0000
  O   O13       1.0  0.4317  0.26562  0.2781799999999999  1.0000
  O   O14       1.0  0.6497699999999996  0.63418  0.54668  1.0000
  O   O15       1.0  0.24289  0.15336  0.32214  1.0000
  O   O16       1.0  0.67785  0.8466299999999999  0.7571199999999999  1.0000
  O   O17       1.0  0.75711  0.67785  0.84663  1.0000
  O   O18       1.0  0.4532999999999999  0.36580999999999997  0.35023  1.0000
  O   O19       1.0  0.15337  0.32213  0.24289999999999998  1.0000
  O   O20       1.0  0.14708  0.25699  0.31463  1.0000
  O   O21       1.0  0.29667  0.29669  0.29669  1.0000
  O   O22       1.0  0.8466299999999999  0.7571  0.67786  1.0000
  O   O23       1.0  0.70333  0.7033099999999999  0.7032999999999999  1.0000
  O   O24       1.0  0.7218  0.73434  0.56831  1.0000
  O   O25       1.0  0.85292  0.6853699999999999  0.7430099999999998  1.0000
  O   O26       1.0  0.31467  0.14708  0.257  1.0000
