data_image0
_chemical_formula_structural       Na4Tb4H96C112N16O32
_chemical_formula_sum              "Na4 Tb4 H96 C112 N16 O32"
_cell_length_a       9.91398
_cell_length_b       18.46362
_cell_length_c       18.3277
_cell_angle_alpha    89.67789999999998
_cell_angle_beta     90.0
_cell_angle_gamma    89.99864

_space_group_name_H-M_alt    "P 1"
_space_group_IT_number       1

loop_
  _space_group_symop_operation_xyz
  'x, y, z'

loop_
  _atom_site_type_symbol
  _atom_site_label
  _atom_site_symmetry_multiplicity
  _atom_site_fract_x
  _atom_site_fract_y
  _atom_site_fract_z
  _atom_site_occupancy
  Na  Na1       1.0  0.07328  0.15645  0.91247  1.0000
  Na  Na2       1.0  0.57323  0.84357  0.08729999999999999  1.0000
  Na  Na3       1.0  0.07998  0.66906  0.5891099999999998  1.0000
  Na  Na4       1.0  0.57998  0.3309399999999999  0.4108899999999999  1.0000
  Tb  Tb1       1.0  0.80359  0.12015999999999999  0.23072999999999996  1.0000
  Tb  Tb2       1.0  0.30362  0.87985  0.7692799999999997  1.0000
  Tb  Tb3       1.0  0.80392  0.62057  0.26955999999999997  1.0000
  Tb  Tb4       1.0  0.30353  0.37976  0.73059  1.0000
  H   H1        1.0  0.0212  0.42953  0.12627  1.0000
  H   H2        1.0  0.95607  0.41099  0.25674  1.0000
  H   H3        1.0  0.8693899999999999  0.28775  0.2950699999999999  1.0000
  H   H4        1.0  0.11858  0.30807  0.00493  1.0000
  H   H5        1.0  0.9491699999999998  0.3060799999999999  0.9787699999999999  1.0000
  H   H6        1.0  0.02384  0.38971999999999996  0.005  1.0000
  H   H7        1.0  0.38792  0.97251  0.21726  1.0000
  H   H8        1.0  0.22911  0.95704  0.11250999999999999  1.0000
  H   H9        1.0  0.0006  0.01669  0.11891999999999998  1.0000
  H   H10       1.0  0.3248  0.00483  0.38693  1.0000
  H   H11       1.0  0.4477  0.03807  0.32519  1.0000
  H   H12       1.0  0.33281  0.09829999999999998  0.3693599999999999  1.0000
  H   H13       1.0  0.60348  0.8930499999999999  0.46782  1.0000
  H   H14       1.0  0.71007  0.006480000000000001  0.5068799999999998  1.0000
  H   H15       1.0  0.79301  0.09525  0.40962  1.0000
  H   H16       1.0  0.6244  0.81481  0.29253999999999997  1.0000
  H   H17       1.0  0.53721  0.81223  0.3777  1.0000
  H   H18       1.0  0.46602999999999994  0.8556699999999998  0.29958  1.0000
  H   H19       1.0  0.19766  0.19468  0.12875  1.0000
  H   H20       1.0  0.3469  0.12197999999999999  0.04746  1.0000
  H   H21       1.0  0.58175  0.09183  0.09051  1.0000
  H   H22       1.0  0.15482  0.25228  0.23809  1.0000
  H   H23       1.0  0.24564  0.22323999999999997  0.31716  1.0000
  H   H24       1.0  0.29606  0.30202  0.27151999999999993  1.0000
  H   H25       1.0  0.5212  0.57047  0.87372  1.0000
  H   H26       1.0  0.4560699999999999  0.58901  0.74326  1.0000
  H   H27       1.0  0.36939  0.71224  0.70493  1.0000
  H   H28       1.0  0.61857  0.6919299999999999  0.99507  1.0000
  H   H29       1.0  0.44916999999999996  0.6939199999999999  0.021219999999999996  1.0000
  H   H30       1.0  0.52383  0.61029  0.99499  1.0000
  H   H31       1.0  0.88793  0.027489999999999997  0.7827299999999999  1.0000
  H   H32       1.0  0.72911  0.04296  0.8874799999999999  1.0000
  H   H33       1.0  0.50059  0.98331  0.8810799999999999  1.0000
  H   H34       1.0  0.82481  0.9951599999999999  0.6130599999999999  1.0000
  H   H35       1.0  0.94771  0.96193  0.6747999999999997  1.0000
  H   H36       1.0  0.83281  0.9016899999999999  0.63064  1.0000
  H   H37       1.0  0.10348  0.10695  0.53218  1.0000
  H   H38       1.0  0.21007000000000003  0.9935199999999998  0.49311  1.0000
  H   H39       1.0  0.293  0.9047499999999999  0.5903799999999998  1.0000
  H   H40       1.0  0.12443000000000001  0.18518  0.70745  1.0000
  H   H41       1.0  0.03722  0.18777  0.62229  1.0000
  H   H42       1.0  0.96604  0.14432  0.70041  1.0000
  H   H43       1.0  0.69766  0.80532  0.87125  1.0000
  H   H44       1.0  0.8468900000000001  0.8780099999999998  0.95254  1.0000
  H   H45       1.0  0.08174  0.90817  0.90949  1.0000
  H   H46       1.0  0.65482  0.7477099999999998  0.7619099999999998  1.0000
  H   H47       1.0  0.74564  0.7767599999999998  0.6828499999999997  1.0000
  H   H48       1.0  0.79605  0.69797  0.7284799999999998  1.0000
  H   H49       1.0  0.021  0.9301299999999999  0.37243  1.0000
  H   H50       1.0  0.9556  0.91193  0.24217999999999998  1.0000
  H   H51       1.0  0.8692899999999999  0.7887399999999998  0.20438999999999993  1.0000
  H   H52       1.0  0.11856  0.8086399999999999  0.49456999999999995  1.0000
  H   H53       1.0  0.94874  0.80655  0.5208799999999998  1.0000
  H   H54       1.0  0.02365  0.88999  0.49378  1.0000
  H   H55       1.0  0.38759  0.47251999999999994  0.28304  1.0000
  H   H56       1.0  0.22876  0.45706  0.38803999999999994  1.0000
  H   H57       1.0  8e-05  0.5169299999999999  0.3809199999999999  1.0000
  H   H58       1.0  0.32438  0.50523  0.11323  1.0000
  H   H59       1.0  0.44758999999999993  0.53833  0.17469  1.0000
  H   H60       1.0  0.33251  0.59864  0.12974  1.0000
  H   H61       1.0  0.60401  0.39345999999999987  0.03301  1.0000
  H   H62       1.0  0.71116  0.50731  0.9937599999999999  1.0000
  H   H63       1.0  0.79251  0.5954999999999998  0.09073999999999999  1.0000
  H   H64       1.0  0.62396  0.3139499999999999  0.20835999999999996  1.0000
  H   H65       1.0  0.53672  0.31233  0.12318  1.0000
  H   H66       1.0  0.46548  0.3552399999999999  0.20113999999999999  1.0000
  H   H67       1.0  0.19896  0.6944699999999999  0.3692399999999999  1.0000
  H   H68       1.0  0.34867  0.62136  0.45087999999999995  1.0000
  H   H69       1.0  0.58366  0.59167  0.40777  1.0000
  H   H70       1.0  0.15526  0.75239  0.25986999999999993  1.0000
  H   H71       1.0  0.24668  0.72514  0.18093  1.0000
  H   H72       1.0  0.29477  0.8038299999999998  0.22647999999999996  1.0000
  H   H73       1.0  0.52099  0.06973999999999997  0.6275699999999997  1.0000
  H   H74       1.0  0.45558  0.08798999999999998  0.75783  1.0000
  H   H75       1.0  0.36949  0.21122  0.7955999999999998  1.0000
  H   H76       1.0  0.61861  0.19126  0.50535  1.0000
  H   H77       1.0  0.44876999999999995  0.19334999999999997  0.47911  1.0000
  H   H78       1.0  0.52372  0.10988999999999999  0.50616  1.0000
  H   H79       1.0  0.88773  0.52753  0.71697  1.0000
  H   H80       1.0  0.72891  0.5429799999999999  0.61196  1.0000
  H   H81       1.0  0.50023  0.48311  0.61906  1.0000
  H   H82       1.0  0.8245  0.49479  0.88678  1.0000
  H   H83       1.0  0.94768  0.4616799999999999  0.8253299999999998  1.0000
  H   H84       1.0  0.83263  0.4013799999999999  0.8702799999999998  1.0000
  H   H85       1.0  0.10407999999999999  0.6064599999999999  0.96693  1.0000
  H   H86       1.0  0.21121  0.49264  0.00621  1.0000
  H   H87       1.0  0.29257  0.40441999999999995  0.90922  1.0000
  H   H88       1.0  0.12399  0.68598  0.7916099999999999  1.0000
  H   H89       1.0  0.03681  0.68756  0.87679  1.0000
  H   H90       1.0  0.96557  0.64468  0.7988299999999999  1.0000
  H   H91       1.0  0.69893  0.30556  0.63071  1.0000
  H   H92       1.0  0.84864  0.37867  0.54905  1.0000
  H   H93       1.0  0.08368  0.4083599999999999  0.59212  1.0000
  H   H94       1.0  0.65537  0.24759999999999996  0.74017  1.0000
  H   H95       1.0  0.74692  0.27491999999999994  0.8190499999999997  1.0000
  H   H96       1.0  0.79501  0.19621999999999995  0.77351  1.0000
  C   C1        1.0  0.93293  0.25208  0.12292  1.0000
  C   C2        1.0  0.97996  0.31902  0.09527  1.0000
  C   C3        1.0  0.98703  0.37653999999999993  0.14507  1.0000
  C   C4        1.0  0.9497799999999998  0.36688  0.21773999999999993  1.0000
  C   C5        1.0  0.902  0.29925  0.23960999999999996  1.0000
  C   C6        1.0  0.9263399999999999  0.18235  0.07927999999999998  1.0000
  C   C7        1.0  0.01931  0.33156  0.01699  1.0000
  C   C8        1.0  0.11646000000000001  0.06519  0.28007  1.0000
  C   C9        1.0  0.24751  0.03544  0.28114  1.0000
  C   C10       1.0  0.28717  0.9961099999999999  0.21936  1.0000
  C   C11       1.0  0.19954  0.9875899999999999  0.16052  1.0000
  C   C12       1.0  0.07294  0.02001  0.1635  1.0000
  C   C13       1.0  0.05385  0.10691  0.34306  1.0000
  C   C14       1.0  0.34367  0.04516999999999999  0.34378  1.0000
  C   C15       1.0  0.67666  0.9668399999999998  0.30188  1.0000
  C   C16       1.0  0.62621  0.9150999999999999  0.35181  1.0000
  C   C17       1.0  0.63981  0.93091  0.42637  1.0000
  C   C18       1.0  0.69969  0.99518  0.44895  1.0000
  C   C19       1.0  0.74535  0.04386  0.39617999999999987  1.0000
  C   C20       1.0  0.67437  0.9589099999999999  0.21924  1.0000
  C   C21       1.0  0.55997  0.8456  0.32966  1.0000
  C   C22       1.0  0.47908  0.18438  0.23275999999999997  1.0000
  C   C23       1.0  0.34568  0.20375999999999997  0.21429  1.0000
  C   C24       1.0  0.2995  0.1807  0.14589  1.0000
  C   C25       1.0  0.38243  0.14041  0.10026999999999997  1.0000
  C   C26       1.0  0.51238  0.12338999999999999  0.12346  1.0000
  C   C27       1.0  0.54785  0.20835  0.30202  1.0000
  C   C28       1.0  0.25486  0.24750999999999995  0.2626499999999999  1.0000
  C   C29       1.0  0.43293  0.74793  0.8770699999999999  1.0000
  C   C30       1.0  0.47995  0.68098  0.90473  1.0000
  C   C31       1.0  0.48701  0.62347  0.85493  1.0000
  C   C32       1.0  0.44977  0.63312  0.78226  1.0000
  C   C33       1.0  0.40199  0.70075  0.7603799999999997  1.0000
  C   C34       1.0  0.42633000000000004  0.81765  0.92072  1.0000
  C   C35       1.0  0.51931  0.66844  0.983  1.0000
  C   C36       1.0  0.61645  0.9348099999999999  0.71992  1.0000
  C   C37       1.0  0.74751  0.96456  0.71886  1.0000
  C   C38       1.0  0.78718  0.0038900000000000007  0.78064  1.0000
  C   C39       1.0  0.69954  0.0124  0.8394799999999998  1.0000
  C   C40       1.0  0.57293  0.9799899999999998  0.83649  1.0000
  C   C41       1.0  0.55385  0.89309  0.65693  1.0000
  C   C42       1.0  0.84367  0.9548199999999999  0.65621  1.0000
  C   C43       1.0  0.17667  0.03316  0.6981199999999997  1.0000
  C   C44       1.0  0.12622  0.08489999999999998  0.64819  1.0000
  C   C45       1.0  0.13981  0.06908  0.5736199999999999  1.0000
  C   C46       1.0  0.19968  0.004810000000000001  0.55105  1.0000
  C   C47       1.0  0.24534000000000003  0.9561399999999999  0.60382  1.0000
  C   C48       1.0  0.17436  0.0411  0.78075  1.0000
  C   C49       1.0  0.05997  0.1544  0.67033  1.0000
  C   C50       1.0  0.97908  0.8156099999999997  0.76724  1.0000
  C   C51       1.0  0.8456700000000001  0.79623  0.7857099999999998  1.0000
  C   C52       1.0  0.79949  0.81929  0.8541099999999999  1.0000
  C   C53       1.0  0.8824200000000001  0.8595899999999997  0.89973  1.0000
  C   C54       1.0  0.01236  0.8766099999999999  0.87654  1.0000
  C   C55       1.0  0.04785  0.7916399999999998  0.69798  1.0000
  C   C56       1.0  0.75486  0.75249  0.73735  1.0000
  C   C57       1.0  0.93401  0.7524  0.3771  1.0000
  C   C58       1.0  0.9800499999999999  0.8194  0.40415  1.0000
  C   C59       1.0  0.98678  0.8771699999999999  0.35394  1.0000
  C   C60       1.0  0.9496700000000001  0.86764  0.28136  1.0000
  C   C61       1.0  0.9019199999999999  0.80009  0.2599  1.0000
  C   C62       1.0  0.92636  0.68221  0.42097  1.0000
  C   C63       1.0  0.01901  0.8318499999999999  0.48230999999999996  1.0000
  C   C64       1.0  0.11547  0.56603  0.21937  1.0000
  C   C65       1.0  0.24655  0.53597  0.21851  1.0000
  C   C66       1.0  0.28675  0.49632999999999994  0.28058  1.0000
  C   C67       1.0  0.1994  0.48777  0.33968  1.0000
  C   C68       1.0  0.07264  0.52014  0.3363599999999999  1.0000
  C   C69       1.0  0.05317999999999999  0.6088499999999999  0.15644  1.0000
  C   C70       1.0  0.34346  0.54555  0.15595  1.0000
  C   C71       1.0  0.67597  0.46618999999999994  0.19865  1.0000
  C   C72       1.0  0.62592  0.4147899999999999  0.1489  1.0000
  C   C73       1.0  0.64001  0.43108999999999986  0.07429999999999999  1.0000
  C   C74       1.0  0.69999  0.49551999999999996  0.05164  1.0000
  C   C75       1.0  0.745  0.54393  0.10426999999999999  1.0000
  C   C76       1.0  0.67489  0.45781999999999995  0.28129  1.0000
  C   C77       1.0  0.5595  0.34515  0.17123  1.0000
  C   C78       1.0  0.48131  0.6865499999999999  0.26555  1.0000
  C   C79       1.0  0.34751  0.70513  0.28383  1.0000
  C   C80       1.0  0.30119  0.6811199999999998  0.35221  1.0000
  C   C81       1.0  0.38416  0.64047  0.3980299999999999  1.0000
  C   C82       1.0  0.51427  0.62386  0.37492  1.0000
  C   C83       1.0  0.55177  0.71239  0.19704999999999998  1.0000
  C   C84       1.0  0.25562  0.7488299999999998  0.23545  1.0000
  C   C85       1.0  0.43405  0.24748999999999996  0.6229099999999997  1.0000
  C   C86       1.0  0.48014999999999997  0.18048  0.59584  1.0000
  C   C87       1.0  0.48684  0.12271999999999998  0.6460499999999999  1.0000
  C   C88       1.0  0.44975  0.13229  0.7186399999999997  1.0000
  C   C89       1.0  0.40209  0.19987  0.7400999999999998  1.0000
  C   C90       1.0  0.42635  0.31767  0.57899  1.0000
  C   C91       1.0  0.51909  0.16803  0.5176399999999999  1.0000
  C   C92       1.0  0.61564  0.43401  0.7805899999999998  1.0000
  C   C93       1.0  0.74672  0.46407  0.78147  1.0000
  C   C94       1.0  0.78691  0.50371  0.7193999999999999  1.0000
  C   C95       1.0  0.69955  0.51227  0.66032  1.0000
  C   C96       1.0  0.57278  0.47989999999999994  0.6636199999999998  1.0000
  C   C97       1.0  0.55329  0.3911999999999999  0.84351  1.0000
  C   C98       1.0  0.8435599999999999  0.4544699999999999  0.84406  1.0000
  C   C99       1.0  0.17595  0.53377  0.8013099999999997  1.0000
  C   C100      1.0  0.12597  0.58515  0.85106  1.0000
  C   C101      1.0  0.14007  0.56882  0.9256499999999999  1.0000
  C   C102      1.0  0.20005  0.50441  0.94833  1.0000
  C   C103      1.0  0.24504  0.45598999999999995  0.8957199999999997  1.0000
  C   C104      1.0  0.17481  0.5422199999999999  0.71869  1.0000
  C   C105      1.0  0.05958  0.6547599999999999  0.8287399999999998  1.0000
  C   C106      1.0  0.9815199999999998  0.31346  0.73436  1.0000
  C   C107      1.0  0.84764  0.29491  0.71613  1.0000
  C   C108      1.0  0.8012  0.31891  0.6477399999999998  1.0000
  C   C109      1.0  0.88414  0.35957  0.60189  1.0000
  C   C110      1.0  0.014260000000000002  0.3762  0.62498  1.0000
  C   C111      1.0  0.05218  0.28753  0.80281  1.0000
  C   C112      1.0  0.75578  0.25121  0.76454  1.0000
  N   N1        1.0  0.8928000000000001  0.24360999999999997  0.19302999999999998  1.0000
  N   N2        1.0  0.03317  0.05827  0.22189  1.0000
  N   N3        1.0  0.7343  0.02944  0.32458999999999993  1.0000
  N   N4        1.0  0.55972  0.14545  0.1882  1.0000
  N   N5        1.0  0.39279  0.7563899999999998  0.80696  1.0000
  N   N6        1.0  0.53317  0.94172  0.77811  1.0000
  N   N7        1.0  0.23429000000000003  0.97056  0.6754099999999998  1.0000
  N   N8        1.0  0.05971  0.85454  0.8118  1.0000
  N   N9        1.0  0.89344  0.74437  0.30703  1.0000
  N   N10       1.0  0.0324  0.5584799999999998  0.27766  1.0000
  N   N11       1.0  0.73331  0.52905  0.17581999999999995  1.0000
  N   N12       1.0  0.56149  0.64687  0.31021  1.0000
  N   N13       1.0  0.39356  0.25561  0.69299  1.0000
  N   N14       1.0  0.53253  0.44156  0.72232  1.0000
  N   N15       1.0  0.23327  0.47091  0.82418  1.0000
  N   N16       1.0  0.06153999999999999  0.35319  0.6896699999999999  1.0000
  O   O1        1.0  0.85222  0.13154  0.10565999999999998  1.0000
  O   O2        1.0  0.99631  0.17769  0.02242  1.0000
  O   O3        1.0  0.9533600000000001  0.14780999999999994  0.32434  1.0000
  O   O4        1.0  0.09901  0.09801  0.40595  1.0000
  O   O5        1.0  0.73339  0.009279999999999997  0.18255  1.0000
  O   O6        1.0  0.61586  0.9052  0.19161999999999996  1.0000
  O   O7        1.0  0.67568  0.19625999999999993  0.30602  1.0000
  O   O8        1.0  0.47972  0.23956  0.35003  1.0000
  O   O9        1.0  0.3522  0.86846  0.89434  1.0000
  O   O10       1.0  0.4963099999999999  0.8222999999999999  0.9775799999999998  1.0000
  O   O11       1.0  0.4533400000000001  0.8522  0.6756499999999999  1.0000
  O   O12       1.0  0.59901  0.9019799999999998  0.5940299999999998  1.0000
  O   O13       1.0  0.23339  0.99073  0.81744  1.0000
  O   O14       1.0  0.11579  0.0948  0.80838  1.0000
  O   O15       1.0  0.17568  0.80373  0.69397  1.0000
  O   O16       1.0  0.97972  0.76042  0.64996  1.0000
  O   O17       1.0  0.85241  0.6325199999999999  0.39308  1.0000
  O   O18       1.0  0.9944  0.6759399999999999  0.4784299999999999  1.0000
  O   O19       1.0  0.94942  0.64739  0.17429999999999995  1.0000
  O   O20       1.0  0.10185999999999999  0.6029  0.09407  1.0000
  O   O21       1.0  0.73306  0.50892  0.31672  1.0000
  O   O22       1.0  0.61917  0.40332999999999997  0.30975  1.0000
  O   O23       1.0  0.67729  0.6954899999999998  0.19154  1.0000
  O   O24       1.0  0.48656  0.7491299999999997  0.15139999999999998  1.0000
  O   O25       1.0  0.35252  0.36741  0.6069  1.0000
  O   O26       1.0  0.49441000000000007  0.32401  0.52152  1.0000
  O   O27       1.0  0.44958  0.35264  0.8256499999999999  1.0000
  O   O28       1.0  0.60185  0.3971399999999999  0.9059099999999999  1.0000
  O   O29       1.0  0.23301  0.49116999999999994  0.6831999999999998  1.0000
  O   O30       1.0  0.11904  0.5967199999999998  0.6902899999999997  1.0000
  O   O31       1.0  0.17802  0.30393  0.80803  1.0000
  O   O32       1.0  0.9867000000000001  0.25112  0.8486199999999999  1.0000
