data_image0
_chemical_formula_structural       Co8H104C136O56
_chemical_formula_sum              "Co8 H104 C136 O56"
_cell_length_a       10.22333
_cell_length_b       18.05992
_cell_length_c       27.998140000000003
_cell_angle_alpha    90.07309
_cell_angle_beta     98.47698
_cell_angle_gamma    90.06572999999999

_symmetry_space_group_name_H-M    'P 1'
_symmetry_Int_Tables_number       1

loop_
  _symmetry_equiv_pos_as_xyz
  'x,y,z'

loop_
  _atom_site_type_symbol
  _atom_site_label
  _atom_site_symmetry_multiplicity
  _atom_site_fract_x
  _atom_site_fract_y
  _atom_site_fract_z
  _atom_site_occupancy
  Co  Co1       1.0  0.4767  0.68713  0.31128  1.0000
  Co  Co2       1.0  0.62501  0.76421  0.23519  1.0000
  Co  Co3       1.0  0.52253  0.18704  0.18932  1.0000
  Co  Co4       1.0  0.37285  0.26462  0.2651700000000001  1.0000
  Co  Co5       1.0  0.52328  0.3128600000000001  0.68871  1.0000
  Co  Co6       1.0  0.37497  0.23579000000000003  0.76479  1.0000
  Co  Co7       1.0  0.47744000000000003  0.81291  0.81067  1.0000
  Co  Co8       1.0  0.62711  0.7353600000000001  0.73483  1.0000
  H   H1        1.0  0.22554000000000002  0.57904  0.4124  1.0000
  H   H2        1.0  0.803  0.60548  0.4019  1.0000
  H   H3        1.0  0.013000000000000041  0.70411  0.29557  1.0000
  H   H4        1.0  0.5191600000000001  0.98834  0.25814000000000004  1.0000
  H   H5        1.0  0.5066600000000001  0.8780000000000001  0.3936000000000001  1.0000
  H   H6        1.0  0.50486  0.1162  0.3874300000000001  1.0000
  H   H7        1.0  0.16246000000000005  0.66409  0.4748100000000001  1.0000
  H   H8        1.0  0.1264700000000001  0.52023  0.6231100000000002  1.0000
  H   H9        1.0  0.28082000000000007  0.9433  0.39746  1.0000
  H   H10       1.0  0.7414700000000001  0.04253  0.4265400000000001  1.0000
  H   H11       1.0  0.36652000000000007  0.72156  0.4886000000000001  1.0000
  H   H12       1.0  0.38684000000000013  0.8027  0.5262800000000001  1.0000
  H   H13       1.0  0.22618  0.77788  0.49631  1.0000
  H   H14       1.0  0.9001800000000001  0.12476  0.41065  1.0000
  H   H15       1.0  0.07357000000000005  0.11037  0.4305200000000001  1.0000
  H   H16       1.0  0.96378  0.03217  0.4211800000000001  1.0000
  H   H17       1.0  0.07046000000000002  0.92698  0.35597  1.0000
  H   H18       1.0  0.9780500000000002  0.84385  0.36223000000000005  1.0000
  H   H19       1.0  0.15558000000000005  0.84174  0.3723100000000001  1.0000
  H   H20       1.0  0.3050100000000001  0.54554  0.6785000000000002  1.0000
  H   H21       1.0  0.16411000000000017  0.60224  0.6844400000000003  1.0000
  H   H22       1.0  0.3278700000000001  0.63392  0.7079000000000002  1.0000
  H   H23       1.0  0.78732  0.76378  0.17579000000000006  1.0000
  H   H24       1.0  0.8394300000000001  0.82342  0.21545000000000003  1.0000
  H   H25       1.0  0.8461000000000002  0.64491  0.17287000000000005  1.0000
  H   H26       1.0  0.6981400000000001  0.66564  0.15947000000000003  1.0000
  H   H27       1.0  0.7716600000000001  0.08064  0.08757  1.0000
  H   H28       1.0  0.19498000000000001  0.10378  0.09797000000000003  1.0000
  H   H29       1.0  0.9877400000000001  0.2061  0.20379000000000005  1.0000
  H   H30       1.0  0.4782300000000001  0.48771  0.24179  1.0000
  H   H31       1.0  0.49114000000000024  0.37726  0.10625000000000001  1.0000
  H   H32       1.0  0.49522000000000005  0.61545  0.11278000000000002  1.0000
  H   H33       1.0  0.8350600000000002  0.1631  0.02509  1.0000
  H   H34       1.0  0.8786900000000001  0.02103  0.87662  1.0000
  H   H35       1.0  0.7185700000000002  0.44387  0.10253  1.0000
  H   H36       1.0  0.25791  0.54097  0.07335  1.0000
  H   H37       1.0  0.6354000000000001  0.22157  0.011260000000000003  1.0000
  H   H38       1.0  0.6143300000000003  0.30239000000000005  0.9735100000000002  1.0000
  H   H39       1.0  0.77545  0.27804  0.0031800000000000005  1.0000
  H   H40       1.0  0.09958000000000002  0.62447  0.0886  1.0000
  H   H41       1.0  0.9263300000000001  0.60775  0.06962  1.0000
  H   H42       1.0  0.038640000000000015  0.53097  0.07982000000000003  1.0000
  H   H43       1.0  0.92858  0.42976  0.14425000000000002  1.0000
  H   H44       1.0  0.02334  0.34753  0.13793  1.0000
  H   H45       1.0  0.8460600000000001  0.3437  0.12747  1.0000
  H   H46       1.0  0.6997300000000001  0.04509  0.8213600000000001  1.0000
  H   H47       1.0  0.84087  0.10150000000000002  0.8151100000000002  1.0000
  H   H48       1.0  0.67728  0.13303  0.79155  1.0000
  H   H49       1.0  0.20824000000000004  0.26308  0.32401  1.0000
  H   H50       1.0  0.15563  0.32326  0.28464  1.0000
  H   H51       1.0  0.15511000000000003  0.14362  0.32849000000000006  1.0000
  H   H52       1.0  0.30276000000000003  0.16643  0.3407100000000001  1.0000
  H   H53       1.0  0.77445  0.42096  0.5876  1.0000
  H   H54       1.0  0.19699000000000005  0.39452  0.5981000000000001  1.0000
  H   H55       1.0  0.98698  0.29589  0.70443  1.0000
  H   H56       1.0  0.4808400000000001  0.01165  0.7418600000000002  1.0000
  H   H57       1.0  0.49334  0.12199  0.6064100000000002  1.0000
  H   H58       1.0  0.4951300000000001  0.88379  0.61257  1.0000
  H   H59       1.0  0.83752  0.33592  0.52519  1.0000
  H   H60       1.0  0.87351  0.47978  0.3768900000000001  1.0000
  H   H61       1.0  0.7191800000000002  0.0567  0.60254  1.0000
  H   H62       1.0  0.25852  0.95746  0.57346  1.0000
  H   H63       1.0  0.6334800000000003  0.27844  0.5114  1.0000
  H   H64       1.0  0.6131600000000001  0.1973  0.47372000000000003  1.0000
  H   H65       1.0  0.77382  0.22212  0.50369  1.0000
  H   H66       1.0  0.09982  0.87524  0.58935  1.0000
  H   H67       1.0  0.9264200000000001  0.88962  0.56948  1.0000
  H   H68       1.0  0.03621  0.96783  0.57882  1.0000
  H   H69       1.0  0.92954  0.07302  0.64403  1.0000
  H   H70       1.0  0.021949999999999997  0.15615  0.63777  1.0000
  H   H71       1.0  0.8444200000000001  0.15826000000000004  0.62769  1.0000
  H   H72       1.0  0.6949800000000002  0.45445  0.3215  1.0000
  H   H73       1.0  0.83588  0.39776  0.31555  1.0000
  H   H74       1.0  0.67213  0.36607  0.2921000000000001  1.0000
  H   H75       1.0  0.21273000000000003  0.23622  0.8242100000000001  1.0000
  H   H76       1.0  0.16055000000000003  0.1766  0.78455  1.0000
  H   H77       1.0  0.15390000000000006  0.35511  0.82714  1.0000
  H   H78       1.0  0.30186000000000013  0.33436  0.8405200000000003  1.0000
  H   H79       1.0  0.22829000000000016  0.91935  0.9124300000000002  1.0000
  H   H80       1.0  0.8049700000000001  0.89619  0.90201  1.0000
  H   H81       1.0  0.012259999999999972  0.7939  0.79619  1.0000
  H   H82       1.0  0.52175  0.51228  0.7582  1.0000
  H   H83       1.0  0.50877  0.62269  0.8937500000000003  1.0000
  H   H84       1.0  0.50478  0.3845  0.8872  1.0000
  H   H85       1.0  0.1649300000000001  0.8368700000000001  0.9749000000000002  1.0000
  H   H86       1.0  0.12127000000000002  0.97896  0.12337000000000002  1.0000
  H   H87       1.0  0.28142  0.55611  0.89747  1.0000
  H   H88       1.0  0.74209  0.45902  0.9266400000000001  1.0000
  H   H89       1.0  0.3646  0.77842  0.98873  1.0000
  H   H90       1.0  0.38567  0.6976  0.02649  1.0000
  H   H91       1.0  0.22455000000000008  0.72195  0.99681  1.0000
  H   H92       1.0  0.90043  0.37552  0.9114000000000002  1.0000
  H   H93       1.0  0.07367000000000005  0.39225  0.93037  1.0000
  H   H94       1.0  0.9613600000000001  0.46903  0.9201800000000002  1.0000
  H   H95       1.0  0.07142000000000003  0.57024  0.85575  1.0000
  H   H96       1.0  0.97666  0.65247  0.86207  1.0000
  H   H97       1.0  0.15394000000000005  0.65629  0.87252  1.0000
  H   H98       1.0  0.3002700000000001  0.9549099999999999  0.17863000000000004  1.0000
  H   H99       1.0  0.15912000000000004  0.8984899999999999  0.18489000000000003  1.0000
  H   H100      1.0  0.32271  0.86697  0.20845  1.0000
  H   H101      1.0  0.7917200000000002  0.73692  0.6759900000000001  1.0000
  H   H102      1.0  0.84434  0.67675  0.71536  1.0000
  H   H103      1.0  0.84489  0.85637  0.67152  1.0000
  H   H104      1.0  0.69724  0.83357  0.6593  1.0000
  C   C1        1.0  0.7654400000000002  0.68278  0.31959  1.0000
  C   C2        1.0  0.25577  0.66281  0.3335300000000001  1.0000
  C   C3        1.0  0.13152  0.64426  0.35272  1.0000
  C   C4        1.0  0.13203000000000006  0.6011  0.3944600000000001  1.0000
  C   C5        1.0  0.50444  0.9992100000000002  0.4497400000000001  1.0000
  C   C6        1.0  0.8940400000000001  0.65686  0.34585000000000005  1.0000
  C   C7        1.0  0.51137  0.92576  0.32351  1.0000
  C   C8        1.0  0.89577  0.61556  0.3883500000000001  1.0000
  C   C9        1.0  0.51007  0.059410000000000004  0.31971  1.0000
  C   C10       1.0  0.07890000000000004  0.56542  0.5023500000000001  1.0000
  C   C11       1.0  0.009670000000000022  0.54173  0.45735000000000003  1.0000
  C   C12       1.0  0.012349999999999998  0.6717000000000001  0.32819  1.0000
  C   C13       1.0  0.013970000000000052  0.58658  0.4130300000000001  1.0000
  C   C14       1.0  0.5079  0.99747  0.3969800000000001  1.0000
  C   C15       1.0  0.5150400000000002  0.9908200000000001  0.29667000000000004  1.0000
  C   C16       1.0  0.50817  0.9292299999999999  0.37329  1.0000
  C   C17       1.0  0.514  0.85218  0.30012000000000005  1.0000
  C   C18       1.0  0.06874000000000004  0.52336  0.54549  1.0000
  C   C19       1.0  0.50705  0.06262  0.3697  1.0000
  C   C20       1.0  0.61563  0.02478  0.48154  1.0000
  C   C21       1.0  0.15747  0.63127  0.50684  1.0000
  C   C22       1.0  0.38971000000000006  0.97343  0.4673200000000001  1.0000
  C   C23       1.0  0.13691000000000011  0.55035  0.5904600000000002  1.0000
  C   C24       1.0  0.27734000000000003  0.9454700000000001  0.43594000000000005  1.0000
  C   C25       1.0  0.22611000000000003  0.6542  0.5503500000000001  1.0000
  C   C26       1.0  0.7354600000000001  0.047  0.4647800000000001  1.0000
  C   C27       1.0  0.16631  0.92044  0.45335  1.0000
  C   C28       1.0  0.21493000000000012  0.61277  0.5934500000000003  1.0000
  C   C29       1.0  0.84221  0.07353  0.4958700000000001  1.0000
  C   C30       1.0  0.32145  0.75622  0.5141  1.0000
  C   C31       1.0  0.9737000000000001  0.09024000000000001  0.4330900000000001  1.0000
  C   C32       1.0  0.06761000000000006  0.8749700000000001  0.3762300000000001  1.0000
  C   C33       1.0  0.26846000000000003  0.60282  0.67889  1.0000
  C   C34       1.0  0.50039  0.12785  0.28994  1.0000
  C   C35       1.0  0.23478  0.18144  0.18024  1.0000
  C   C36       1.0  0.7438300000000001  0.16607  0.16619  1.0000
  C   C37       1.0  0.8674800000000003  0.14648000000000003  0.14685000000000006  1.0000
  C   C38       1.0  0.8657800000000001  0.10240000000000002  0.10533  1.0000
  C   C39       1.0  0.49504000000000015  0.49870000000000003  0.05030000000000001  1.0000
  C   C40       1.0  0.10545  0.15674  0.15385  1.0000
  C   C41       1.0  0.48512  0.42517  0.17632000000000006  1.0000
  C   C42       1.0  0.10257  0.11487999999999998  0.11151000000000003  1.0000
  C   C43       1.0  0.48973  0.55883  0.18051  1.0000
  C   C44       1.0  0.9205700000000002  0.06512  0.99754  1.0000
  C   C45       1.0  0.98807  0.0413  0.042710000000000005  1.0000
  C   C46       1.0  0.9874700000000001  0.17321  0.17128000000000004  1.0000
  C   C47       1.0  0.9835600000000002  0.08651  0.08692  1.0000
  C   C48       1.0  0.49113  0.49674999999999997  0.10307000000000002  1.0000
  C   C49       1.0  0.48296  0.49027000000000004  0.20331  1.0000
  C   C50       1.0  0.48956000000000005  0.42851  0.12661  1.0000
  C   C51       1.0  0.48197  0.35184  0.19987000000000002  1.0000
  C   C52       1.0  0.9330600000000003  0.0235  0.9543800000000002  1.0000
  C   C53       1.0  0.49268  0.56193  0.13049  1.0000
  C   C54       1.0  0.38414000000000004  0.52401  0.018430000000000002  1.0000
  C   C55       1.0  0.84172  0.13073  0.9929600000000002  1.0000
  C   C56       1.0  0.6100900000000001  0.47378  0.03268  1.0000
  C   C57       1.0  0.86662  0.05072  0.90931  1.0000
  C   C58       1.0  0.7224900000000001  0.44642  0.0641  1.0000
  C   C59       1.0  0.7748200000000001  0.15399  0.94931  1.0000
  C   C60       1.0  0.26407  0.54557  0.03515  1.0000
  C   C61       1.0  0.8342400000000002  0.42265  0.04671  1.0000
  C   C62       1.0  0.78837  0.11294  0.9062  1.0000
  C   C63       1.0  0.15700000000000003  0.57121  0.004020000000000001  1.0000
  C   C64       1.0  0.67996  0.25611  0.9856  1.0000
  C   C65       1.0  0.026580000000000003  0.58845  0.067  1.0000
  C   C66       1.0  0.9331900000000001  0.37791  0.12385000000000002  1.0000
  C   C67       1.0  0.7365500000000003  0.10233  0.82071  1.0000
  C   C68       1.0  0.50113  0.62725  0.21048000000000003  1.0000
  C   C69       1.0  0.23454  0.31721  0.6804  1.0000
  C   C70       1.0  0.7442200000000001  0.33718  0.6664700000000002  1.0000
  C   C71       1.0  0.86847  0.35575  0.64728  1.0000
  C   C72       1.0  0.86797  0.39890000000000003  0.60553  1.0000
  C   C73       1.0  0.4955600000000001  0.00079  0.55026  1.0000
  C   C74       1.0  0.10595000000000014  0.34315000000000007  0.6541500000000002  1.0000
  C   C75       1.0  0.48862  0.07423  0.67649  1.0000
  C   C76       1.0  0.1042300000000001  0.38445  0.6116400000000002  1.0000
  C   C77       1.0  0.48994000000000004  0.9405800000000001  0.68029  1.0000
  C   C78       1.0  0.92108  0.43459000000000003  0.49765000000000004  1.0000
  C   C79       1.0  0.99032  0.4582800000000001  0.5426500000000001  1.0000
  C   C80       1.0  0.9876400000000001  0.3283  0.6718  1.0000
  C   C81       1.0  0.98602  0.41342000000000007  0.58697  1.0000
  C   C82       1.0  0.49210000000000004  0.00252  0.6030200000000001  1.0000
  C   C83       1.0  0.48497  0.00917  0.7033300000000002  1.0000
  C   C84       1.0  0.4918300000000002  0.07076  0.6267100000000002  1.0000
  C   C85       1.0  0.48598  0.14781  0.69988  1.0000
  C   C86       1.0  0.93125  0.47665  0.45451000000000014  1.0000
  C   C87       1.0  0.49294000000000004  0.93737  0.6303  1.0000
  C   C88       1.0  0.38437000000000004  0.9752099999999999  0.5184700000000001  1.0000
  C   C89       1.0  0.8425200000000003  0.36874  0.4931600000000001  1.0000
  C   C90       1.0  0.6102900000000001  0.02656  0.53268  1.0000
  C   C91       1.0  0.86308  0.44966  0.40954  1.0000
  C   C92       1.0  0.72266  0.05453  0.5640700000000001  1.0000
  C   C93       1.0  0.77388  0.34581  0.44965  1.0000
  C   C94       1.0  0.26453000000000004  0.9529900000000001  0.53522  1.0000
  C   C95       1.0  0.83369  0.07955  0.54665  1.0000
  C   C96       1.0  0.7850600000000001  0.38724  0.40655  1.0000
  C   C97       1.0  0.15778000000000003  0.92647  0.50414  1.0000
  C   C98       1.0  0.6785500000000002  0.24379  0.48589  1.0000
  C   C99       1.0  0.02629000000000001  0.9097500000000001  0.56691  1.0000
  C   C100      1.0  0.9323900000000003  0.12503  0.6237700000000002  1.0000
  C   C101      1.0  0.7315300000000001  0.39717  0.32111  1.0000
  C   C102      1.0  0.4996  0.87214  0.71005  1.0000
  C   C103      1.0  0.76519  0.81853  0.81974  1.0000
  C   C104      1.0  0.2561500000000001  0.83394  0.8338100000000003  1.0000
  C   C105      1.0  0.13248  0.85352  0.85314  1.0000
  C   C106      1.0  0.13418000000000002  0.89759  0.89466  1.0000
  C   C107      1.0  0.50496  0.50126  0.9496900000000003  1.0000
  C   C108      1.0  0.8945100000000002  0.84325  0.8461300000000003  1.0000
  C   C109      1.0  0.5146800000000001  0.5748  0.82367  1.0000
  C   C110      1.0  0.8973800000000001  0.88511  0.88847  1.0000
  C   C111      1.0  0.51031  0.44114  0.81948  1.0000
  C   C112      1.0  0.07938  0.93485  0.00245  1.0000
  C   C113      1.0  0.011870000000000082  0.9586600000000001  0.95729  1.0000
  C   C114      1.0  0.012490000000000081  0.82679  0.8287000000000002  1.0000
  C   C115      1.0  0.016389999999999995  0.91348  0.91306  1.0000
  C   C116      1.0  0.50886  0.5032  0.89692  1.0000
  C   C117      1.0  0.51696  0.50971  0.79668  1.0000
  C   C118      1.0  0.51032  0.57145  0.8733800000000003  1.0000
  C   C119      1.0  0.5179800000000002  0.64814  0.8001500000000002  1.0000
  C   C120      1.0  0.06688000000000001  0.97647  0.045610000000000005  1.0000
  C   C121      1.0  0.50734  0.43803  0.86949  1.0000
  C   C122      1.0  0.6158600000000002  0.47596  0.9815600000000002  1.0000
  C   C123      1.0  0.15825  0.86924  0.00704  1.0000
  C   C124      1.0  0.3899100000000001  0.52619  0.9673100000000002  1.0000
  C   C125      1.0  0.13333  0.94926  0.09068  1.0000
  C   C126      1.0  0.27751000000000003  0.55356  0.9359000000000001  1.0000
  C   C127      1.0  0.22516000000000003  0.846  0.05068  1.0000
  C   C128      1.0  0.7359400000000003  0.45441  0.96485  1.0000
  C   C129      1.0  0.16576000000000005  0.57734  0.9532800000000001  1.0000
  C   C130      1.0  0.21161  0.8870499999999999  0.0938  1.0000
  C   C131      1.0  0.8430100000000003  0.42878  0.9959700000000002  1.0000
  C   C132      1.0  0.32004  0.74388  0.014390000000000003  1.0000
  C   C133      1.0  0.9734300000000001  0.4115400000000001  0.9330000000000002  1.0000
  C   C134      1.0  0.06681  0.62208  0.87615  1.0000
  C   C135      1.0  0.26344000000000006  0.8976700000000001  0.17929000000000003  1.0000
  C   C136      1.0  0.49890000000000007  0.37274  0.7895  1.0000
  O   O1        1.0  0.36855999999999994  0.64106  0.35683  1.0000
  O   O2        1.0  0.25358  0.70028  0.2952  1.0000
  O   O3        1.0  0.66152  0.66298  0.33594  1.0000
  O   O4        1.0  0.5460700000000002  0.85125  0.25712  1.0000
  O   O5        1.0  0.7675  0.72279  0.28143  1.0000
  O   O6        1.0  0.48732000000000014  0.79563  0.3236600000000001  1.0000
  O   O7        1.0  0.5391  0.12603  0.24916000000000005  1.0000
  O   O8        1.0  0.058330000000000014  0.8890800000000001  0.4261  1.0000
  O   O9        1.0  0.30539  0.71541  0.55694  1.0000
  O   O10       1.0  0.28421  0.64083  0.63515  1.0000
  O   O11       1.0  0.9595900000000002  0.09631  0.48326  1.0000
  O   O12       1.0  0.44703  0.1852  0.30752  1.0000
  O   O13       1.0  0.76004  0.8075900000000001  0.19437000000000001  1.0000
  O   O14       1.0  0.78736  0.6777300000000002  0.15225000000000005  1.0000
  O   O15       1.0  0.63078  0.14426  0.14301  1.0000
  O   O16       1.0  0.74668  0.20378  0.20451  1.0000
  O   O17       1.0  0.33839000000000014  0.15936  0.16454000000000002  1.0000
  O   O18       1.0  0.45326000000000005  0.35143  0.24333000000000005  1.0000
  O   O19       1.0  0.23307  0.2227  0.21792  1.0000
  O   O20       1.0  0.5054600000000001  0.29476  0.17618000000000006  1.0000
  O   O21       1.0  0.46642  0.62544  0.25193  1.0000
  O   O22       1.0  0.9427200000000002  0.39241  0.07407000000000002  1.0000
  O   O23       1.0  0.69522  0.215  0.94276  1.0000
  O   O24       1.0  0.72103  0.14101000000000002  0.86428  1.0000
  O   O25       1.0  0.0392  0.59286  0.01664  1.0000
  O   O26       1.0  0.5523200000000001  0.68486  0.19236000000000006  1.0000
  O   O27       1.0  0.23498000000000005  0.30722  0.3055700000000001  1.0000
  O   O28       1.0  0.2134200000000001  0.17789  0.3481300000000001  1.0000
  O   O29       1.0  0.63144  0.35894  0.64316  1.0000
  O   O30       1.0  0.7464200000000001  0.29972  0.7048  1.0000
  O   O31       1.0  0.33847  0.33701  0.66405  1.0000
  O   O32       1.0  0.4538900000000003  0.14874  0.7428700000000003  1.0000
  O   O33       1.0  0.23248000000000002  0.27719  0.71856  1.0000
  O   O34       1.0  0.51267  0.20436  0.6763400000000002  1.0000
  O   O35       1.0  0.46090000000000003  0.87396  0.7508400000000002  1.0000
  O   O36       1.0  0.9416700000000001  0.11091  0.5739  1.0000
  O   O37       1.0  0.6946100000000001  0.28459  0.4430600000000001  1.0000
  O   O38       1.0  0.7157900000000001  0.35916  0.36485  1.0000
  O   O39       1.0  0.04041  0.9036900000000001  0.5167400000000001  1.0000
  O   O40       1.0  0.5529600000000002  0.8147900000000001  0.6924700000000003  1.0000
  O   O41       1.0  0.23997000000000013  0.19241  0.8056200000000002  1.0000
  O   O42       1.0  0.21264000000000002  0.32227  0.84774  1.0000
  O   O43       1.0  0.3692  0.85573  0.85698  1.0000
  O   O44       1.0  0.2533100000000001  0.79622  0.7954900000000003  1.0000
  O   O45       1.0  0.66158  0.8405900000000001  0.83545  1.0000
  O   O46       1.0  0.5466  0.64856  0.75667  1.0000
  O   O47       1.0  0.7669200000000002  0.77732  0.7820400000000002  1.0000
  O   O48       1.0  0.49465  0.70522  0.82386  1.0000
  O   O49       1.0  0.53358  0.37456  0.74804  1.0000
  O   O50       1.0  0.05729000000000009  0.60758  0.9259300000000003  1.0000
  O   O51       1.0  0.30478  0.78499  0.05723000000000002  1.0000
  O   O52       1.0  0.27896  0.85899  0.13572  1.0000
  O   O53       1.0  0.9608100000000003  0.40714  0.98336  1.0000
  O   O54       1.0  0.4477  0.31513  0.8076200000000002  1.0000
  O   O55       1.0  0.76499  0.6927700000000001  0.69441  1.0000
  O   O56       1.0  0.7865800000000001  0.82212  0.65188  1.0000
