data_image0
_chemical_formula_structural       Zn16H80C160N8O68
_chemical_formula_sum              "Zn16 H80 C160 N8 O68"
_cell_length_a       10.51573
_cell_length_b       26.11127
_cell_length_c       32.31748000000001
_cell_angle_alpha    89.82246
_cell_angle_beta     90.04188
_cell_angle_gamma    89.54534

_space_group_name_H-M_alt    "P 1"
_space_group_IT_number       1

loop_
  _space_group_symop_operation_xyz
  'x, y, z'

loop_
  _atom_site_type_symbol
  _atom_site_label
  _atom_site_symmetry_multiplicity
  _atom_site_fract_x
  _atom_site_fract_y
  _atom_site_fract_z
  _atom_site_occupancy
  Zn  Zn1       1.0  0.50978  0.84258  0.13029  1.0000
  Zn  Zn2       1.0  0.49022  0.15742  0.86971  1.0000
  Zn  Zn3       1.0  0.49681000000000003  0.7884000000000002  0.03399  1.0000
  Zn  Zn4       1.0  0.00908  0.34288  0.36973  1.0000
  Zn  Zn5       1.0  0.99092  0.65712  0.63027  1.0000
  Zn  Zn6       1.0  0.84657  0.75423  0.61113  1.0000
  Zn  Zn7       1.0  0.99156  0.28747  0.46604  1.0000
  Zn  Zn8       1.0  0.8463200000000001  0.24507  0.3886  1.0000
  Zn  Zn9       1.0  0.34786  0.74599  0.1111  1.0000
  Zn  Zn10      1.0  0.65214  0.25401  0.8889  1.0000
  Zn  Zn11      1.0  0.34129  0.25346  0.88859  1.0000
  Zn  Zn12      1.0  0.15368  0.75492  0.6114  1.0000
  Zn  Zn13      1.0  0.15343  0.24576  0.38887  1.0000
  Zn  Zn14      1.0  0.008439999999999993  0.7125300000000002  0.53396  1.0000
  Zn  Zn15      1.0  0.65871  0.74654  0.11141  1.0000
  Zn  Zn16      1.0  0.50319  0.2116  0.96601  1.0000
  H   H1        1.0  0.68323  0.39025000000000004  0.81537  1.0000
  H   H2        1.0  0.04608  0.6888  0.75749  1.0000
  H   H3        1.0  0.29907  0.4329800000000001  0.30968  1.0000
  H   H4        1.0  0.58124  0.25503  0.61813  1.0000
  H   H5        1.0  0.7882200000000001  0.8877500000000003  0.65084  1.0000
  H   H6        1.0  0.50278  0.7632  0.55791  1.0000
  H   H7        1.0  0.23471  0.10587  0.08547  1.0000
  H   H8        1.0  0.91737  0.99095  0.22938  1.0000
  H   H9        1.0  0.71091  0.61187  0.15104  1.0000
  H   H10       1.0  0.26489  0.48020000000000007  0.61965  1.0000
  H   H11       1.0  0.23917  0.019790000000000006  0.12036  1.0000
  H   H12       1.0  0.8596  0.038400000000000004  0.26647  1.0000
  H   H13       1.0  0.70093  0.56702  0.6903200000000002  1.0000
  H   H14       1.0  0.49721999999999994  0.23679000000000006  0.44209  1.0000
  H   H15       1.0  0.79477  0.23782000000000003  0.05709  1.0000
  H   H16       1.0  0.29288  0.26852  0.55459  1.0000
  H   H17       1.0  0.75485  0.54015  0.20172  1.0000
  H   H18       1.0  0.95393  0.3111900000000001  0.24251  1.0000
  H   H19       1.0  0.07965  0.7561  0.88125  1.0000
  H   H20       1.0  0.46043  0.7907400000000002  0.33207  1.0000
  H   H21       1.0  0.9945999999999999  0.26076  0.94252  1.0000
  H   H22       1.0  0.31677  0.60974  0.18463  1.0000
  H   H23       1.0  0.45516  0.80933  0.25684  1.0000
  H   H24       1.0  0.76529  0.8941300000000002  0.91453  1.0000
  H   H25       1.0  0.9203499999999999  0.2439  0.11875  1.0000
  H   H26       1.0  0.54485  0.19066  0.74316  1.0000
  H   H27       1.0  0.28877  0.57086  0.6916  1.0000
  H   H28       1.0  0.79517  0.81534  0.73244  1.0000
  H   H29       1.0  0.7898899999999999  0.8365800000000002  0.80828  1.0000
  H   H30       1.0  0.21374999999999994  0.9280300000000001  0.19258  1.0000
  H   H31       1.0  0.14162  0.55158  0.58973  1.0000
  H   H32       1.0  0.25802  0.041  0.29857  1.0000
  H   H33       1.0  0.53957  0.20926  0.66793  1.0000
  H   H34       1.0  0.99932  0.8168300000000001  0.12361  1.0000
  H   H35       1.0  0.7039  0.68174  0.23374  1.0000
  H   H36       1.0  0.8583800000000001  0.44842  0.41027  1.0000
  H   H37       1.0  0.26586  0.39379  0.58569  1.0000
  H   H38       1.0  0.8016899999999999  0.9327  0.19249  1.0000
  H   H39       1.0  0.7940399999999999  0.77023  0.9459  1.0000
  H   H40       1.0  0.70406  0.26047  0.55523  1.0000
  H   H41       1.0  0.49934  0.68271  0.62176  1.0000
  H   H42       1.0  0.2961  0.31825  0.76626  1.0000
  H   H43       1.0  0.28909  0.38813  0.84896  1.0000
  H   H44       1.0  0.005399999999999995  0.7392400000000002  0.05748  1.0000
  H   H45       1.0  0.36267  0.9486000000000002  0.09064  1.0000
  H   H46       1.0  0.14615  0.3807  0.52127  1.0000
  H   H47       1.0  0.35617  0.5385  0.23304  1.0000
  H   H48       1.0  0.41875999999999997  0.7449700000000002  0.38186  1.0000
  H   H49       1.0  0.8181800000000001  0.10898  0.31485  1.0000
  H   H50       1.0  0.0006799999999999997  0.18316000000000002  0.87639  1.0000
  H   H51       1.0  0.18182  0.89101  0.68514  1.0000
  H   H52       1.0  0.96187  0.29212  0.16736  1.0000
  H   H53       1.0  0.29369  0.33912000000000003  0.69029  1.0000
  H   H54       1.0  0.24515  0.45985  0.79827  1.0000
  H   H55       1.0  0.78625  0.07196  0.80742  1.0000
  H   H56       1.0  0.08263  0.009050000000000004  0.77062  1.0000
  H   H57       1.0  0.351  0.11883000000000002  0.02039  1.0000
  H   H58       1.0  0.58648  0.50777  0.72757  1.0000
  H   H59       1.0  0.85385  0.6193  0.47872  1.0000
  H   H60       1.0  0.64383  0.4615  0.76695  1.0000
  H   H61       1.0  0.1404  0.9616000000000002  0.73352  1.0000
  H   H62       1.0  0.73511  0.51979  0.38035  1.0000
  H   H63       1.0  0.41352000000000005  0.49223000000000006  0.27243  1.0000
  H   H64       1.0  0.7419800000000001  0.959  0.70143  1.0000
  H   H65       1.0  0.19830999999999996  0.0673  0.80751  1.0000
  H   H66       1.0  0.20483  0.18466  0.26756  1.0000
  H   H67       1.0  0.20596  0.22977000000000003  0.0541  1.0000
  H   H68       1.0  0.63733  0.0514  0.90936  1.0000
  H   H69       1.0  0.70631  0.6608800000000001  0.30971  1.0000
  H   H70       1.0  0.7608299999999999  0.98021  0.87963  1.0000
  H   H71       1.0  0.649  0.88117  0.9796100000000002  1.0000
  H   H72       1.0  0.71123  0.42914000000000013  0.30839000000000005  1.0000
  H   H73       1.0  0.21011  0.16342  0.19172  1.0000
  H   H74       1.0  0.50066  0.31729  0.37824  1.0000
  H   H75       1.0  0.70712  0.73147  0.44541  1.0000
  H   H76       1.0  0.21178  0.11225000000000003  0.34916  1.0000
  H   H77       1.0  0.73414  0.60621  0.41431  1.0000
  H   H78       1.0  0.20523  0.7621800000000001  0.94291  1.0000
  H   H79       1.0  0.03813  0.70788  0.83264  1.0000
  H   H80       1.0  0.29594  0.73953  0.44477  1.0000
  C   C1        1.0  0.48838  0.38495  0.83477  1.0000
  C   C2        1.0  0.90341  0.78803  0.87002  1.0000
  C   C3        1.0  0.51151  0.34002  0.8627  1.0000
  C   C4        1.0  0.41906  0.27687  0.67412  1.0000
  C   C5        1.0  0.88751  0.7545800000000003  0.00391  1.0000
  C   C6        1.0  0.48849  0.65998  0.1373  1.0000
  C   C7        1.0  0.87665  0.08701000000000002  0.81769  1.0000
  C   C8        1.0  0.5636  0.44585000000000014  0.78396  1.0000
  C   C9        1.0  0.49781  0.24483  0.47505  1.0000
  C   C10       1.0  0.8885699999999999  0.87399  0.15571  1.0000
  C   C11       1.0  0.7866199999999999  0.57414  0.42797  1.0000
  C   C12       1.0  0.38229  0.26249  0.53858  1.0000
  C   C13       1.0  0.8376000000000001  0.94374  0.6973  1.0000
  C   C14       1.0  0.57982  0.76099  0.19576  1.0000
  C   C15       1.0  0.49874  0.04907  0.98037  1.0000
  C   C16       1.0  0.1432  0.51476  0.57398  1.0000
  C   C17       1.0  0.07246  0.4585700000000001  0.51752  1.0000
  C   C18       1.0  0.8549199999999999  0.58168  0.46432  1.0000
  C   C19       1.0  0.08609  0.9063200000000001  0.68879  1.0000
  C   C20       1.0  0.4364  0.5541400000000001  0.21603  1.0000
  C   C21       1.0  0.26445  0.35249  0.36055  1.0000
  C   C22       1.0  0.57297  0.9587100000000001  0.98271  1.0000
  C   C23       1.0  0.57905  0.7467500000000002  0.2409  1.0000
  C   C24       1.0  0.37881999999999993  0.58593  0.68104  1.0000
  C   C25       1.0  0.24266  0.7465200000000001  0.02536  1.0000
  C   C26       1.0  0.0022699999999999973  0.8503900000000002  0.14337  1.0000
  C   C27       1.0  0.23516  0.14764  0.85874  1.0000
  C   C28       1.0  0.5022  0.75517  0.52495  1.0000
  C   C29       1.0  0.9996099999999999  0.4507000000000001  0.48085  1.0000
  C   C30       1.0  0.99128  0.06497  0.80367  1.0000
  C   C31       1.0  0.42095  0.25325  0.7591  1.0000
  C   C32       1.0  0.91391  0.09368  0.3112  1.0000
  C   C33       1.0  0.42947  0.99186  0.03739  1.0000
  C   C34       1.0  0.64029  0.01468  0.92541  1.0000
  C   C35       1.0  0.00132  0.39862  0.46043  1.0000
  C   C36       1.0  0.35034  0.29537  0.74432  1.0000
  C   C37       1.0  0.41212999999999994  0.5940800000000002  0.18842  1.0000
  C   C38       1.0  0.11143  0.12601  0.84428  1.0000
  C   C39       1.0  0.49409  0.56405  0.69479  1.0000
  C   C40       1.0  0.5086  0.77667  0.26875  1.0000
  C   C41       1.0  0.07866  0.24899  0.25935  1.0000
  C   C42       1.0  0.48963  0.23474  0.6891  1.0000
  C   C43       1.0  0.61351  0.25752  0.53908  1.0000
  C   C44       1.0  0.26325  0.75574  0.52701  1.0000
  C   C45       1.0  0.11249  0.24541000000000002  0.99609  1.0000
  C   C46       1.0  0.7609  0.15524  0.85719  1.0000
  C   C47       1.0  0.3404  0.44423  0.80255  1.0000
  C   C48       1.0  0.34954  0.30709  0.70225  1.0000
  C   C49       1.0  0.99868  0.60138  0.53957  1.0000
  C   C50       1.0  0.9394299999999999  0.05398  0.2837  1.0000
  C   C51       1.0  0.29047999999999996  0.025740000000000002  0.09152  1.0000
  C   C52       1.0  0.9914300000000001  0.72132  0.76892  1.0000
  C   C53       1.0  0.36471  0.40479  0.83049  1.0000
  C   C54       1.0  0.25954  0.25132  0.47243  1.0000
  C   C55       1.0  0.56075  0.535  0.22128  1.0000
  C   C56       1.0  0.9275400000000001  0.54143  0.48248  1.0000
  C   C57       1.0  0.26091  0.65421  0.64221  1.0000
  C   C58       1.0  0.060569999999999985  0.9460200000000002  0.7163  1.0000
  C   C59       1.0  0.38265999999999994  0.25287  0.49606  1.0000
  C   C60       1.0  0.49755999999999995  0.10125  0.96001  1.0000
  C   C61       1.0  0.9962299999999998  0.25317  0.97559  1.0000
  C   C62       1.0  0.50203  0.73657  0.43957  1.0000
  C   C63       1.0  0.14508  0.41832  0.53568  1.0000
  C   C64       1.0  0.21222  0.4742  0.59107  1.0000
  C   C65       1.0  0.7650799999999999  0.75282  0.02778  1.0000
  C   C66       1.0  0.3895700000000001  0.41654  0.31966  1.0000
  C   C67       1.0  0.11543999999999999  0.23556000000000005  0.03861  1.0000
  C   C68       1.0  0.0037699999999999973  0.7468300000000002  0.02441  1.0000
  C   C69       1.0  0.23492  0.24718000000000007  0.9722200000000001  1.0000
  C   C70       1.0  0.59763  0.49337  0.25087  1.0000
  C   C71       1.0  0.89761  0.00639  0.7505  1.0000
  C   C72       1.0  0.73909  0.34579  0.35779  1.0000
  C   C73       1.0  0.74046  0.74868  0.52756  1.0000
  C   C74       1.0  0.50224  0.35101  0.35845  1.0000
  C   C75       1.0  0.93573  0.96481  0.7212  1.0000
  C   C76       1.0  0.61043  0.58345  0.68034  1.0000
  C   C77       1.0  0.61778  0.37143  0.34505  1.0000
  C   C78       1.0  0.7573399999999999  0.25347  0.97463  1.0000
  C   C79       1.0  0.08359  0.22502  0.17475  1.0000
  C   C80       1.0  0.11842  0.7503100000000001  0.00239  1.0000
  C   C81       1.0  0.15092999999999998  0.20717000000000005  0.24519  1.0000
  C   C82       1.0  0.8490699999999999  0.79282  0.75481  1.0000
  C   C83       1.0  0.10239  0.9936  0.24950000000000003  1.0000
  C   C84       1.0  0.38642  0.75181  0.50357  1.0000
  C   C85       1.0  0.11577  0.75949  0.9597  1.0000
  C   C86       1.0  0.91641  0.77498  0.82525  1.0000
  C   C87       1.0  0.88457  0.7644300000000002  0.96139  1.0000
  C   C88       1.0  0.51162  0.6150500000000001  0.16523  1.0000
  C   C89       1.0  0.61358  0.24819000000000005  0.49643  1.0000
  C   C90       1.0  0.43925  0.465  0.77872  1.0000
  C   C91       1.0  0.11864  0.87035  0.1564  1.0000
  C   C92       1.0  0.38222  0.62856  0.65495  1.0000
  C   C93       1.0  0.6353  0.59521  0.16951  1.0000
  C   C94       1.0  0.49776  0.64898  0.64154  1.0000
  C   C95       1.0  0.23910000000000003  0.84476  0.14281  1.0000
  C   C96       1.0  0.28735  0.0739  0.07193  1.0000
  C   C97       1.0  0.58094  0.72313  0.32587  1.0000
  C   C98       1.0  0.00039000000000000086  0.5493  0.51915  1.0000
  C   C99       1.0  0.84666  0.8047100000000001  0.79672  1.0000
  C   C100      1.0  0.15334  0.19528  0.20328  1.0000
  C   C101      1.0  0.99896  0.7653900000000002  0.93896  1.0000
  C   C102      1.0  0.64612  0.91862  0.96477  1.0000
  C   C103      1.0  0.0010399999999999997  0.23461000000000004  0.06104  1.0000
  C   C104      1.0  0.7877799999999999  0.52579  0.40892  1.0000
  C   C105      1.0  0.61199  0.6256200000000001  0.65375  1.0000
  C   C106      1.0  0.4270399999999999  0.04129000000000001  0.01729  1.0000
  C   C107      1.0  0.9213500000000001  0.75101  0.74065  1.0000
  C   C108      1.0  0.9883899999999999  0.15917  0.36266  1.0000
  C   C109      1.0  0.40237  0.50662  0.74912  1.0000
  C   C110      1.0  0.09658999999999997  0.21197000000000005  0.12998  1.0000
  C   C111      1.0  0.1085  0.08405  0.8177  1.0000
  C   C112      1.0  0.07759  0.26269  0.30442  1.0000
  C   C113      1.0  0.35971  0.98532  0.07459  1.0000
  C   C114      1.0  0.8915099999999999  0.9159400000000001  0.18229  1.0000
  C   C115      1.0  0.59301  0.71115  0.37096  1.0000
  C   C116      1.0  0.7648399999999999  0.85235  0.14126  1.0000
  C   C117      1.0  0.06427  0.03519  0.2788  1.0000
  C   C118      1.0  0.51037  0.76526  0.3109  1.0000
  C   C119      1.0  0.88423  0.24051  0.0403  1.0000
  C   C120      1.0  0.73676  0.24425  0.47299  1.0000
  C   C121      1.0  0.49796999999999997  0.26343  0.56043  1.0000
  C   C122      1.0  0.07196  0.50821  0.53709  1.0000
  C   C123      1.0  0.35388  0.08138000000000002  0.03523  1.0000
  C   C124      1.0  0.21338000000000001  0.42586  0.57203  1.0000
  C   C125      1.0  0.9873699999999999  0.8852600000000002  0.66539  1.0000
  C   C126      1.0  0.9977299999999999  0.14961  0.85663  1.0000
  C   C127      1.0  0.4914  0.22332  0.73125  1.0000
  C   C128      1.0  0.8568000000000001  0.4852400000000001  0.42601  1.0000
  C   C129      1.0  0.50591  0.43595  0.30521  1.0000
  C   C130      1.0  0.92241  0.7373100000000002  0.69558  1.0000
  C   C131      1.0  0.65046  0.6929  0.29775  1.0000
  C   C132      1.0  0.38649  0.74247  0.46092  1.0000
  C   C133      1.0  0.61771  0.73751  0.46142  1.0000
  C   C134      1.0  0.64966  0.7046200000000002  0.25568  1.0000
  C   C135      1.0  0.88158  0.24969  0.99761  1.0000
  C   C136      1.0  0.008570000000000001  0.27868  0.23108  1.0000
  C   C137      1.0  0.6596  0.55577  0.19745  1.0000
  C   C138      1.0  0.70952  0.9742600000000002  0.90848  1.0000
  C   C139      1.0  0.61734  0.74713  0.50394  1.0000
  C   C140      1.0  0.92804  0.49179  0.46291  1.0000
  C   C141      1.0  0.012630000000000002  0.11474  0.33461  1.0000
  C   C142      1.0  0.12335000000000003  0.91299  0.18231  1.0000
  C   C143      1.0  0.57053  0.00814  0.9626000000000002  1.0000
  C   C144      1.0  0.01177  0.26704000000000006  0.18903  1.0000
  C   C145      1.0  0.008719999999999999  0.93503  0.19632000000000005  1.0000
  C   C146      1.0  0.98823  0.7329600000000002  0.81097  1.0000
  C   C147      1.0  0.13684  0.09546  0.33052  1.0000
  C   C148      1.0  0.62118  0.41407  0.31896  1.0000
  C   C149      1.0  0.73555  0.64751  0.63945  1.0000
  C   C150      1.0  0.40699  0.28885  0.62903  1.0000
  C   C151      1.0  0.71265  0.9261000000000001  0.92807  1.0000
  C   C152      1.0  0.58787  0.40592  0.81157  1.0000
  C   C153      1.0  0.42018  0.23901000000000003  0.80424  1.0000
  C   C154      1.0  0.50126  0.9509300000000003  0.01962  1.0000
  C   C155      1.0  0.86316  0.90453  0.66948  1.0000
  C   C156      1.0  0.011609999999999997  0.84083  0.63734  1.0000
  C   C157      1.0  0.50244  0.8987400000000001  0.03999  1.0000
  C   C158      1.0  0.88136  0.12964  0.8436  1.0000
  C   C159      1.0  0.1624  0.05626  0.3027  1.0000
  C   C160      1.0  0.38801  0.37438  0.34625  1.0000
  N   N1        1.0  0.9999499999999999  0.23051  0.10451  1.0000
  N   N2        1.0  4.999999999999869e-05  0.76948  0.89549  1.0000
  N   N3        1.0  0.50098  0.26791000000000004  0.60386  1.0000
  N   N4        1.0  0.49903  0.73209  0.39614  1.0000
  N   N5        1.0  0.9948600000000001  0.02421  0.77567  1.0000
  N   N6        1.0  0.50119  0.4766400000000001  0.27696  1.0000
  N   N7        1.0  0.49881  0.52336  0.72304  1.0000
  N   N8        1.0  0.005139999999999994  0.9757900000000003  0.22432  1.0000
  O   O1        1.0  0.2306  0.18442  0.88417  1.0000
  O   O2        1.0  0.16177  0.74259  0.50791  1.0000
  O   O3        1.0  0.04992  0.3975100000000001  0.42493  1.0000
  O   O4        1.0  0.21221  0.97675  0.24776000000000004  1.0000
  O   O5        1.0  0.26979  0.77119  0.56425  1.0000
  O   O6        1.0  0.26901  0.70208  0.63554  1.0000
  O   O7        1.0  0.2626  0.22901  0.43757  1.0000
  O   O8        1.0  0.8122  0.8131200000000001  0.88341  1.0000
  O   O9        1.0  0.70651  0.4755  0.25218  1.0000
  O   O10       1.0  0.4247  0.32728  0.88769  1.0000
  O   O11       1.0  0.66807  0.77434  0.01053  1.0000
  O   O12       1.0  0.95611  0.36161  0.4815  1.0000
  O   O13       1.0  0.23719  0.73008  0.06242000000000001  1.0000
  O   O14       1.0  0.76837  0.73016  0.0626  1.0000
  O   O15       1.0  0.99293  0.29406  0.31662  1.0000
  O   O16       1.0  0.7374  0.7709900000000001  0.56243  1.0000
  O   O17       1.0  0.95008  0.60249  0.57507  1.0000
  O   O18       1.0  0.9954  0.28276  0.40653  1.0000
  O   O19       1.0  0.33193  0.22566  0.98946  1.0000
  O   O20       1.0  0.44956  0.10334  0.9244  1.0000
  O   O21       1.0  0.004600000000000001  0.71724  0.59347  1.0000
  O   O22       1.0  0.49976  0.78236  0.09346  1.0000
  O   O23       1.0  0.83787  0.3739000000000001  0.3607  1.0000
  O   O24       1.0  0.16303  0.3739400000000001  0.34617  1.0000
  O   O25       1.0  0.83823  0.25741  0.49209  1.0000
  O   O26       1.0  0.33713  0.12717  0.8441  1.0000
  O   O27       1.0  0.33789  0.87278  0.13948  1.0000
  O   O28       1.0  0.83679  0.7587800000000002  0.67303  1.0000
  O   O29       1.0  0.1198  0.81799  0.6419  1.0000
  O   O30       1.0  0.38047  0.68295  0.14186  1.0000
  O   O31       1.0  0.7694  0.81558  0.11583  1.0000
  O   O32       1.0  0.54322  0.13767  0.98141  1.0000
  O   O33       1.0  0.73021  0.22881  0.43575  1.0000
  O   O34       1.0  0.26847  0.31483000000000005  0.3853  1.0000
  O   O35       1.0  0.66287  0.8728200000000003  0.15589  1.0000
  O   O36       1.0  0.18781  0.18688  0.11659  1.0000
  O   O37       1.0  0.55044  0.89666  0.0756  1.0000
  O   O38       1.0  0.8375000000000002  0.72729  0.51037  1.0000
  O   O39       1.0  0.34317  0.76077  0.0062  1.0000
  O   O40       1.0  0.23163000000000003  0.26984  0.93739  1.0000
  O   O41       1.0  0.5753  0.67272  0.11231  1.0000
  O   O42       1.0  0.1625  0.27271  0.48962  1.0000
  O   O43       1.0  0.23053  0.79707  0.1356  1.0000
  O   O44       1.0  0.5002399999999999  0.21764000000000006  0.90654  1.0000
  O   O45       1.0  0.007070000000000001  0.7059300000000001  0.68338  1.0000
  O   O46       1.0  0.50557  0.20785  0.81665  1.0000
  O   O47       1.0  0.9250599999999999  0.82834  0.61218  1.0000
  O   O48       1.0  0.31805  0.31469  0.61481  1.0000
  O   O49       1.0  0.29349  0.5245  0.74781  1.0000
  O   O50       1.0  0.49443  0.79214  0.18335  1.0000
  O   O51       1.0  0.04388999999999998  0.6383800000000001  0.5185  1.0000
  O   O52       1.0  0.66727  0.74024  0.17357  1.0000
  O   O53       1.0  0.33273  0.25976  0.82643  1.0000
  O   O54       1.0  0.83697  0.62605  0.65382  1.0000
  O   O55       1.0  0.78779  0.02325  0.75224  1.0000
  O   O56       1.0  0.61953  0.31705000000000005  0.85814  1.0000
  O   O57       1.0  0.73153  0.68516  0.6147  1.0000
  O   O58       1.0  0.73099  0.29792  0.36445  1.0000
  O   O59       1.0  0.68195  0.6853  0.38519  1.0000
  O   O60       1.0  0.16213  0.6261000000000001  0.6393  1.0000
  O   O61       1.0  0.8802  0.18201000000000003  0.3581  1.0000
  O   O62       1.0  0.76947  0.20293000000000005  0.8644  1.0000
  O   O63       1.0  0.66211  0.12721  0.86052  1.0000
  O   O64       1.0  0.7628100000000001  0.26991  0.93758  1.0000
  O   O65       1.0  0.65683  0.23923000000000005  0.9938  1.0000
  O   O66       1.0  0.45678  0.8623300000000002  0.01859  1.0000
  O   O67       1.0  0.16321  0.24122  0.32697  1.0000
  O   O68       1.0  0.07494  0.17166  0.38782  1.0000
