data_image0
_chemical_formula_structural       Cu8H128C212O32
_chemical_formula_sum              "Cu8 H128 C212 O32"
_cell_length_a       18.39376
_cell_length_b       18.39347
_cell_length_c       35.32984
_cell_angle_alpha    90.0
_cell_angle_beta     90.0
_cell_angle_gamma    90.00180999999999

_space_group_name_H-M_alt    "P 1"
_space_group_IT_number       1

loop_
  _space_group_symop_operation_xyz
  'x, y, z'

loop_
  _atom_site_type_symbol
  _atom_site_label
  _atom_site_symmetry_multiplicity
  _atom_site_fract_x
  _atom_site_fract_y
  _atom_site_fract_z
  _atom_site_occupancy
  Cu  Cu1       1.0  0.49927  0.43389  0.71193  1.0000
  Cu  Cu2       1.0  0.50072  0.56611  0.71193  1.0000
  Cu  Cu3       1.0  0.06625  0.99974  0.21258  1.0000
  Cu  Cu4       1.0  0.9337499999999999  0.00026  0.21258  1.0000
  Cu  Cu5       1.0  0.4339  0.5008  0.28809  1.0000
  Cu  Cu6       1.0  0.5661  0.4992  0.28809  1.0000
  Cu  Cu7       1.0  0.9997399999999999  0.93375  0.78742  1.0000
  Cu  Cu8       1.0  0.00026  0.06625000000000002  0.78742  1.0000
  H   H1        1.0  0.85073  0.61086  0.553  1.0000
  H   H2        1.0  0.94688  0.61176  0.50494  1.0000
  H   H3        1.0  0.90928  0.38487  0.48328  1.0000
  H   H4        1.0  0.81204  0.38414  0.53066  1.0000
  H   H5        1.0  0.11304  0.64968  0.37259  1.0000
  H   H6        1.0  0.11332999999999999  0.55453  0.42054  1.0000
  H   H7        1.0  0.8851100000000001  0.58823  0.43974  1.0000
  H   H8        1.0  0.88442  0.68465  0.39233  1.0000
  H   H9        1.0  0.6430199999999999  0.61014  0.61817  1.0000
  H   H10       1.0  0.73759  0.61033  0.56801  1.0000
  H   H11       1.0  0.77882  0.38355  0.58971  1.0000
  H   H12       1.0  0.68091  0.3832900000000001  0.63806  1.0000
  H   H13       1.0  0.88131  0.83615  0.29557  1.0000
  H   H14       1.0  0.8811800000000001  0.7392  0.34382  1.0000
  H   H15       1.0  0.11579999999999999  0.7455  0.34638  1.0000
  H   H16       1.0  0.11435  0.84036  0.29701  1.0000
  H   H17       1.0  0.14926  0.38914  0.553  1.0000
  H   H18       1.0  0.05312  0.3882300000000001  0.50494  1.0000
  H   H19       1.0  0.09071  0.61513  0.48328  1.0000
  H   H20       1.0  0.18795  0.61586  0.53066  1.0000
  H   H21       1.0  0.8869599999999999  0.35031  0.37259  1.0000
  H   H22       1.0  0.88667  0.44547  0.42053  1.0000
  H   H23       1.0  0.11488000000000001  0.41176  0.43974  1.0000
  H   H24       1.0  0.11558  0.31535  0.39233  1.0000
  H   H25       1.0  0.35698  0.38985  0.61817  1.0000
  H   H26       1.0  0.26241  0.38967  0.56801  1.0000
  H   H27       1.0  0.22117  0.61644  0.58971  1.0000
  H   H28       1.0  0.31908  0.61671  0.63806  1.0000
  H   H29       1.0  0.11868  0.16385  0.29557  1.0000
  H   H30       1.0  0.11882  0.2608  0.34382  1.0000
  H   H31       1.0  0.8841899999999999  0.2545  0.34638  1.0000
  H   H32       1.0  0.8856500000000002  0.15964  0.29701  1.0000
  H   H33       1.0  0.8883700000000001  0.64903  0.05281  1.0000
  H   H34       1.0  0.88809  0.55289  0.00478  1.0000
  H   H35       1.0  0.11484  0.59078  0.9835100000000001  1.0000
  H   H36       1.0  0.11528  0.68808  0.030820000000000004  1.0000
  H   H37       1.0  0.85036  0.38618  0.87295  1.0000
  H   H38       1.0  0.9455800000000001  0.3866  0.92085  1.0000
  H   H39       1.0  0.91136  0.61472  0.9396499999999999  1.0000
  H   H40       1.0  0.81492  0.61504  0.89226  1.0000
  H   H41       1.0  0.8880299999999999  0.85674  0.11832  1.0000
  H   H42       1.0  0.8886799999999999  0.76272  0.06796  1.0000
  H   H43       1.0  0.1156  0.7224500000000001  0.08983  1.0000
  H   H44       1.0  0.11508  0.81949  0.13845  1.0000
  H   H45       1.0  0.66314  0.61646  0.7951  1.0000
  H   H46       1.0  0.75943  0.61757  0.84356  1.0000
  H   H47       1.0  0.75477  0.38294000000000006  0.84634  1.0000
  H   H48       1.0  0.66027  0.38335  0.79701  1.0000
  H   H49       1.0  0.11163  0.35096  0.05281  1.0000
  H   H50       1.0  0.1119  0.44711  0.00478  1.0000
  H   H51       1.0  0.8851600000000001  0.40921  0.9835100000000001  1.0000
  H   H52       1.0  0.8847099999999999  0.31192000000000003  0.030820000000000004  1.0000
  H   H53       1.0  0.14964  0.61382  0.87295  1.0000
  H   H54       1.0  0.05442  0.6134  0.92085  1.0000
  H   H55       1.0  0.08863  0.38527  0.9396499999999999  1.0000
  H   H56       1.0  0.18507  0.38496  0.89226  1.0000
  H   H57       1.0  0.11197  0.14325000000000002  0.11832  1.0000
  H   H58       1.0  0.11132000000000002  0.23728  0.06796  1.0000
  H   H59       1.0  0.8843899999999999  0.27755  0.08983  1.0000
  H   H60       1.0  0.8849099999999999  0.18051000000000003  0.13845  1.0000
  H   H61       1.0  0.33685  0.38353  0.7951  1.0000
  H   H62       1.0  0.24057  0.38242  0.84356  1.0000
  H   H63       1.0  0.24522  0.61706  0.84634  1.0000
  H   H64       1.0  0.33973  0.61665  0.79701  1.0000
  H   H65       1.0  0.6108599999999998  0.14925  0.44701  1.0000
  H   H66       1.0  0.61176  0.05311  0.49506999999999995  1.0000
  H   H67       1.0  0.38487  0.09070000000000002  0.51673  1.0000
  H   H68       1.0  0.38414  0.18794  0.46935000000000004  1.0000
  H   H69       1.0  0.6496799999999999  0.88696  0.62742  1.0000
  H   H70       1.0  0.55452  0.8866600000000001  0.57947  1.0000
  H   H71       1.0  0.58824  0.11488000000000001  0.56027  1.0000
  H   H72       1.0  0.6846599999999999  0.11558  0.60768  1.0000
  H   H73       1.0  0.61011  0.35701  0.38182  1.0000
  H   H74       1.0  0.61033  0.26242  0.43199  1.0000
  H   H75       1.0  0.38353  0.22119000000000003  0.4103  1.0000
  H   H76       1.0  0.38327  0.31909  0.36195  1.0000
  H   H77       1.0  0.83615  0.11869  0.70444  1.0000
  H   H78       1.0  0.73921  0.11881999999999998  0.65618  1.0000
  H   H79       1.0  0.74549  0.8841900000000001  0.65363  1.0000
  H   H80       1.0  0.84035  0.88565  0.70299  1.0000
  H   H81       1.0  0.38914  0.85074  0.44701  1.0000
  H   H82       1.0  0.38823  0.94688  0.49506999999999995  1.0000
  H   H83       1.0  0.61512  0.9093000000000001  0.51673  1.0000
  H   H84       1.0  0.61585  0.81206  0.46935000000000004  1.0000
  H   H85       1.0  0.35031  0.11304000000000002  0.62742  1.0000
  H   H86       1.0  0.4454699999999999  0.11333000000000001  0.57947  1.0000
  H   H87       1.0  0.41175  0.8851100000000001  0.56027  1.0000
  H   H88       1.0  0.31534  0.88442  0.60768  1.0000
  H   H89       1.0  0.38989  0.64299  0.38182  1.0000
  H   H90       1.0  0.38966  0.73757  0.43199  1.0000
  H   H91       1.0  0.61646  0.77881  0.4103  1.0000
  H   H92       1.0  0.61673  0.68091  0.36195  1.0000
  H   H93       1.0  0.16385  0.8813100000000001  0.70444  1.0000
  H   H94       1.0  0.26079  0.88118  0.65618  1.0000
  H   H95       1.0  0.2545  0.11580000000000001  0.65363  1.0000
  H   H96       1.0  0.15965  0.11435000000000001  0.70299  1.0000
  H   H97       1.0  0.64903  0.11163  0.94719  1.0000
  H   H98       1.0  0.55289  0.1119  0.99522  1.0000
  H   H99       1.0  0.59078  0.88516  0.0165  1.0000
  H   H100      1.0  0.6880699999999998  0.88471  0.96918  1.0000
  H   H101      1.0  0.3862  0.14966  0.12705  1.0000
  H   H102      1.0  0.3866  0.05442  0.07916  1.0000
  H   H103      1.0  0.61473  0.08863  0.060349999999999994  1.0000
  H   H104      1.0  0.61505  0.18508  0.10774  1.0000
  H   H105      1.0  0.85675  0.11198000000000001  0.88169  1.0000
  H   H106      1.0  0.76272  0.11131999999999999  0.93204  1.0000
  H   H107      1.0  0.72244  0.8843900000000001  0.9101699999999999  1.0000
  H   H108      1.0  0.81948  0.8849100000000001  0.86156  1.0000
  H   H109      1.0  0.61647  0.33682  0.20493  1.0000
  H   H110      1.0  0.61757  0.24059  0.15643  1.0000
  H   H111      1.0  0.38296  0.24522000000000002  0.15365  1.0000
  H   H112      1.0  0.38335  0.33968  0.20301  1.0000
  H   H113      1.0  0.35096  0.88836  0.94719  1.0000
  H   H114      1.0  0.44709999999999994  0.8880900000000002  0.99522  1.0000
  H   H115      1.0  0.40921  0.11484000000000001  0.0165  1.0000
  H   H116      1.0  0.31193  0.11529  0.96918  1.0000
  H   H117      1.0  0.61379  0.85034  0.12705  1.0000
  H   H118      1.0  0.6134  0.9455700000000001  0.07916  1.0000
  H   H119      1.0  0.38527  0.91137  0.060349999999999994  1.0000
  H   H120      1.0  0.38494  0.8149100000000001  0.10774  1.0000
  H   H121      1.0  0.14325  0.8880300000000001  0.88169  1.0000
  H   H122      1.0  0.23727  0.88868  0.93204  1.0000
  H   H123      1.0  0.27755  0.11561000000000002  0.91018  1.0000
  H   H124      1.0  0.18051  0.11509  0.86156  1.0000
  H   H125      1.0  0.38352  0.66318  0.20493  1.0000
  H   H126      1.0  0.38242  0.75941  0.15643  1.0000
  H   H127      1.0  0.61703  0.75478  0.15365  1.0000
  H   H128      1.0  0.61664  0.66032  0.20301  1.0000
  C   C1        1.0  0.823  0.49743000000000004  0.54566  1.0000
  C   C2        1.0  0.86205  0.56133  0.53728  1.0000
  C   C3        1.0  0.91656  0.56192  0.50998  1.0000
  C   C4        1.0  0.93442  0.49894  0.48949  1.0000
  C   C5        1.0  0.89636  0.43503  0.49808  1.0000
  C   C6        1.0  0.84154  0.43437  0.52539  1.0000
  C   C7        1.0  0.59852  0.49773000000000006  0.66075  1.0000
  C   C8        1.0  0.99882  0.67649  0.37847  1.0000
  C   C9        1.0  0.06275  0.63799  0.38756  1.0000
  C   C10       1.0  0.063  0.58365  0.41493  1.0000
  C   C11       1.0  0.9995600000000001  0.5652400000000001  0.43493  1.0000
  C   C12       1.0  0.9356  0.60226  0.42553  1.0000
  C   C13       1.0  0.93531  0.65681  0.39813  1.0000
  C   C14       1.0  0.6558099999999999  0.49675  0.63101  1.0000
  C   C15       1.0  0.67278  0.5608  0.61136  1.0000
  C   C16       1.0  0.72626  0.56058  0.58354  1.0000
  C   C17       1.0  0.76539  0.49687  0.57485  1.0000
  C   C18       1.0  0.74812  0.43303  0.59503  1.0000
  C   C19       1.0  0.69378  0.43261  0.62247  1.0000
  C   C20       1.0  0.9977899999999998  0.8446  0.29329  1.0000
  C   C21       1.0  0.93227  0.81577  0.30695  1.0000
  C   C22       1.0  0.9327699999999999  0.7615  0.33434  1.0000
  C   C23       1.0  0.99847  0.7343700000000001  0.34935  1.0000
  C   C24       1.0  0.06384999999999999  0.76424  0.33541  1.0000
  C   C25       1.0  0.06368  0.8180800000000001  0.30778  1.0000
  C   C26       1.0  0.9974299999999999  0.90226  0.2638  1.0000
  C   C27       1.0  0.17699  0.50257  0.54566  1.0000
  C   C28       1.0  0.13794  0.43867  0.53728  1.0000
  C   C29       1.0  0.08343  0.4380800000000001  0.50998  1.0000
  C   C30       1.0  0.06557  0.50105  0.48949  1.0000
  C   C31       1.0  0.10364  0.56497  0.49808  1.0000
  C   C32       1.0  0.15846  0.5656300000000001  0.52539  1.0000
  C   C33       1.0  0.40147  0.50226  0.66075  1.0000
  C   C34       1.0  0.00117  0.3235  0.37847  1.0000
  C   C35       1.0  0.93724  0.36201  0.38756  1.0000
  C   C36       1.0  0.93699  0.41634  0.41493  1.0000
  C   C37       1.0  0.00043  0.43476  0.43493  1.0000
  C   C38       1.0  0.06439  0.39774000000000004  0.42553  1.0000
  C   C39       1.0  0.06469  0.34318  0.39813  1.0000
  C   C40       1.0  0.34418  0.50325  0.63101  1.0000
  C   C41       1.0  0.32722  0.43920000000000003  0.61136  1.0000
  C   C42       1.0  0.27373  0.4394100000000001  0.58354  1.0000
  C   C43       1.0  0.2346  0.50312  0.57485  1.0000
  C   C44       1.0  0.25187  0.56697  0.59503  1.0000
  C   C45       1.0  0.30622  0.56738  0.62247  1.0000
  C   C46       1.0  0.0022  0.1554  0.29329  1.0000
  C   C47       1.0  0.06772  0.18423000000000003  0.30695  1.0000
  C   C48       1.0  0.06723  0.23850000000000002  0.33434  1.0000
  C   C49       1.0  0.00153  0.26562  0.34935  1.0000
  C   C50       1.0  0.9361400000000001  0.23576000000000003  0.33541  1.0000
  C   C51       1.0  0.93631  0.18192000000000003  0.30778  1.0000
  C   C52       1.0  0.00256  0.09774  0.2638  1.0000
  C   C53       1.0  0.0018500000000000003  0.6772500000000001  0.04571  1.0000
  C   C54       1.0  0.93812  0.63791  0.03725  1.0000
  C   C55       1.0  0.9378100000000001  0.58332  0.00998  1.0000
  C   C56       1.0  0.00086  0.56553  0.98958  1.0000
  C   C57       1.0  0.06465  0.60367  0.99828  1.0000
  C   C58       1.0  0.06507  0.65859  0.02556  1.0000
  C   C59       1.0  0.00052  0.9012  0.16155  1.0000
  C   C60       1.0  0.82322  0.50043  0.87847  1.0000
  C   C61       1.0  0.86191  0.43669  0.88775  1.0000
  C   C62       1.0  0.91629  0.43678  0.9151099999999999  1.0000
  C   C63       1.0  0.93465  0.50035  0.93499  1.0000
  C   C64       1.0  0.8974  0.56415  0.92549  1.0000
  C   C65       1.0  0.84277  0.56414  0.89807  1.0000
  C   C66       1.0  0.0012699999999999999  0.8439100000000002  0.1317  1.0000
  C   C67       1.0  0.9375199999999999  0.827  0.11174  1.0000
  C   C68       1.0  0.9382199999999999  0.77382  0.08372  1.0000
  C   C69       1.0  0.0020899999999999994  0.7349  0.07498  1.0000
  C   C70       1.0  0.06575  0.75245  0.0953  1.0000
  C   C71       1.0  0.06567  0.8064  0.12296  1.0000
  C   C72       1.0  0.65543  0.50004  0.79288  1.0000
  C   C73       1.0  0.68383  0.5657100000000002  0.80659  1.0000
  C   C74       1.0  0.73791  0.56568  0.83406  1.0000
  C   C75       1.0  0.76552  0.50027  0.84918  1.0000
  C   C76       1.0  0.73595  0.43472  0.83525  1.0000
  C   C77       1.0  0.68214  0.43436  0.80757  1.0000
  C   C78       1.0  0.59821  0.50057  0.76314  1.0000
  C   C79       1.0  0.9981399999999999  0.32275  0.04571  1.0000
  C   C80       1.0  0.061869999999999994  0.3620900000000001  0.03725  1.0000
  C   C81       1.0  0.06219  0.41668  0.00998  1.0000
  C   C82       1.0  0.99913  0.4344700000000001  0.98958  1.0000
  C   C83       1.0  0.93535  0.39633000000000007  0.99828  1.0000
  C   C84       1.0  0.93493  0.3414  0.02556  1.0000
  C   C85       1.0  0.99949  0.0988  0.16154  1.0000
  C   C86       1.0  0.17677  0.49957000000000007  0.87847  1.0000
  C   C87       1.0  0.13809  0.56331  0.88775  1.0000
  C   C88       1.0  0.0837  0.5632200000000002  0.9151099999999999  1.0000
  C   C89       1.0  0.06534  0.4996499999999999  0.93499  1.0000
  C   C90       1.0  0.1026  0.43585  0.92549  1.0000
  C   C91       1.0  0.15722  0.43586  0.89807  1.0000
  C   C92       1.0  0.99872  0.15609  0.1317  1.0000
  C   C93       1.0  0.062470000000000005  0.17299  0.11174  1.0000
  C   C94       1.0  0.06178  0.22617999999999996  0.08372  1.0000
  C   C95       1.0  0.99791  0.2651  0.07498  1.0000
  C   C96       1.0  0.93424  0.24755  0.0953  1.0000
  C   C97       1.0  0.93433  0.19359000000000004  0.12296  1.0000
  C   C98       1.0  0.34457  0.49996000000000007  0.79288  1.0000
  C   C99       1.0  0.31617  0.43429  0.80659  1.0000
  C   C100      1.0  0.26208  0.43432  0.83407  1.0000
  C   C101      1.0  0.23447  0.49972  0.84918  1.0000
  C   C102      1.0  0.26404  0.5652800000000001  0.83525  1.0000
  C   C103      1.0  0.31786  0.56564  0.80757  1.0000
  C   C104      1.0  0.40179  0.49943000000000004  0.76314  1.0000
  C   C105      1.0  0.0  0.5  0.46228  1.0000
  C   C106      1.0  0.0  0.5  0.96233  1.0000
  C   C107      1.0  0.49743  0.17698000000000003  0.45434  1.0000
  C   C108      1.0  0.56133  0.13794  0.46273000000000003  1.0000
  C   C109      1.0  0.56192  0.08344  0.49003  1.0000
  C   C110      1.0  0.49895  0.06558  0.51052  1.0000
  C   C111      1.0  0.43503000000000003  0.10364  0.50193  1.0000
  C   C112      1.0  0.43437  0.15845000000000004  0.47461  1.0000
  C   C113      1.0  0.49773  0.40146  0.33925  1.0000
  C   C114      1.0  0.67649  0.0011800000000000003  0.62153  1.0000
  C   C115      1.0  0.63798  0.93724  0.61245  1.0000
  C   C116      1.0  0.58365  0.93699  0.58508  1.0000
  C   C117      1.0  0.56523  0.00043  0.56508  1.0000
  C   C118      1.0  0.60226  0.0644  0.57447  1.0000
  C   C119      1.0  0.65682  0.06469  0.60188  1.0000
  C   C120      1.0  0.49672000000000005  0.34419  0.369  1.0000
  C   C121      1.0  0.56078  0.32723  0.38865  1.0000
  C   C122      1.0  0.56058  0.27373  0.41646  1.0000
  C   C123      1.0  0.49687  0.23458000000000004  0.42515  1.0000
  C   C124      1.0  0.43302  0.25186  0.40497  1.0000
  C   C125      1.0  0.43259  0.30622  0.37755  1.0000
  C   C126      1.0  0.8446  0.00221  0.70672  1.0000
  C   C127      1.0  0.81577  0.06773  0.69305  1.0000
  C   C128      1.0  0.7615  0.06723  0.66567  1.0000
  C   C129      1.0  0.73438  0.00152  0.65065  1.0000
  C   C130      1.0  0.76424  0.9361400000000001  0.66459  1.0000
  C   C131      1.0  0.8180699999999999  0.9363100000000001  0.69222  1.0000
  C   C132      1.0  0.9022600000000001  0.00257  0.7362  1.0000
  C   C133      1.0  0.50256  0.8230200000000001  0.45434  1.0000
  C   C134      1.0  0.43866  0.86206  0.46273000000000003  1.0000
  C   C135      1.0  0.43807  0.91656  0.49003  1.0000
  C   C136      1.0  0.50105  0.93442  0.51052  1.0000
  C   C137      1.0  0.56496  0.89636  0.50193  1.0000
  C   C138      1.0  0.56562  0.84154  0.47461  1.0000
  C   C139      1.0  0.50227  0.59854  0.33925  1.0000
  C   C140      1.0  0.3235  0.99882  0.62153  1.0000
  C   C141      1.0  0.36201  0.06275  0.61245  1.0000
  C   C142      1.0  0.41635  0.063  0.58508  1.0000
  C   C143      1.0  0.43476  0.99956  0.56508  1.0000
  C   C144      1.0  0.39773  0.9356000000000001  0.57447  1.0000
  C   C145      1.0  0.34317  0.9353  0.60188  1.0000
  C   C146      1.0  0.50327  0.65581  0.369  1.0000
  C   C147      1.0  0.43921000000000004  0.67277  0.38865  1.0000
  C   C148      1.0  0.43940999999999997  0.72627  0.41646  1.0000
  C   C149      1.0  0.50312  0.76542  0.42515  1.0000
  C   C150      1.0  0.56697  0.74813  0.40497  1.0000
  C   C151      1.0  0.5674  0.6937800000000001  0.37755  1.0000
  C   C152      1.0  0.15539  0.9978000000000001  0.70671  1.0000
  C   C153      1.0  0.18422  0.93227  0.69305  1.0000
  C   C154      1.0  0.23849  0.93277  0.66567  1.0000
  C   C155      1.0  0.26562  0.9984700000000001  0.65065  1.0000
  C   C156      1.0  0.23575999999999997  0.06386  0.66459  1.0000
  C   C157      1.0  0.18192  0.06369  0.69222  1.0000
  C   C158      1.0  0.09774  0.9974300000000001  0.7362  1.0000
  C   C159      1.0  0.67725  0.9981400000000001  0.95429  1.0000
  C   C160      1.0  0.63791  0.06187999999999999  0.96275  1.0000
  C   C161      1.0  0.58332  0.06219  0.99002  1.0000
  C   C162      1.0  0.56553  0.99913  0.01042  1.0000
  C   C163      1.0  0.60366  0.93535  0.00173  1.0000
  C   C164      1.0  0.65858  0.93493  0.9744500000000001  1.0000
  C   C165      1.0  0.9012  0.99948  0.83846  1.0000
  C   C166      1.0  0.50044  0.17678  0.12153  1.0000
  C   C167      1.0  0.4367  0.1381  0.11224  1.0000
  C   C168      1.0  0.43678  0.08371  0.0849  1.0000
  C   C169      1.0  0.50035  0.06534  0.06502  1.0000
  C   C170      1.0  0.56415  0.1026  0.07452  1.0000
  C   C171      1.0  0.56415  0.15723  0.10193  1.0000
  C   C172      1.0  0.84391  0.99872  0.8683  1.0000
  C   C173      1.0  0.827  0.06248000000000001  0.88827  1.0000
  C   C174      1.0  0.77382  0.06178  0.91628  1.0000
  C   C175      1.0  0.73489  0.9979100000000001  0.92503  1.0000
  C   C176      1.0  0.75245  0.9342400000000001  0.90471  1.0000
  C   C177      1.0  0.8064  0.93433  0.87705  1.0000
  C   C178      1.0  0.50004  0.34457  0.20713  1.0000
  C   C179      1.0  0.56572  0.31616  0.19343  1.0000
  C   C180      1.0  0.56569  0.26208  0.16595  1.0000
  C   C181      1.0  0.50029  0.23447  0.15083  1.0000
  C   C182      1.0  0.43473  0.26402  0.16476  1.0000
  C   C183      1.0  0.43437  0.31783  0.19245  1.0000
  C   C184      1.0  0.50059  0.40184  0.23684999999999998  1.0000
  C   C185      1.0  0.32275  0.00185  0.95429  1.0000
  C   C186      1.0  0.36208  0.93812  0.96275  1.0000
  C   C187      1.0  0.41667  0.93781  0.99002  1.0000
  C   C188      1.0  0.43447  0.00086  0.01042  1.0000
  C   C189      1.0  0.39633  0.06465  0.00173  1.0000
  C   C190      1.0  0.34141  0.06507  0.9744500000000001  1.0000
  C   C191      1.0  0.09879  0.0005  0.83846  1.0000
  C   C192      1.0  0.49955  0.82321  0.12153  1.0000
  C   C193      1.0  0.5633  0.8619000000000001  0.11224  1.0000
  C   C194      1.0  0.56321  0.9162900000000002  0.0849  1.0000
  C   C195      1.0  0.4996399999999999  0.9346500000000001  0.06502  1.0000
  C   C196      1.0  0.43584000000000006  0.8974000000000001  0.07452  1.0000
  C   C197      1.0  0.43584000000000006  0.84277  0.10193  1.0000
  C   C198      1.0  0.15608  0.00128  0.8683  1.0000
  C   C199      1.0  0.17299  0.9375200000000001  0.88827  1.0000
  C   C200      1.0  0.22617999999999996  0.93822  0.91628  1.0000
  C   C201      1.0  0.2651  0.00209  0.92503  1.0000
  C   C202      1.0  0.24755  0.06576  0.90471  1.0000
  C   C203      1.0  0.1936  0.06567  0.87705  1.0000
  C   C204      1.0  0.49995  0.65543  0.20713  1.0000
  C   C205      1.0  0.43428  0.68384  0.19343  1.0000
  C   C206      1.0  0.4343099999999999  0.73792  0.16595  1.0000
  C   C207      1.0  0.49970999999999993  0.7655300000000002  0.15083  1.0000
  C   C208      1.0  0.56526  0.73598  0.16476  1.0000
  C   C209      1.0  0.56563  0.68217  0.19245  1.0000
  C   C210      1.0  0.49941  0.59816  0.23684999999999998  1.0000
  C   C211      1.0  0.5  0.0  0.53773  1.0000
  C   C212      1.0  0.5  0.0  0.03767  1.0000
  O   O1        1.0  0.57809  0.43622000000000005  0.67416  1.0000
  O   O2        1.0  0.0594  0.9271600000000001  0.25341  1.0000
  O   O3        1.0  0.57396  0.56011  0.67072  1.0000
  O   O4        1.0  0.93539  0.9226800000000001  0.25101  1.0000
  O   O5        1.0  0.4219  0.56377  0.67416  1.0000
  O   O6        1.0  0.9405800000000001  0.07284  0.25341  1.0000
  O   O7        1.0  0.42603  0.43989000000000006  0.67072  1.0000
  O   O8        1.0  0.0646  0.07732  0.251  1.0000
  O   O9        1.0  0.06223  0.9202399999999998  0.17518  1.0000
  O   O10       1.0  0.57331  0.43882000000000004  0.75243  1.0000
  O   O11       1.0  0.93856  0.92721  0.17137  1.0000
  O   O12       1.0  0.57822  0.56279  0.75034  1.0000
  O   O13       1.0  0.9377600000000001  0.07975  0.17518  1.0000
  O   O14       1.0  0.42669  0.56118  0.75243  1.0000
  O   O15       1.0  0.061430000000000005  0.07279  0.17137  1.0000
  O   O16       1.0  0.42177  0.43721  0.75034  1.0000
  O   O17       1.0  0.43622999999999995  0.42192  0.32583  1.0000
  O   O18       1.0  0.9271499999999999  0.9405900000000001  0.74659  1.0000
  O   O19       1.0  0.56012  0.42599000000000004  0.32928  1.0000
  O   O20       1.0  0.92269  0.06461  0.749  1.0000
  O   O21       1.0  0.56376  0.57808  0.32583  1.0000
  O   O22       1.0  0.07284  0.05940999999999999  0.74659  1.0000
  O   O23       1.0  0.43987999999999994  0.574  0.32928  1.0000
  O   O24       1.0  0.07731  0.9354000000000001  0.749  1.0000
  O   O25       1.0  0.92024  0.93777  0.82483  1.0000
  O   O26       1.0  0.43887999999999994  0.42692  0.24753999999999998  1.0000
  O   O27       1.0  0.92722  0.06144000000000001  0.82863  1.0000
  O   O28       1.0  0.56283  0.42172000000000004  0.24967  1.0000
  O   O29       1.0  0.07975  0.06224  0.82482  1.0000
  O   O30       1.0  0.56112  0.5730800000000001  0.24753999999999998  1.0000
  O   O31       1.0  0.07278  0.93856  0.82863  1.0000
  O   O32       1.0  0.43716999999999995  0.57828  0.24967  1.0000
