data_image0
_chemical_formula_structural       Cd8H104C68N24O48
_chemical_formula_sum              "Cd8 H104 C68 N24 O48"
_cell_length_a       12.73695
_cell_length_b       12.737489999999998
_cell_length_c       18.77305
_cell_angle_alpha    109.92694
_cell_angle_beta     109.91923999999999
_cell_angle_gamma    89.85379

_symmetry_space_group_name_H-M    'P 1'
_symmetry_Int_Tables_number       1

loop_
  _symmetry_equiv_pos_as_xyz
  'x,y,z'

loop_
  _atom_site_type_symbol
  _atom_site_label
  _atom_site_symmetry_multiplicity
  _atom_site_fract_x
  _atom_site_fract_y
  _atom_site_fract_z
  _atom_site_occupancy
  Cd  Cd1       1.0  0.5986  0.32309000000000004  0.14263  1.0000
  Cd  Cd2       1.0  0.54422  0.8193300000000001  0.14275  1.0000
  Cd  Cd3       1.0  0.56922  0.84849  0.64277  1.0000
  Cd  Cd4       1.0  0.07329000000000005  0.79438  0.6425  1.0000
  Cd  Cd5       1.0  0.2056  0.9267300000000003  0.35751  1.0000
  Cd  Cd6       1.0  0.1514999999999999  0.43078  0.3571999999999999  1.0000
  Cd  Cd7       1.0  0.67692  0.4013600000000001  0.85738  1.0000
  Cd  Cd8       1.0  0.18068999999999988  0.45576000000000005  0.8572299999999999  1.0000
  H   H1        1.0  0.91575  0.54268  0.31451  1.0000
  H   H2        1.0  0.90479  0.44120000000000004  0.43432999999999994  1.0000
  H   H3        1.0  0.76652  0.67702  0.3699  1.0000
  H   H4        1.0  0.72846  0.5771300000000001  0.44743  1.0000
  H   H5        1.0  0.6336799999999999  0.06011000000000001  0.12888  1.0000
  H   H6        1.0  0.57026  0.32611  0.30975  1.0000
  H   H7        1.0  0.45742  0.22083000000000003  0.23352  1.0000
  H   H8        1.0  0.7856  0.19878  0.23232  1.0000
  H   H9        1.0  0.7610999999999999  0.31194  0.3109  1.0000
  H   H10       1.0  0.7126  0.2775  0.41297  1.0000
  H   H11       1.0  0.3878600000000001  0.31453  0.96192  1.0000
  H   H12       1.0  0.64186  0.57048  0.14276  1.0000
  H   H13       1.0  0.68368  0.4258200000000001  0.0391  1.0000
  H   H14       1.0  0.39884  0.7702800000000002  0.31519  1.0000
  H   H15       1.0  0.5297399999999999  0.99213  0.4341599999999999  1.0000
  H   H16       1.0  0.6044  0.69156  0.37047  1.0000
  H   H17       1.0  0.71919  0.86932  0.4476599999999999  1.0000
  H   H18       1.0  0.49448  0.06818  0.12908  1.0000
  H   H19       1.0  0.73978  0.9842500000000001  0.31011  1.0000
  H   H20       1.0  0.77595  0.012700000000000013  0.23353  1.0000
  H   H21       1.0  0.44670999999999994  0.03370999999999999  0.2328  1.0000
  H   H22       1.0  0.5501799999999999  0.9996  0.31147999999999987  1.0000
  H   H23       1.0  0.70104  0.13684999999999997  0.4132099999999999  1.0000
  H   H24       1.0  0.5748599999999998  0.6474600000000003  0.9625699999999998  1.0000
  H   H25       1.0  0.50085  0.57167  0.14261  1.0000
  H   H26       1.0  0.35561  0.6128600000000001  0.03898  1.0000
  H   H27       1.0  0.52157  0.16555  0.81567  1.0000
  H   H28       1.0  0.7426099999999999  0.1534400000000001  0.93421  1.0000
  H   H29       1.0  0.44240999999999997  0.01618999999999996  0.87077  1.0000
  H   H30       1.0  0.62045  0.97759  0.94769  1.0000
  H   H31       1.0  0.81829  0.8842300000000002  0.62902  1.0000
  H   H32       1.0  0.7344699999999998  0.82004  0.8097  1.0000
  H   H33       1.0  0.76351  0.7073  0.73316  1.0000
  H   H34       1.0  0.78299  0.03596999999999996  0.73277  1.0000
  H   H35       1.0  0.7489599999999998  0.011059999999999922  0.8112499999999998  1.0000
  H   H36       1.0  0.8863  0.9620299999999999  0.9130099999999998  1.0000
  H   H37       1.0  0.39752  0.63728  0.46215  1.0000
  H   H38       1.0  0.32195  0.89216  0.64262  1.0000
  H   H39       1.0  0.36269999999999997  0.93333  0.5388399999999998  1.0000
  H   H40       1.0  0.29324  0.6490200000000002  0.81472  1.0000
  H   H41       1.0  0.1915299999999999  0.77929  0.93385  1.0000
  H   H42       1.0  0.42768999999999996  0.8536900000000002  0.87022  1.0000
  H   H43       1.0  0.3265999999999999  0.9691600000000001  0.9475399999999998  1.0000
  H   H44       1.0  0.81094  0.74488  0.62887  1.0000
  H   H45       1.0  0.07581999999999986  0.9895999999999999  0.8100799999999998  1.0000
  H   H46       1.0  0.97029  0.02612000000000002  0.73378  1.0000
  H   H47       1.0  0.9499499999999997  0.69657  0.7322799999999998  1.0000
  H   H48       1.0  0.06254999999999994  0.7998200000000002  0.81105  1.0000
  H   H49       1.0  0.027169999999999896  0.9503699999999999  0.9130799999999998  1.0000
  H   H50       1.0  0.06449999999999996  0.8249100000000003  0.4622999999999999  1.0000
  H   H51       1.0  0.3211399999999999  0.7513000000000002  0.64272  1.0000
  H   H52       1.0  0.17656999999999998  0.60603  0.53926  1.0000
  H   H53       1.0  0.35096  0.7067500000000001  0.18526  1.0000
  H   H54       1.0  0.22067  0.80846  0.06615  1.0000
  H   H55       1.0  0.14629  0.57231  0.12977  1.0000
  H   H56       1.0  0.03083  0.6733800000000001  0.05247  1.0000
  H   H57       1.0  0.25511  0.18907000000000002  0.37113  1.0000
  H   H58       1.0  0.010400000000000003  0.92415  0.18993  1.0000
  H   H59       1.0  0.9738699999999998  0.029710000000000004  0.26622  1.0000
  H   H60       1.0  0.30342  0.05004000000000003  0.26771  1.0000
  H   H61       1.0  0.20019999999999996  0.9374200000000003  0.18895  1.0000
  H   H62       1.0  0.049649999999999986  0.9727700000000002  0.08691999999999997  1.0000
  H   H63       1.0  0.17509999999999987  0.9355100000000002  0.5377299999999998  1.0000
  H   H64       1.0  0.24869999999999995  0.67886  0.3572599999999999  1.0000
  H   H65       1.0  0.39397  0.82344  0.46073  1.0000
  H   H66       1.0  0.8344599999999998  0.4784200000000001  0.18432999999999994  1.0000
  H   H67       1.0  0.84656  0.25739  0.06577999999999998  1.0000
  H   H68       1.0  0.98383  0.55759  0.12923  1.0000
  H   H69       1.0  0.022419999999999992  0.37952000000000014  0.05228999999999999  1.0000
  H   H70       1.0  0.11573999999999998  0.18172  0.37098  1.0000
  H   H71       1.0  0.17997  0.26547000000000004  0.19029  1.0000
  H   H72       1.0  0.2927  0.23646000000000003  0.26683  1.0000
  H   H73       1.0  0.96402  0.21701000000000006  0.26723  1.0000
  H   H74       1.0  0.9889499999999998  0.251  0.18875  1.0000
  H   H75       1.0  0.03801  0.11363000000000001  0.087  1.0000
  H   H76       1.0  0.36271999999999993  0.60249  0.53781  1.0000
  H   H77       1.0  0.10784000000000002  0.6780500000000003  0.35739  1.0000
  H   H78       1.0  0.06668  0.6373000000000002  0.46116  1.0000
  H   H79       1.0  0.45725  0.08425000000000006  0.68548  1.0000
  H   H80       1.0  0.5587899999999999  0.09520999999999993  0.5656599999999998  1.0000
  H   H81       1.0  0.32296  0.2335300000000001  0.63012  1.0000
  H   H82       1.0  0.42286999999999997  0.27152000000000004  0.55259  1.0000
  H   H83       1.0  0.93989  0.3663099999999999  0.8710999999999998  1.0000
  H   H84       1.0  0.6739099999999999  0.42974000000000007  0.6902699999999998  1.0000
  H   H85       1.0  0.77919  0.5426  0.76652  1.0000
  H   H86       1.0  0.8012199999999999  0.21439000000000008  0.76767  1.0000
  H   H87       1.0  0.68807  0.2388999999999999  0.6890899999999998  1.0000
  H   H88       1.0  0.72252  0.28741  0.58704  1.0000
  H   H89       1.0  0.6854699999999999  0.6121300000000001  0.03809  1.0000
  H   H90       1.0  0.42953999999999987  0.35811  0.85724  1.0000
  H   H91       1.0  0.57419  0.31631000000000004  0.96091  1.0000
  H   H92       1.0  0.2296899999999999  0.60111  0.68481  1.0000
  H   H93       1.0  0.007869999999999995  0.47032  0.56584  1.0000
  H   H94       1.0  0.3084  0.39555000000000007  0.62944  1.0000
  H   H95       1.0  0.1306  0.28079  0.55227  1.0000
  H   H96       1.0  0.93182  0.50551  0.8709299999999998  1.0000
  H   H97       1.0  0.01576999999999999  0.2602  0.68987  1.0000
  H   H98       1.0  0.9873  0.22404  0.76644  1.0000
  H   H99       1.0  0.9663099999999999  0.55329  0.76722  1.0000
  H   H100      1.0  0.00041999999999999227  0.4498200000000001  0.68853  1.0000
  H   H101      1.0  0.86317  0.29895  0.58677  1.0000
  H   H102      1.0  0.35252  0.4251500000000001  0.03743  1.0000
  H   H103      1.0  0.42836  0.4991000000000001  0.8574  1.0000
  H   H104      1.0  0.38714  0.64438  0.96102  1.0000
  C   C1        1.0  0.71498  0.50654  0.28675  1.0000
  C   C2        1.0  0.79976  0.5958700000000001  0.36279  1.0000
  C   C3        1.0  0.80884  0.56493  0.43753  1.0000
  C   C4        1.0  0.90125  0.64729  0.51298  1.0000
  C   C5        1.0  0.54672  0.23620000000000005  0.27277  1.0000
  C   C6        1.0  0.73711  0.2228  0.27249  1.0000
  C   C7        1.0  0.5734000000000001  0.7784200000000002  0.28708  1.0000
  C   C8        1.0  0.56365  0.76512  0.36281  1.0000
  C   C9        1.0  0.6288599999999999  0.8712800000000002  0.43764  1.0000
  C   C10       1.0  0.61146  0.8634600000000001  0.51264  1.0000
  C   C11       1.0  0.7261  0.03682000000000003  0.27289  1.0000
  C   C12       1.0  0.53549  0.05004999999999999  0.2729  1.0000
  C   C13       1.0  0.5293199999999999  0.96439  0.7871799999999998  1.0000
  C   C14       1.0  0.5159599999999998  0.04906000000000002  0.86318  1.0000
  C   C15       1.0  0.62207  0.05796000000000002  0.93776  1.0000
  C   C16       1.0  0.61463  0.15025000000000002  0.01303  1.0000
  C   C17       1.0  0.78723  0.7965500000000001  0.7726  1.0000
  C   C18       1.0  0.7995699999999999  0.98722  0.77278  1.0000
  C   C19       1.0  0.25754  0.8225400000000003  0.78649  1.0000
  C   C20       1.0  0.34644  0.8133200000000003  0.86263  1.0000
  C   C21       1.0  0.31512  0.8787799999999999  0.9373999999999999  1.0000
  C   C22       1.0  0.39802  0.8618400000000003  0.01273  1.0000
  C   C23       1.0  0.98593  0.97605  0.7729699999999998  1.0000
  C   C24       1.0  0.97346  0.7852800000000002  0.7725  1.0000
  C   C25       1.0  0.17745  0.74246  0.21351  1.0000
  C   C26       1.0  0.18665999999999996  0.65356  0.13736  1.0000
  C   C27       1.0  0.12119999999999999  0.6848600000000001  0.06259999999999998  1.0000
  C   C28       1.0  0.13814  0.6019800000000002  0.98727  1.0000
  C   C29       1.0  0.023949999999999968  0.014059999999999968  0.22702999999999995  1.0000
  C   C30       1.0  0.21472  0.026520000000000012  0.22749  1.0000
  C   C31       1.0  0.03562  0.4706700000000001  0.2128  1.0000
  C   C32       1.0  0.95095  0.48404000000000014  0.13682  1.0000
  C   C33       1.0  0.9420599999999998  0.37791  0.062229999999999994  1.0000
  C   C34       1.0  0.8497499999999999  0.3853599999999999  0.9869699999999999  1.0000
  C   C35       1.0  0.20345999999999997  0.21274  0.22739  1.0000
  C   C36       1.0  0.012769999999999998  0.20041000000000006  0.22722  1.0000
  C   C37       1.0  0.49345999999999984  0.28501  0.7132599999999998  1.0000
  C   C38       1.0  0.40411  0.20025999999999997  0.63721  1.0000
  C   C39       1.0  0.43507  0.19115999999999997  0.56248  1.0000
  C   C40       1.0  0.3527199999999999  0.09874999999999999  0.48701999999999995  1.0000
  C   C41       1.0  0.7638199999999997  0.4532900000000001  0.7272499999999997  1.0000
  C   C42       1.0  0.7772  0.26288  0.72751  1.0000
  C   C43       1.0  0.22161000000000006  0.42661000000000004  0.71292  1.0000
  C   C44       1.0  0.23488000000000003  0.43633  0.63717  1.0000
  C   C45       1.0  0.1287  0.37115  0.56235  1.0000
  C   C46       1.0  0.13655  0.38857  0.48734999999999995  1.0000
  C   C47       1.0  0.96319  0.2739000000000001  0.72708  1.0000
  C   C48       1.0  0.94997  0.46451  0.72711  1.0000
  C   C49       1.0  0.58364  0.08370999999999999  0.16783999999999996  1.0000
  C   C50       1.0  0.6876799999999997  0.18799  0.37502999999999986  1.0000
  C   C51       1.0  0.83406  0.83395  0.6678  1.0000
  C   C52       1.0  0.9376999999999995  0.9372299999999999  0.8749799999999998  1.0000
  C   C53       1.0  0.16603  0.16595  0.3322  1.0000
  C   C54       1.0  0.0628  0.062240000000000004  0.12502  1.0000
  C   C55       1.0  0.9162899999999998  0.4163500000000001  0.83216  1.0000
  C   C56       1.0  0.81204  0.31231  0.62497  1.0000
  C   C57       1.0  0.4047  0.40434000000000003  0.99978  1.0000
  C   C58       1.0  0.59566  0.59529  0.00022  1.0000
  C   C59       1.0  0.34557999999999994  0.6544200000000001  0.49998  1.0000
  C   C60       1.0  0.15435  0.84566  0.50001  1.0000
  C   C61       1.0  0.55227  0.55197  0.10443999999999998  1.0000
  C   C62       1.0  0.30234  0.80251  0.60442  1.0000
  C   C63       1.0  0.19749  0.69765  0.39557  1.0000
  C   C64       1.0  0.44805  0.4477000000000001  0.89557  1.0000
  C   C65       1.0  0.5945  0.4054900000000001  0.0  1.0000
  C   C66       1.0  0.40581  0.5941900000000001  0.0  1.0000
  C   C67       1.0  0.34397999999999995  0.84409  0.49984999999999996  1.0000
  C   C68       1.0  0.15591999999999995  0.65602  0.50015  1.0000
  N   N1        1.0  0.61471  0.20533  0.21887  1.0000
  N   N2        1.0  0.56631  0.1691  0.32411  1.0000
  N   N3        1.0  0.52597  0.43059  0.05283  1.0000
  N   N4        1.0  0.60401  0.01350000000000001  0.21912  1.0000
  N   N5        1.0  0.75787  0.15547000000000005  0.32398  1.0000
  N   N6        1.0  0.52717  0.62194  0.05303  1.0000
  N   N7        1.0  0.76362  0.8648800000000001  0.71892  1.0000
  N   N8        1.0  0.90583  0.8159200000000001  0.8238299999999997  1.0000
  N   N9        1.0  0.37210999999999983  0.77581  0.5528499999999997  1.0000
  N   N10       1.0  0.95567  0.8540800000000002  0.71897  1.0000
  N   N11       1.0  0.9185699999999998  0.007699999999999964  0.82414  1.0000
  N   N12       1.0  0.1809099999999999  0.7774600000000002  0.5529899999999999  1.0000
  N   N13       1.0  0.14591  0.04433  0.28103  1.0000
  N   N14       1.0  0.99231  0.0814  0.17586  1.0000
  N   N15       1.0  0.2225499999999999  0.81909  0.44701999999999986  1.0000
  N   N16       1.0  0.13511  0.23637  0.28108  1.0000
  N   N17       1.0  0.1841  0.09412  0.17616  1.0000
  N   N18       1.0  0.22418999999999994  0.6278900000000001  0.44713  1.0000
  N   N19       1.0  0.79468  0.38529000000000013  0.78115  1.0000
  N   N20       1.0  0.83092  0.43369  0.67591  1.0000
  N   N21       1.0  0.56943  0.47401  0.94717  1.0000
  N   N22       1.0  0.98651  0.3959900000000001  0.78088  1.0000
  N   N23       1.0  0.84455  0.24212000000000006  0.67601  1.0000
  N   N24       1.0  0.3780700000000001  0.47282000000000013  0.94697  1.0000
  O   O1        1.0  0.7539999999999998  0.4452700000000001  0.23330999999999993  1.0000
  O   O2        1.0  0.6132299999999999  0.49233000000000005  0.27881  1.0000
  O   O3        1.0  0.9074199999999999  0.60902  0.3578599999999999  1.0000
  O   O4        1.0  0.8247199999999998  0.45061  0.4253099999999999  1.0000
  O   O5        1.0  0.96801  0.60933  0.56418  1.0000
  O   O6        1.0  0.90973  0.75115  0.52178  1.0000
  O   O7        1.0  0.4814599999999999  0.7882500000000001  0.23409  1.0000
  O   O8        1.0  0.6673399999999998  0.7829200000000002  0.27913  1.0000
  O   O9        1.0  0.45099  0.7459300000000002  0.35756  1.0000
  O   O10       1.0  0.60108  0.9734700000000002  0.42562  1.0000
  O   O11       1.0  0.59333  0.95182  0.56327  1.0000
  O   O12       1.0  0.61388  0.76858  0.52166  1.0000
  O   O13       1.0  0.53949  0.004349999999999883  0.7349399999999998  1.0000
  O   O14       1.0  0.5341  0.86219  0.77854  1.0000
  O   O15       1.0  0.4973699999999998  0.1567999999999999  0.8583099999999998  1.0000
  O   O16       1.0  0.72417  0.07365999999999992  0.9256399999999998  1.0000
  O   O17       1.0  0.70373  0.21689  0.0644  1.0000
  O   O18       1.0  0.51942  0.15871  0.02152  1.0000
  O   O19       1.0  0.19621999999999992  0.73023  0.73288  1.0000
  O   O20       1.0  0.24367000000000003  0.91638  0.77858  1.0000
  O   O21       1.0  0.36003  0.7005600000000001  0.85745  1.0000
  O   O22       1.0  0.20104999999999998  0.8507500000000002  0.92542  1.0000
  O   O23       1.0  0.36025999999999997  0.8460200000000001  0.06385  1.0000
  O   O24       1.0  0.50195  0.86268  0.02167  1.0000
  O   O25       1.0  0.26976  0.8037700000000001  0.26711  1.0000
  O   O26       1.0  0.08361000000000002  0.75634  0.22143  1.0000
  O   O27       1.0  0.29942  0.63996  0.14253  1.0000
  O   O28       1.0  0.14922  0.7989400000000001  0.07459  1.0000
  O   O29       1.0  0.15396999999999994  0.6397500000000003  0.9361499999999999  1.0000
  O   O30       1.0  0.13731999999999994  0.4980500000000001  0.97832  1.0000
  O   O31       1.0  0.9956499999999999  0.4604800000000001  0.26503999999999994  1.0000
  O   O32       1.0  0.13781  0.46590000000000004  0.22145  1.0000
  O   O33       1.0  0.8432099999999998  0.50264  0.14169999999999994  1.0000
  O   O34       1.0  0.92634  0.27582  0.07434999999999997  1.0000
  O   O35       1.0  0.7831099999999998  0.29627  0.93561  1.0000
  O   O36       1.0  0.8413  0.48057  0.9784799999999999  1.0000
  O   O37       1.0  0.55472  0.24596999999999994  0.7666699999999997  1.0000
  O   O38       1.0  0.50766  0.3867700000000001  0.72121  1.0000
  O   O39       1.0  0.39092999999999994  0.09261  0.6421399999999999  1.0000
  O   O40       1.0  0.5493999999999999  0.17528  0.5747  1.0000
  O   O41       1.0  0.39068  0.03199000000000002  0.43582  1.0000
  O   O42       1.0  0.24884999999999993  0.09026999999999995  0.47821999999999987  1.0000
  O   O43       1.0  0.21176  0.5185600000000002  0.7659  1.0000
  O   O44       1.0  0.21711999999999984  0.3326699999999999  0.7208799999999997  1.0000
  O   O45       1.0  0.25408  0.54899  0.64245  1.0000
  O   O46       1.0  0.026529999999999984  0.39898000000000006  0.57438  1.0000
  O   O47       1.0  0.048179999999999924  0.40665000000000007  0.43669999999999987  1.0000
  O   O48       1.0  0.23143  0.38616  0.47833  1.0000
