data_image0
_chemical_formula_structural       Zn8H96C108O50
_chemical_formula_sum              "Zn8 H96 C108 O50"
_cell_length_a       17.07954
_cell_length_b       17.17999
_cell_length_c       17.082940000000004
_cell_angle_alpha    94.32667999999998
_cell_angle_beta     94.33093
_cell_angle_gamma    92.2894

_symmetry_space_group_name_H-M    'P 1'
_symmetry_Int_Tables_number       1

loop_
  _symmetry_equiv_pos_as_xyz
  'x,y,z'

loop_
  _atom_site_type_symbol
  _atom_site_label
  _atom_site_symmetry_multiplicity
  _atom_site_fract_x
  _atom_site_fract_y
  _atom_site_fract_z
  _atom_site_occupancy
  Zn  Zn1       1.0  0.33938  0.23052  0.21394  1.0000
  Zn  Zn2       1.0  0.20379  0.35342  0.23528  1.0000
  Zn  Zn3       1.0  0.35547  0.36517  0.35557  1.0000
  Zn  Zn4       1.0  0.23245  0.22089  0.35551  1.0000
  Zn  Zn5       1.0  0.66062  0.7694799999999999  0.78606  1.0000
  Zn  Zn6       1.0  0.79621  0.64658  0.7647200000000002  1.0000
  Zn  Zn7       1.0  0.64453  0.63483  0.64444  1.0000
  Zn  Zn8       1.0  0.76755  0.77911  0.64449  1.0000
  H   H1        1.0  0.58654  0.31997  0.4362000000000001  1.0000
  H   H2        1.0  0.57885  0.2122  0.20116000000000006  1.0000
  H   H3        1.0  0.42265  0.59598  0.3162000000000001  1.0000
  H   H4        1.0  0.15550000000000003  0.37317000000000006  0.9849900000000001  1.0000
  H   H5        1.0  0.38746  0.2869999999999999  0.99666  1.0000
  H   H6        1.0  0.97614  0.38552  0.29099  1.0000
  H   H7        1.0  0.03856999999999999  0.42545  0.81491  1.0000
  H   H8        1.0  0.09064000000000003  0.45918  0.9069800000000002  1.0000
  H   H9        1.0  0.055339999999999986  0.35907  0.88991  1.0000
  H   H10       1.0  0.80521  0.49945000000000006  0.26547  1.0000
  H   H11       1.0  0.8835  0.44869  0.22381  1.0000
  H   H12       1.0  0.89489  0.48866999999999994  0.32458  1.0000
  H   H13       1.0  0.17979999999999996  0.58758  0.23101  1.0000
  H   H14       1.0  0.0625  0.7485  0.17606000000000002  1.0000
  H   H15       1.0  0.08147  0.6771599999999999  0.24563  1.0000
  H   H16       1.0  0.10658  0.65938  0.14581  1.0000
  H   H17       1.0  0.5577  0.76262  0.35146  1.0000
  H   H18       1.0  0.53081  0.67269  0.29466  1.0000
  H   H19       1.0  0.50093  0.68858  0.3933300000000001  1.0000
  H   H20       1.0  0.75487  0.35565999999999987  0.5771900000000002  1.0000
  H   H21       1.0  0.66613  0.29923  0.54878  1.0000
  H   H22       1.0  0.67838  0.39679  0.51794  1.0000
  H   H23       1.0  0.8281  0.016669999999999994  0.39083  1.0000
  H   H24       1.0  0.91526  0.07073  0.43219  1.0000
  H   H25       1.0  0.90295  0.04322  0.32831  1.0000
  H   H26       1.0  0.40632  0.57408  0.7753100000000002  1.0000
  H   H27       1.0  0.34162  0.55842  0.6878500000000002  1.0000
  H   H28       1.0  0.43638  0.5156  0.6926700000000002  1.0000
  H   H29       1.0  0.39479  0.82154  0.029630000000000004  1.0000
  H   H30       1.0  0.42847  0.90837  0.08958000000000002  1.0000
  H   H31       1.0  0.32957  0.89955  0.045240000000000016  1.0000
  H   H32       1.0  0.5164  0.25789  0.84074  1.0000
  H   H33       1.0  0.45648  0.21743  0.91079  1.0000
  H   H34       1.0  0.49961000000000005  0.31475  0.92998  1.0000
  H   H35       1.0  0.74132  0.15044  0.09214  1.0000
  H   H36       1.0  0.66474  0.21779  0.10338000000000001  1.0000
  H   H37       1.0  0.65493  0.12214999999999998  0.13841  1.0000
  H   H38       1.0  0.98935  0.15074  0.35794  1.0000
  H   H39       1.0  0.35288  0.44446999999999987  0.6004700000000001  1.0000
  H   H40       1.0  0.22221000000000002  0.22505999999999998  0.5843700000000002  1.0000
  H   H41       1.0  0.13506999999999997  0.12976999999999994  0.73924  1.0000
  H   H42       1.0  0.20176  0.127  0.66304  1.0000
  H   H43       1.0  0.11751000000000004  0.18624000000000004  0.6558200000000002  1.0000
  H   H44       1.0  0.2611  0.9905399999999999  0.38437  1.0000
  H   H45       1.0  0.34238  0.98797  0.15322  1.0000
  H   H46       1.0  0.22566  0.8255899999999998  0.49922  1.0000
  H   H47       1.0  0.18380999999999997  0.90132  0.44485  1.0000
  H   H48       1.0  0.28272  0.91362  0.48939  1.0000
  H   H49       1.0  0.41346  0.68003  0.5638  1.0000
  H   H50       1.0  0.42115  0.7878  0.79884  1.0000
  H   H51       1.0  0.57735  0.40402000000000005  0.6838000000000001  1.0000
  H   H52       1.0  0.8445  0.62683  0.01501  1.0000
  H   H53       1.0  0.61254  0.713  0.0033400000000000005  1.0000
  H   H54       1.0  0.023859999999999985  0.61448  0.70901  1.0000
  H   H55       1.0  0.9614299999999999  0.5745499999999999  0.18509  1.0000
  H   H56       1.0  0.9093599999999998  0.54082  0.09302000000000003  1.0000
  H   H57       1.0  0.94466  0.6409299999999999  0.11009000000000002  1.0000
  H   H58       1.0  0.19478999999999996  0.50055  0.73454  1.0000
  H   H59       1.0  0.11650000000000002  0.55131  0.7761900000000003  1.0000
  H   H60       1.0  0.10511  0.51133  0.67542  1.0000
  H   H61       1.0  0.8202  0.41242  0.7689900000000002  1.0000
  H   H62       1.0  0.9375  0.25149  0.82395  1.0000
  H   H63       1.0  0.9185300000000001  0.32284000000000007  0.7543700000000002  1.0000
  H   H64       1.0  0.89342  0.34062  0.85419  1.0000
  H   H65       1.0  0.4423  0.23738  0.64854  1.0000
  H   H66       1.0  0.4692  0.32730999999999993  0.70535  1.0000
  H   H67       1.0  0.49907  0.31142  0.60668  1.0000
  H   H68       1.0  0.24512999999999996  0.6443400000000001  0.42281  1.0000
  H   H69       1.0  0.33388  0.70077  0.45123  1.0000
  H   H70       1.0  0.32162  0.60321  0.48206  1.0000
  H   H71       1.0  0.1719  0.9833299999999999  0.60917  1.0000
  H   H72       1.0  0.08474000000000001  0.92927  0.5678200000000001  1.0000
  H   H73       1.0  0.09704999999999998  0.95678  0.67169  1.0000
  H   H74       1.0  0.59368  0.42592  0.22469  1.0000
  H   H75       1.0  0.65838  0.44158  0.31215  1.0000
  H   H76       1.0  0.56362  0.48439999999999994  0.30733000000000005  1.0000
  H   H77       1.0  0.60521  0.17846  0.97037  1.0000
  H   H78       1.0  0.57153  0.09163  0.91043  1.0000
  H   H79       1.0  0.67043  0.10045000000000001  0.9547700000000001  1.0000
  H   H80       1.0  0.4836  0.74211  0.15926  1.0000
  H   H81       1.0  0.54353  0.78257  0.08921000000000003  1.0000
  H   H82       1.0  0.5004  0.68525  0.07002000000000003  1.0000
  H   H83       1.0  0.25867999999999997  0.8495600000000001  0.9078600000000002  1.0000
  H   H84       1.0  0.33526  0.78221  0.89662  1.0000
  H   H85       1.0  0.34507  0.87785  0.86159  1.0000
  H   H86       1.0  0.01065  0.8492599999999998  0.6420600000000002  1.0000
  H   H87       1.0  0.64712  0.55553  0.3995300000000001  1.0000
  H   H88       1.0  0.77779  0.77493  0.4156300000000001  1.0000
  H   H89       1.0  0.86494  0.8702299999999998  0.26077  1.0000
  H   H90       1.0  0.79825  0.873  0.33696  1.0000
  H   H91       1.0  0.88249  0.81376  0.34418  1.0000
  H   H92       1.0  0.7388999999999999  0.00946  0.61563  1.0000
  H   H93       1.0  0.65762  0.01202999999999999  0.84678  1.0000
  H   H94       1.0  0.77434  0.17441  0.50078  1.0000
  H   H95       1.0  0.81619  0.09868  0.55515  1.0000
  H   H96       1.0  0.71728  0.08638  0.51061  1.0000
  C   C1        1.0  0.23888  0.7031099999999998  0.24048  1.0000
  C   C2        1.0  0.61807  0.29397  0.38883  1.0000
  C   C3        1.0  0.33074  0.8740899999999999  0.20056  1.0000
  C   C4        1.0  0.49000000000000005  0.27819  0.30666  1.0000
  C   C5        1.0  0.29457000000000005  0.5002399999999998  0.2855900000000001  1.0000
  C   C6        1.0  0.31972  0.4050299999999999  0.71227  1.0000
  C   C7        1.0  0.86483  0.32994  0.31517  1.0000
  C   C8        1.0  0.61394  0.23268  0.25481  1.0000
  C   C9        1.0  0.21139  0.36604  0.87412  1.0000
  C   C10       1.0  0.73962  0.25694  0.33252  1.0000
  C   C11       1.0  0.30076  0.58533  0.27453  1.0000
  C   C12       1.0  0.57608  0.26702  0.31766  1.0000
  C   C13       1.0  0.37236  0.62709  0.29487  1.0000
  C   C14       1.0  0.27102  0.3291299999999999  0.9976800000000001  1.0000
  C   C15       1.0  0.34373000000000004  0.31967  0.88149  1.0000
  C   C16       1.0  0.30956  0.74698  0.263  1.0000
  C   C17       1.0  0.20722  0.3587000000000001  0.9548100000000002  1.0000
  C   C18       1.0  0.33951000000000003  0.31013  0.96165  1.0000
  C   C19       1.0  0.82661  0.26058  0.3348400000000001  1.0000
  C   C20       1.0  0.87187  0.19599  0.35026  1.0000
  C   C21       1.0  0.30989  0.83333  0.26475  1.0000
  C   C22       1.0  0.9457899999999999  0.3337  0.30822  1.0000
  C   C23       1.0  0.26589  0.31375  0.08218  1.0000
  C   C24       1.0  0.27925  0.3466199999999999  0.8362700000000001  1.0000
  C   C25       1.0  0.08011  0.40944  0.86241  1.0000
  C   C26       1.0  0.28068  0.34575  0.7494800000000003  1.0000
  C   C27       1.0  0.85316  0.46072  0.27763  1.0000
  C   C28       1.0  0.69559  0.22842999999999997  0.2624  1.0000
  C   C29       1.0  0.37653  0.70795  0.28908  1.0000
  C   C30       1.0  0.23385  0.62245  0.2464  1.0000
  C   C31       1.0  0.10309000000000001  0.70441  0.19461  1.0000
  C   C32       1.0  0.69977  0.28813  0.39621  1.0000
  C   C33       1.0  0.51174  0.71617  0.3389  1.0000
  C   C34       1.0  0.70806  0.34289  0.5300900000000001  1.0000
  C   C35       1.0  0.87241  0.06189999999999999  0.38052  1.0000
  C   C36       1.0  0.38608  0.53182  0.72605  1.0000
  C   C37       1.0  0.37782  0.86753  0.07219  1.0000
  C   C38       1.0  0.4736  0.2711299999999999  0.8839400000000002  1.0000
  C   C39       1.0  0.69656  0.17095  0.13048  1.0000
  C   C40       1.0  0.98934  0.2685  0.32321  1.0000
  C   C41       1.0  0.07531  0.27334  0.31338  1.0000
  C   C42       1.0  0.9534400000000001  0.19973  0.34583  1.0000
  C   C43       1.0  0.32316  0.3996  0.6302300000000002  1.0000
  C   C44       1.0  0.28832  0.33373  0.58558  1.0000
  C   C45       1.0  0.29445  0.32296  0.49884000000000006  1.0000
  C   C46       1.0  0.24815999999999996  0.2749599999999999  0.62116  1.0000
  C   C47       1.0  0.24410999999999997  0.28149  0.70255  1.0000
  C   C48       1.0  0.16288  0.16411  0.69654  1.0000
  C   C49       1.0  0.28506  0.87579  0.33154  1.0000
  C   C50       1.0  0.28037  0.95687  0.3337900000000001  1.0000
  C   C51       1.0  0.32692  0.95535  0.20216  1.0000
  C   C52       1.0  0.30105  0.99605  0.26882  1.0000
  C   C53       1.0  0.29434  0.08236000000000002  0.2712200000000001  1.0000
  C   C54       1.0  0.23792  0.87129  0.46002  1.0000
  C   C55       1.0  0.76112  0.29689  0.7595200000000002  1.0000
  C   C56       1.0  0.38193  0.70603  0.61117  1.0000
  C   C57       1.0  0.6692600000000001  0.12591  0.7994400000000003  1.0000
  C   C58       1.0  0.51  0.7218099999999997  0.6933400000000001  1.0000
  C   C59       1.0  0.70543  0.49976000000000004  0.71441  1.0000
  C   C60       1.0  0.68028  0.59497  0.28774  1.0000
  C   C61       1.0  0.13517  0.67006  0.68483  1.0000
  C   C62       1.0  0.38606  0.76732  0.74519  1.0000
  C   C63       1.0  0.78861  0.63396  0.12588000000000005  1.0000
  C   C64       1.0  0.26038  0.7430599999999998  0.66748  1.0000
  C   C65       1.0  0.69924  0.41467  0.72547  1.0000
  C   C66       1.0  0.42392  0.73298  0.68234  1.0000
  C   C67       1.0  0.62764  0.3729099999999999  0.7051400000000002  1.0000
  C   C68       1.0  0.72898  0.67087  0.00232  1.0000
  C   C69       1.0  0.65627  0.68033  0.11851000000000002  1.0000
  C   C70       1.0  0.69044  0.25302  0.737  1.0000
  C   C71       1.0  0.7927799999999999  0.6413  0.04519  1.0000
  C   C72       1.0  0.66049  0.68987  0.03836  1.0000
  C   C73       1.0  0.17339  0.73942  0.6651700000000003  1.0000
  C   C74       1.0  0.12813000000000002  0.80401  0.6497400000000002  1.0000
  C   C75       1.0  0.69011  0.16667  0.73525  1.0000
  C   C76       1.0  0.05421  0.6663  0.69178  1.0000
  C   C77       1.0  0.73411  0.68625  0.91782  1.0000
  C   C78       1.0  0.72076  0.65338  0.16373  1.0000
  C   C79       1.0  0.91989  0.5905599999999999  0.13759000000000005  1.0000
  C   C80       1.0  0.7193199999999998  0.6542499999999999  0.2505200000000001  1.0000
  C   C81       1.0  0.14684  0.53928  0.72238  1.0000
  C   C82       1.0  0.30441  0.77157  0.7376000000000003  1.0000
  C   C83       1.0  0.62347  0.29205  0.71092  1.0000
  C   C84       1.0  0.76615  0.37755  0.7536  1.0000
  C   C85       1.0  0.89691  0.29558999999999996  0.80539  1.0000
  C   C86       1.0  0.30023  0.7118699999999998  0.60379  1.0000
  C   C87       1.0  0.48826  0.28383  0.6611  1.0000
  C   C88       1.0  0.29194  0.65711  0.4699100000000001  1.0000
  C   C89       1.0  0.12759  0.9381  0.61949  1.0000
  C   C90       1.0  0.61392  0.46817999999999993  0.27395  1.0000
  C   C91       1.0  0.62218  0.13247  0.92781  1.0000
  C   C92       1.0  0.5264  0.72887  0.11606  1.0000
  C   C93       1.0  0.30344  0.82905  0.86952  1.0000
  C   C94       1.0  0.010659999999999998  0.7314999999999999  0.67679  1.0000
  C   C95       1.0  0.92469  0.72666  0.68662  1.0000
  C   C96       1.0  0.04656  0.80027  0.65417  1.0000
  C   C97       1.0  0.67684  0.6004  0.36977  1.0000
  C   C98       1.0  0.71168  0.66627  0.41442  1.0000
  C   C99       1.0  0.70555  0.67704  0.5011600000000002  1.0000
  C   C100      1.0  0.75184  0.72504  0.3788400000000001  1.0000
  C   C101      1.0  0.7559  0.71851  0.29745  1.0000
  C   C102      1.0  0.83713  0.83589  0.30346  1.0000
  C   C103      1.0  0.7149399999999999  0.12421  0.66847  1.0000
  C   C104      1.0  0.71964  0.04313000000000002  0.6662200000000003  1.0000
  C   C105      1.0  0.67308  0.04465  0.79784  1.0000
  C   C106      1.0  0.69895  0.003950000000000002  0.73118  1.0000
  C   C107      1.0  0.70566  0.9176399999999998  0.7287800000000001  1.0000
  C   C108      1.0  0.76208  0.12871  0.53999  1.0000
  O   O1        1.0  0.28203  0.29275  0.2891200000000001  1.0000
  O   O2        1.0  0.35676  0.4686699999999999  0.3129  1.0000
  O   O3        1.0  0.32554  0.37911  0.46486  1.0000
  O   O4        1.0  0.21030999999999997  0.3438599999999999  0.11917  1.0000
  O   O5        1.0  0.26923  0.11535999999999998  0.33374  1.0000
  O   O6        1.0  0.22712000000000002  0.46515000000000006  0.2684900000000001  1.0000
  O   O7        1.0  0.46005999999999997  0.32045  0.3608000000000001  1.0000
  O   O8        1.0  0.74643  0.31242  0.46282  1.0000
  O   O9        1.0  0.40747  0.30112  0.84083  1.0000
  O   O10       1.0  0.31796  0.26993  0.11060000000000003  1.0000
  O   O11       1.0  0.26894999999999997  0.25687999999999994  0.4648  1.0000
  O   O12       1.0  0.11731999999999998  0.22238  0.34536  1.0000
  O   O13       1.0  0.45317  0.24626  0.24345000000000003  1.0000
  O   O14       1.0  0.31368  0.11725999999999999  0.21123  1.0000
  O   O15       1.0  0.4431  0.7542  0.30934  1.0000
  O   O16       1.0  0.09997  0.32808999999999994  0.27323  1.0000
  O   O17       1.0  0.17725  0.7458199999999998  0.21445000000000006  1.0000
  O   O18       1.0  0.8171100000000001  0.39032  0.3015700000000001  1.0000
  O   O19       1.0  0.82978  0.13069999999999998  0.36869  1.0000
  O   O20       1.0  0.35296999999999995  0.46578  0.76165  1.0000
  O   O21       1.0  0.35355  0.82806  0.13775  1.0000
  O   O22       1.0  0.73873  0.19911  0.20327  1.0000
  O   O23       1.0  0.15049  0.39057  0.8259400000000002  1.0000
  O   O24       1.0  0.20638000000000004  0.22676999999999997  0.7425600000000002  1.0000
  O   O25       1.0  0.26596  0.8317  0.39131  1.0000
  O   O26       1.0  0.71797  0.7072499999999998  0.71088  1.0000
  O   O27       1.0  0.64324  0.53133  0.6871  1.0000
  O   O28       1.0  0.67446  0.62089  0.53514  1.0000
  O   O29       1.0  0.78969  0.65614  0.88083  1.0000
  O   O30       1.0  0.73077  0.88464  0.66626  1.0000
  O   O31       1.0  0.77288  0.53485  0.73151  1.0000
  O   O32       1.0  0.53994  0.67955  0.6392000000000002  1.0000
  O   O33       1.0  0.25357  0.6875799999999999  0.53718  1.0000
  O   O34       1.0  0.59253  0.69888  0.15918000000000004  1.0000
  O   O35       1.0  0.68204  0.7300700000000001  0.8894000000000002  1.0000
  O   O36       1.0  0.73105  0.74312  0.53521  1.0000
  O   O37       1.0  0.88268  0.77762  0.65464  1.0000
  O   O38       1.0  0.54684  0.75374  0.75655  1.0000
  O   O39       1.0  0.68632  0.88274  0.78877  1.0000
  O   O40       1.0  0.5569  0.2458  0.69066  1.0000
  O   O41       1.0  0.90003  0.67191  0.72678  1.0000
  O   O42       1.0  0.82275  0.25418  0.7855600000000003  1.0000
  O   O43       1.0  0.18289  0.6096799999999998  0.69843  1.0000
  O   O44       1.0  0.17022  0.8693  0.63131  1.0000
  O   O45       1.0  0.64703  0.53422  0.23835  1.0000
  O   O46       1.0  0.64645  0.17194  0.8622600000000002  1.0000
  O   O47       1.0  0.26128  0.8008899999999998  0.79673  1.0000
  O   O48       1.0  0.84951  0.60943  0.17406  1.0000
  O   O49       1.0  0.79362  0.77323  0.25745  1.0000
  O   O50       1.0  0.73404  0.1683  0.6087  1.0000
