data_image0
_chemical_formula_structural       Cd8H96C124S12N8
_chemical_formula_sum              "Cd8 H96 C124 S12 N8"
_cell_length_a       13.46767
_cell_length_b       19.11154
_cell_length_c       19.11158
_cell_angle_alpha    87.60027000000001
_cell_angle_beta     91.0555
_cell_angle_gamma    91.05594999999998

_space_group_name_H-M_alt    "P 1"
_space_group_IT_number       1

loop_
  _space_group_symop_operation_xyz
  'x, y, z'

loop_
  _atom_site_type_symbol
  _atom_site_label
  _atom_site_symmetry_multiplicity
  _atom_site_fract_x
  _atom_site_fract_y
  _atom_site_fract_z
  _atom_site_occupancy
  Cd  Cd1       1.0  0.81342  0.52004  0.35194  1.0000
  Cd  Cd2       1.0  0.13286  0.49384  0.31998  1.0000
  Cd  Cd3       1.0  0.18658  0.6480600000000001  0.47996000000000005  1.0000
  Cd  Cd4       1.0  0.86714  0.68002  0.50617  1.0000
  Cd  Cd5       1.0  0.18658  0.47996000000000005  0.64807  1.0000
  Cd  Cd6       1.0  0.86714  0.50617  0.68002  1.0000
  Cd  Cd7       1.0  0.81342  0.35194  0.52004  1.0000
  Cd  Cd8       1.0  0.13286  0.31999  0.49383999999999995  1.0000
  H   H1        1.0  0.1424  0.56689  0.16649  1.0000
  H   H2        1.0  0.78433  0.42085  0.23432  1.0000
  H   H3        1.0  0.51785  0.58304  0.16845  1.0000
  H   H4        1.0  0.26207  0.5855  0.07259  1.0000
  H   H5        1.0  0.67128  0.45705  0.01747  1.0000
  H   H6        1.0  0.69108  0.40162  0.12517  1.0000
  H   H7        1.0  0.44711  0.4300300000000001  0.18068  1.0000
  H   H8        1.0  0.31995  0.41826  0.27008  1.0000
  H   H9        1.0  0.6238600000000002  0.59842  0.27373  1.0000
  H   H10       1.0  0.57034  0.6926  0.39931  1.0000
  H   H11       1.0  0.53679  0.7887500000000001  0.31108  1.0000
  H   H12       1.0  0.66964  0.83206  0.23053999999999997  1.0000
  H   H13       1.0  0.8368  0.77779  0.23853000000000002  1.0000
  H   H14       1.0  0.8702  0.68139  0.32556  1.0000
  H   H15       1.0  0.011810000000000001  0.4225400000000001  0.21784999999999996  1.0000
  H   H16       1.0  0.97765  0.3855  0.09796  1.0000
  H   H17       1.0  0.8912  0.46574  0.01061  1.0000
  H   H18       1.0  0.83856  0.58269  0.04653  1.0000
  H   H19       1.0  0.87535  0.62114  0.16684  1.0000
  H   H20       1.0  0.8576  0.83351  0.43311  1.0000
  H   H21       1.0  0.21567000000000014  0.76568  0.57915  1.0000
  H   H22       1.0  0.48215000000000013  0.8315500000000001  0.41696  1.0000
  H   H23       1.0  0.73794  0.9274100000000001  0.41451  1.0000
  H   H24       1.0  0.32872  0.9825300000000001  0.54296  1.0000
  H   H25       1.0  0.30892  0.87483  0.59838  1.0000
  H   H26       1.0  0.55289  0.8193199999999999  0.56997  1.0000
  H   H27       1.0  0.6800500000000003  0.72992  0.58174  1.0000
  H   H28       1.0  0.37614  0.72627  0.40158  1.0000
  H   H29       1.0  0.42966  0.60069  0.30741  1.0000
  H   H30       1.0  0.46321  0.68893  0.21125999999999998  1.0000
  H   H31       1.0  0.33037  0.76946  0.16794  1.0000
  H   H32       1.0  0.16321  0.76148  0.22221000000000002  1.0000
  H   H33       1.0  0.12980999999999998  0.67445  0.31861  1.0000
  H   H34       1.0  0.9881900000000002  0.78215  0.57746  1.0000
  H   H35       1.0  0.022350000000000002  0.9020400000000001  0.61451  1.0000
  H   H36       1.0  0.1088  0.9893899999999999  0.53426  1.0000
  H   H37       1.0  0.16144  0.95347  0.41731  1.0000
  H   H38       1.0  0.12464999999999998  0.83316  0.37886  1.0000
  H   H39       1.0  0.8576  0.43311000000000005  0.83351  1.0000
  H   H40       1.0  0.21567000000000006  0.57915  0.76568  1.0000
  H   H41       1.0  0.4821400000000001  0.41695999999999994  0.83155  1.0000
  H   H42       1.0  0.73793  0.41451  0.9274100000000001  1.0000
  H   H43       1.0  0.32872  0.54295  0.98253  1.0000
  H   H44       1.0  0.30892  0.59838  0.87483  1.0000
  H   H45       1.0  0.55289  0.56997  0.81932  1.0000
  H   H46       1.0  0.6800500000000003  0.58174  0.72992  1.0000
  H   H47       1.0  0.37614  0.40158  0.72628  1.0000
  H   H48       1.0  0.42966  0.30741  0.6007  1.0000
  H   H49       1.0  0.46321  0.21126000000000003  0.68893  1.0000
  H   H50       1.0  0.33036  0.16794  0.76946  1.0000
  H   H51       1.0  0.1632  0.22221000000000002  0.76148  1.0000
  H   H52       1.0  0.1298  0.31861000000000006  0.67445  1.0000
  H   H53       1.0  0.9881900000000002  0.57746  0.78215  1.0000
  H   H54       1.0  0.022350000000000002  0.6145100000000001  0.90204  1.0000
  H   H55       1.0  0.1088  0.53426  0.9893899999999999  1.0000
  H   H56       1.0  0.16144  0.41730999999999996  0.95347  1.0000
  H   H57       1.0  0.12465000000000002  0.37886  0.83316  1.0000
  H   H58       1.0  0.14239  0.16649000000000003  0.56689  1.0000
  H   H59       1.0  0.78433  0.23432  0.42085  1.0000
  H   H60       1.0  0.51785  0.16845  0.58304  1.0000
  H   H61       1.0  0.26206  0.07259  0.5855  1.0000
  H   H62       1.0  0.67128  0.01748  0.45704999999999996  1.0000
  H   H63       1.0  0.69108  0.12517  0.40162  1.0000
  H   H64       1.0  0.44711  0.18068  0.43003  1.0000
  H   H65       1.0  0.31995  0.27008  0.41826  1.0000
  H   H66       1.0  0.62385  0.27373  0.59842  1.0000
  H   H67       1.0  0.57034  0.39931  0.6926  1.0000
  H   H68       1.0  0.53679  0.31108  0.78875  1.0000
  H   H69       1.0  0.6696300000000001  0.23053999999999997  0.83206  1.0000
  H   H70       1.0  0.8367900000000001  0.23853  0.77779  1.0000
  H   H71       1.0  0.87019  0.32556  0.68139  1.0000
  H   H72       1.0  0.011800000000000001  0.21784999999999996  0.42255  1.0000
  H   H73       1.0  0.97765  0.09796  0.3855  1.0000
  H   H74       1.0  0.8912  0.010610000000000003  0.46573999999999993  1.0000
  H   H75       1.0  0.83856  0.046529999999999995  0.58269  1.0000
  H   H76       1.0  0.87535  0.16684  0.62114  1.0000
  H   H77       1.0  0.95092  0.34333  0.34333  1.0000
  H   H78       1.0  0.86293  0.26346  0.26346  1.0000
  H   H79       1.0  0.2323  0.27284  0.27284  1.0000
  H   H80       1.0  0.14424  0.19221  0.19221  1.0000
  H   H81       1.0  0.9596200000000001  0.18731  0.18731  1.0000
  H   H82       1.0  0.64154  0.46873  0.46873  1.0000
  H   H83       1.0  0.45691  0.4652  0.46520000000000006  1.0000
  H   H84       1.0  0.3661  0.38609  0.38609  1.0000
  H   H85       1.0  0.4604800000000001  0.30942  0.30942  1.0000
  H   H86       1.0  0.64535  0.31269  0.31269  1.0000
  H   H87       1.0  0.04908  0.65667  0.65667  1.0000
  H   H88       1.0  0.13706  0.73654  0.73654  1.0000
  H   H89       1.0  0.7677  0.72716  0.72716  1.0000
  H   H90       1.0  0.8557600000000002  0.80779  0.80779  1.0000
  H   H91       1.0  0.040380000000000006  0.8126900000000001  0.81269  1.0000
  H   H92       1.0  0.35846  0.53128  0.53128  1.0000
  H   H93       1.0  0.54309  0.5348  0.5348  1.0000
  H   H94       1.0  0.63389  0.61391  0.61391  1.0000
  H   H95       1.0  0.53952  0.69058  0.69058  1.0000
  H   H96       1.0  0.3546500000000001  0.68732  0.68732  1.0000
  C   C1        1.0  0.59547  0.49213  0.13426  1.0000
  C   C2        1.0  0.36877  0.50868  0.11520999999999999  1.0000
  C   C3        1.0  0.21085  0.53749  0.16735  1.0000
  C   C4        1.0  0.72606  0.45659  0.21693999999999997  1.0000
  C   C5        1.0  0.57675  0.54627  0.18102  1.0000
  C   C6        1.0  0.27829  0.54673  0.11435  1.0000
  C   C7        1.0  0.59397  0.4716  0.00942  1.0000
  C   C8        1.0  0.4393800000000001  0.5131  0.05959999999999999  1.0000
  C   C9        1.0  0.67337  0.4463500000000001  0.15572  1.0000
  C   C10       1.0  0.38155  0.46220000000000006  0.17516  1.0000
  C   C11       1.0  0.31028  0.45513  0.22562000000000001  1.0000
  C   C12       1.0  0.54091  0.48717999999999995  0.06883  1.0000
  C   C13       1.0  0.6351100000000001  0.5548  0.24006  1.0000
  C   C14       1.0  0.72191  0.67993  0.36749  1.0000
  C   C15       1.0  0.6282  0.71095  0.36367  1.0000
  C   C16       1.0  0.60993  0.76546  0.31428  1.0000
  C   C17       1.0  0.6843800000000001  0.78968  0.26888  1.0000
  C   C18       1.0  0.7779800000000002  0.7592  0.27328  1.0000
  C   C19       1.0  0.79702  0.70466  0.32233  1.0000
  C   C20       1.0  0.94763  0.52508  0.20028  1.0000
  C   C21       1.0  0.97511  0.45841  0.18041  1.0000
  C   C22       1.0  0.95515  0.43728000000000006  0.11239  1.0000
  C   C23       1.0  0.9065500000000002  0.48194000000000004  0.06373  1.0000
  C   C24       1.0  0.87768  0.54798  0.08378  1.0000
  C   C25       1.0  0.89838  0.56985  0.15145  1.0000
  C   C26       1.0  0.40453  0.86574  0.50787  1.0000
  C   C27       1.0  0.63123  0.88479  0.49133  1.0000
  C   C28       1.0  0.78915  0.83266  0.46251  1.0000
  C   C29       1.0  0.27394  0.78307  0.54342  1.0000
  C   C30       1.0  0.42325  0.8189800000000003  0.45373  1.0000
  C   C31       1.0  0.72171  0.88566  0.45327000000000006  1.0000
  C   C32       1.0  0.4060400000000001  0.99058  0.52841  1.0000
  C   C33       1.0  0.56062  0.94041  0.48691000000000006  1.0000
  C   C34       1.0  0.32663  0.8442799999999999  0.55366  1.0000
  C   C35       1.0  0.61845  0.82484  0.53781  1.0000
  C   C36       1.0  0.68972  0.77438  0.54487  1.0000
  C   C37       1.0  0.45910000000000006  0.93117  0.51282  1.0000
  C   C38       1.0  0.36489  0.7599400000000001  0.4452  1.0000
  C   C39       1.0  0.27809  0.6325100000000001  0.32007  1.0000
  C   C40       1.0  0.3718  0.63633  0.28905  1.0000
  C   C41       1.0  0.39007  0.68573  0.23454  1.0000
  C   C42       1.0  0.31563  0.73112  0.21032000000000003  1.0000
  C   C43       1.0  0.22202  0.72672  0.2408  1.0000
  C   C44       1.0  0.20298  0.67768  0.29535  1.0000
  C   C45       1.0  0.05237  0.79972  0.47492000000000006  1.0000
  C   C46       1.0  0.024890000000000002  0.8196  0.54159  1.0000
  C   C47       1.0  0.04485  0.88762  0.56272  1.0000
  C   C48       1.0  0.09346000000000003  0.93628  0.51806  1.0000
  C   C49       1.0  0.12232  0.9162300000000001  0.45202  1.0000
  C   C50       1.0  0.10162  0.84855  0.4301499999999999  1.0000
  C   C51       1.0  0.40453  0.50787  0.8657400000000001  1.0000
  C   C52       1.0  0.63123  0.49133  0.88479  1.0000
  C   C53       1.0  0.78915  0.46251  0.83266  1.0000
  C   C54       1.0  0.27394  0.54342  0.78307  1.0000
  C   C55       1.0  0.42325  0.45373  0.81898  1.0000
  C   C56       1.0  0.72171  0.45327  0.88566  1.0000
  C   C57       1.0  0.4060300000000001  0.52841  0.9905799999999999  1.0000
  C   C58       1.0  0.56062  0.48690999999999995  0.9404100000000001  1.0000
  C   C59       1.0  0.32663  0.55366  0.84429  1.0000
  C   C60       1.0  0.61845  0.53781  0.82485  1.0000
  C   C61       1.0  0.68972  0.5448700000000001  0.77438  1.0000
  C   C62       1.0  0.45909000000000005  0.51282  0.93118  1.0000
  C   C63       1.0  0.36488  0.4452  0.75995  1.0000
  C   C64       1.0  0.27808  0.3200700000000001  0.63251  1.0000
  C   C65       1.0  0.3718  0.28905  0.63633  1.0000
  C   C66       1.0  0.39007  0.23454000000000003  0.68573  1.0000
  C   C67       1.0  0.31562  0.21032  0.73112  1.0000
  C   C68       1.0  0.22202  0.2408  0.72672  1.0000
  C   C69       1.0  0.20298  0.29535  0.67768  1.0000
  C   C70       1.0  0.05237  0.47492  0.79972  1.0000
  C   C71       1.0  0.024889999999999995  0.54159  0.8196  1.0000
  C   C72       1.0  0.04485  0.5627200000000002  0.88762  1.0000
  C   C73       1.0  0.09345  0.51806  0.93628  1.0000
  C   C74       1.0  0.12232  0.45202000000000003  0.91623  1.0000
  C   C75       1.0  0.10162  0.43015  0.8485500000000001  1.0000
  C   C76       1.0  0.59547  0.13426  0.49213  1.0000
  C   C77       1.0  0.36876  0.11521000000000002  0.50868  1.0000
  C   C78       1.0  0.21085  0.16735  0.53749  1.0000
  C   C79       1.0  0.72606  0.21694  0.45659  1.0000
  C   C80       1.0  0.57675  0.18102  0.54627  1.0000
  C   C81       1.0  0.27829  0.11435  0.54673  1.0000
  C   C82       1.0  0.59396  0.009420000000000001  0.4716  1.0000
  C   C83       1.0  0.4393800000000001  0.05959999999999999  0.5131  1.0000
  C   C84       1.0  0.67337  0.15572  0.44635  1.0000
  C   C85       1.0  0.38155  0.17516  0.4622  1.0000
  C   C86       1.0  0.31028  0.22562  0.45513  1.0000
  C   C87       1.0  0.5409  0.06883  0.48718  1.0000
  C   C88       1.0  0.6351100000000001  0.24006000000000002  0.5548  1.0000
  C   C89       1.0  0.72191  0.36749000000000004  0.67993  1.0000
  C   C90       1.0  0.6282  0.36367  0.71096  1.0000
  C   C91       1.0  0.60992  0.31428  0.76546  1.0000
  C   C92       1.0  0.68437  0.26888  0.78969  1.0000
  C   C93       1.0  0.7779800000000002  0.27328  0.7592  1.0000
  C   C94       1.0  0.79702  0.32232  0.70466  1.0000
  C   C95       1.0  0.94763  0.20028  0.52508  1.0000
  C   C96       1.0  0.9751100000000001  0.18041  0.45841  1.0000
  C   C97       1.0  0.95515  0.11239  0.43728  1.0000
  C   C98       1.0  0.90654  0.06373  0.48194  1.0000
  C   C99       1.0  0.87768  0.08378  0.54798  1.0000
  C   C100      1.0  0.89838  0.15145  0.56985  1.0000
  C   C101      1.0  0.09723  0.31302  0.31302  1.0000
  C   C102      1.0  0.9931300000000001  0.31025  0.31025  1.0000
  C   C103      1.0  0.94379  0.2651  0.2651  1.0000
  C   C104      1.0  0.15159  0.27028  0.27028  1.0000
  C   C105      1.0  0.10178  0.22523  0.22523  1.0000
  C   C106      1.0  0.99791  0.2225  0.22250000000000003  1.0000
  C   C107      1.0  0.65516  0.39078000000000007  0.39078  1.0000
  C   C108      1.0  0.60193  0.43385000000000007  0.43385  1.0000
  C   C109      1.0  0.49825000000000014  0.43189  0.43189  1.0000
  C   C110      1.0  0.44697  0.38723  0.38723  1.0000
  C   C111      1.0  0.49989  0.34436  0.34436  1.0000
  C   C112      1.0  0.6037700000000003  0.34593000000000007  0.34593  1.0000
  C   C113      1.0  0.90277  0.68698  0.68698  1.0000
  C   C114      1.0  0.006870000000000001  0.68976  0.68976  1.0000
  C   C115      1.0  0.05621  0.7349  0.7349  1.0000
  C   C116      1.0  0.84841  0.72972  0.72972  1.0000
  C   C117      1.0  0.89822  0.77477  0.77477  1.0000
  C   C118      1.0  0.00209  0.7775  0.77751  1.0000
  C   C119      1.0  0.34484  0.60922  0.60923  1.0000
  C   C120      1.0  0.39807  0.56616  0.56616  1.0000
  C   C121      1.0  0.50175  0.56811  0.56811  1.0000
  C   C122      1.0  0.55303  0.61277  0.61277  1.0000
  C   C123      1.0  0.50011  0.65565  0.65565  1.0000
  C   C124      1.0  0.39623  0.65408  0.65408  1.0000
  S   S1        1.0  0.74245  0.60951  0.43104000000000003  1.0000
  S   S2        1.0  0.97398  0.55619  0.28606  1.0000
  S   S3        1.0  0.25755  0.56896  0.39049  1.0000
  S   S4        1.0  0.02602  0.71394  0.44381  1.0000
  S   S5        1.0  0.25755  0.39049  0.56896  1.0000
  S   S6        1.0  0.026010000000000002  0.44381  0.71394  1.0000
  S   S7        1.0  0.74244  0.43104  0.60952  1.0000
  S   S8        1.0  0.97398  0.28606  0.55619  1.0000
  S   S9        1.0  0.16382000000000005  0.36972  0.36973  1.0000
  S   S10       1.0  0.78842  0.39107  0.39107  1.0000
  S   S11       1.0  0.8361800000000001  0.63028  0.63028  1.0000
  S   S12       1.0  0.21157  0.60893  0.60893  1.0000
  N   N1        1.0  0.71013  0.51076  0.25921  1.0000
  N   N2        1.0  0.22428000000000003  0.49187999999999993  0.2235  1.0000
  N   N3        1.0  0.28987  0.7407899999999998  0.4892500000000001  1.0000
  N   N4        1.0  0.77573  0.7765  0.50812  1.0000
  N   N5        1.0  0.28987  0.48925  0.74079  1.0000
  N   N6        1.0  0.77572  0.5081200000000001  0.7765  1.0000
  N   N7        1.0  0.71013  0.25922  0.51076  1.0000
  N   N8        1.0  0.22427  0.2235  0.49187999999999993  1.0000
