data_image0
_chemical_formula_structural       Ag8H128C160N32
_chemical_formula_sum              "Ag8 H128 C160 N32"
_cell_length_a       14.57514
_cell_length_b       13.65854
_cell_length_c       20.9187
_cell_angle_alpha    89.96713
_cell_angle_beta     90.00090999999999
_cell_angle_gamma    90.0014

_space_group_name_H-M_alt    "P 1"
_space_group_IT_number       1

loop_
  _space_group_symop_operation_xyz
  'x, y, z'

loop_
  _atom_site_type_symbol
  _atom_site_label
  _atom_site_symmetry_multiplicity
  _atom_site_fract_x
  _atom_site_fract_y
  _atom_site_fract_z
  _atom_site_occupancy
  Ag  Ag1       1.0  0.57336  0.49290999999999996  0.23656  1.0000
  Ag  Ag2       1.0  0.9266700000000001  0.50656  0.73707  1.0000
  Ag  Ag3       1.0  0.9266300000000002  0.99276  0.23666  1.0000
  Ag  Ag4       1.0  0.5733  0.00669  0.73696  1.0000
  Ag  Ag5       1.0  0.0731  0.0071  0.76317  1.0000
  Ag  Ag6       1.0  0.4267  0.99216  0.26343  1.0000
  Ag  Ag7       1.0  0.4269  0.5071  0.76309  1.0000
  Ag  Ag8       1.0  0.07323  0.4921599999999999  0.26353  1.0000
  H   H1        1.0  0.40276  0.45397  0.33782  1.0000
  H   H2        1.0  0.44975  0.34797  0.15533  1.0000
  H   H3        1.0  0.25338  0.37023  0.34452  1.0000
  H   H4        1.0  0.30267  0.2594  0.15379  1.0000
  H   H5        1.0  0.15692000000000006  0.25094  0.14721  1.0000
  H   H6        1.0  0.16219  0.24513999999999994  0.35386  1.0000
  H   H7        1.0  0.00952  0.15982  0.15256  1.0000
  H   H8        1.0  0.0164  0.15054  0.34983  1.0000
  H   H9        1.0  0.7295500000000003  0.60139  0.1657  1.0000
  H   H10       1.0  0.51871  0.43336  0.08922  1.0000
  H   H11       1.0  0.80787  0.6117999999999999  0.06282  1.0000
  H   H12       1.0  0.5869100000000003  0.4360799999999999  0.9830100000000002  1.0000
  H   H13       1.0  0.87914  0.5962799999999999  0.97967  1.0000
  H   H14       1.0  0.6436100000000002  0.45067  0.8944600000000001  1.0000
  H   H15       1.0  0.9524400000000002  0.58928  0.87464  1.0000
  H   H16       1.0  0.72744  0.44968  0.79386  1.0000
  H   H17       1.0  0.0969  0.54567  0.83747  1.0000
  H   H18       1.0  0.05066  0.65224  0.65495  1.0000
  H   H19       1.0  0.2461  0.6297599999999999  0.84466  1.0000
  H   H20       1.0  0.19778  0.74079  0.65375  1.0000
  H   H21       1.0  0.3433800000000001  0.74903  0.64738  1.0000
  H   H22       1.0  0.33749  0.7549  0.8540200000000001  1.0000
  H   H23       1.0  0.49071000000000004  0.84017  0.65283  1.0000
  H   H24       1.0  0.4832100000000001  0.84947  0.85014  1.0000
  H   H25       1.0  0.7702200000000002  0.39844999999999997  0.66583  1.0000
  H   H26       1.0  0.9811600000000003  0.56644  0.58942  1.0000
  H   H27       1.0  0.6920800000000003  0.3880599999999999  0.56286  1.0000
  H   H28       1.0  0.91314  0.5638  0.48315  1.0000
  H   H29       1.0  0.6209100000000002  0.40351999999999993  0.47971  1.0000
  H   H30       1.0  0.85616  0.54987  0.39467  1.0000
  H   H31       1.0  0.54764  0.4106799999999999  0.37463  1.0000
  H   H32       1.0  0.7725100000000003  0.55066  0.29396  1.0000
  H   H33       1.0  0.09723000000000002  0.9538799999999998  0.33785  1.0000
  H   H34       1.0  0.05027  0.8479499999999998  0.15532  1.0000
  H   H35       1.0  0.24663000000000004  0.87021  0.34454  1.0000
  H   H36       1.0  0.19733000000000006  0.75942  0.15377  1.0000
  H   H37       1.0  0.34312  0.7509399999999999  0.1472  1.0000
  H   H38       1.0  0.3378100000000001  0.7451699999999998  0.35388  1.0000
  H   H39       1.0  0.4905200000000001  0.65989  0.15256  1.0000
  H   H40       1.0  0.4835700000000001  0.65057  0.34985  1.0000
  H   H41       1.0  0.7704800000000002  0.1014  0.16571  1.0000
  H   H42       1.0  0.98127  0.93333  0.08922  1.0000
  H   H43       1.0  0.69217  0.11186  0.06278  1.0000
  H   H44       1.0  0.9131  0.93612  0.98299  1.0000
  H   H45       1.0  0.62092  0.0963  0.97969  1.0000
  H   H46       1.0  0.8563600000000002  0.9505699999999999  0.89451  1.0000
  H   H47       1.0  0.54758  0.08932999999999998  0.87466  1.0000
  H   H48       1.0  0.7725400000000002  0.9496  0.7938800000000001  1.0000
  H   H49       1.0  0.40309  0.045749999999999985  0.8375  1.0000
  H   H50       1.0  0.44932  0.15222  0.65494  1.0000
  H   H51       1.0  0.25391  0.12981  0.8446800000000001  1.0000
  H   H52       1.0  0.3021900000000001  0.24076999999999998  0.65374  1.0000
  H   H53       1.0  0.15662  0.24901  0.64737  1.0000
  H   H54       1.0  0.16247000000000006  0.25492  0.8540099999999999  1.0000
  H   H55       1.0  0.00929  0.34011  0.65281  1.0000
  H   H56       1.0  0.01677  0.34949  0.8501200000000001  1.0000
  H   H57       1.0  0.7298  0.8985099999999998  0.66583  1.0000
  H   H58       1.0  0.51886  0.0665  0.58942  1.0000
  H   H59       1.0  0.8079200000000002  0.88812  0.56289  1.0000
  H   H60       1.0  0.5868500000000002  0.06387  0.48317  1.0000
  H   H61       1.0  0.87908  0.90346  0.47967  1.0000
  H   H62       1.0  0.6438000000000001  0.049839999999999995  0.39463  1.0000
  H   H63       1.0  0.9522900000000001  0.91062  0.37459  1.0000
  H   H64       1.0  0.7274600000000001  0.05056999999999998  0.29394  1.0000
  H   H65       1.0  0.9026200000000001  0.046239999999999996  0.66243  1.0000
  H   H66       1.0  0.94929  0.15294999999999997  0.8448000000000001  1.0000
  H   H67       1.0  0.75312  0.12978  0.65554  1.0000
  H   H68       1.0  0.8018900000000002  0.24098999999999995  0.8462500000000001  1.0000
  H   H69       1.0  0.65594  0.24834999999999996  0.85284  1.0000
  H   H70       1.0  0.66193  0.25506  0.64623  1.0000
  H   H71       1.0  0.50861  0.33955  0.84741  1.0000
  H   H72       1.0  0.51626  0.34976  0.65012  1.0000
  H   H73       1.0  0.22971  0.8988999999999998  0.83395  1.0000
  H   H74       1.0  0.01906  0.06676  0.9109000000000002  1.0000
  H   H75       1.0  0.3082400000000001  0.88811  0.93675  1.0000
  H   H76       1.0  0.08740000000000003  0.06351  0.01706  1.0000
  H   H77       1.0  0.37924  0.9020599999999998  0.02017  1.0000
  H   H78       1.0  0.14484000000000005  0.04998  0.10524  1.0000
  H   H79       1.0  0.45284000000000013  0.90921  0.12515  1.0000
  H   H80       1.0  0.22883000000000003  0.05073  0.20580000000000004  1.0000
  H   H81       1.0  0.59707  0.9537899999999998  0.16273  1.0000
  H   H82       1.0  0.5510400000000002  0.8471299999999999  0.34533  1.0000
  H   H83       1.0  0.7466500000000001  0.87049  0.15574  1.0000
  H   H84       1.0  0.69835  0.75895  0.34653  1.0000
  H   H85       1.0  0.84444  0.7516699999999997  0.3528  1.0000
  H   H86       1.0  0.8376  0.74519  0.14618  1.0000
  H   H87       1.0  0.9917900000000002  0.66045  0.34713  1.0000
  H   H88       1.0  0.98334  0.65037  0.14986  1.0000
  H   H89       1.0  0.2698  0.1011  0.3339  1.0000
  H   H90       1.0  0.48073  0.93342  0.41069  1.0000
  H   H91       1.0  0.19164000000000006  0.112  0.43682  1.0000
  H   H92       1.0  0.4127  0.9366  0.51694  1.0000
  H   H93       1.0  0.12074000000000003  0.09770999999999999  0.52032  1.0000
  H   H94       1.0  0.35526000000000013  0.94977  0.60527  1.0000
  H   H95       1.0  0.04749  0.09093999999999997  0.62539  1.0000
  H   H96       1.0  0.27158  0.94917  0.70591  1.0000
  H   H97       1.0  0.59735  0.54624  0.66243  1.0000
  H   H98       1.0  0.55071  0.653  0.8448100000000001  1.0000
  H   H99       1.0  0.74688  0.62978  0.65553  1.0000
  H   H100      1.0  0.69812  0.74104  0.8462400000000001  1.0000
  H   H101      1.0  0.8441000000000002  0.74834  0.85285  1.0000
  H   H102      1.0  0.8380500000000002  0.75505  0.64623  1.0000
  H   H103      1.0  0.99146  0.8395199999999999  0.8474  1.0000
  H   H104      1.0  0.98375  0.84973  0.6501  1.0000
  H   H105      1.0  0.27038  0.3987999999999999  0.8339800000000002  1.0000
  H   H106      1.0  0.48093  0.56676  0.9109100000000001  1.0000
  H   H107      1.0  0.19181000000000006  0.38802999999999993  0.9367900000000001  1.0000
  H   H108      1.0  0.41256  0.56348  0.01708  1.0000
  H   H109      1.0  0.12078000000000003  0.40207  0.02016  1.0000
  H   H110      1.0  0.35511  0.55004  0.1052  1.0000
  H   H111      1.0  0.04714000000000001  0.4092199999999999  0.12513  1.0000
  H   H112      1.0  0.27114  0.55083  0.20578000000000002  1.0000
  H   H113      1.0  0.90292  0.45386  0.16277  1.0000
  H   H114      1.0  0.94898  0.34712  0.34531  1.0000
  H   H115      1.0  0.75337  0.3705  0.15578  1.0000
  H   H116      1.0  0.80166  0.2589  0.34651  1.0000
  H   H117      1.0  0.6555800000000003  0.25167  0.35279  1.0000
  H   H118      1.0  0.66241  0.24512  0.14621  1.0000
  H   H119      1.0  0.50821  0.16042  0.34714  1.0000
  H   H120      1.0  0.51663  0.15034  0.1499  1.0000
  H   H121      1.0  0.23024000000000006  0.60113  0.33391  1.0000
  H   H122      1.0  0.01924  0.43344  0.41069  1.0000
  H   H123      1.0  0.3084000000000001  0.6119599999999997  0.43681  1.0000
  H   H124      1.0  0.08728  0.43655999999999995  0.51693  1.0000
  H   H125      1.0  0.37929  0.59775  0.52033  1.0000
  H   H126      1.0  0.14475  0.4497499999999999  0.60531  1.0000
  H   H127      1.0  0.45254  0.5909599999999998  0.6254  1.0000
  H   H128      1.0  0.22847  0.44916  0.70594  1.0000
  C   C1        1.0  0.37907  0.40893  0.29817  1.0000
  C   C2        1.0  0.40423  0.35154  0.19641  1.0000
  C   C3        1.0  0.29515000000000013  0.36139  0.30189  1.0000
  C   C4        1.0  0.3212  0.30201  0.19572000000000003  1.0000
  C   C5        1.0  0.26321  0.30577999999999994  0.24946000000000002  1.0000
  C   C6        1.0  0.17473000000000005  0.25527  0.25039  1.0000
  C   C7        1.0  0.12905  0.22961  0.19334  1.0000
  C   C8        1.0  0.1312  0.22749999999999995  0.30795  1.0000
  C   C9        1.0  0.04652000000000001  0.17931  0.19603  1.0000
  C   C10       1.0  0.04973000000000002  0.1747  0.30587  1.0000
  C   C11       1.0  0.70056  0.56492  0.12410000000000002  1.0000
  C   C12       1.0  0.58336  0.4716199999999999  0.08177  1.0000
  C   C13       1.0  0.74438  0.57024  0.06574  1.0000
  C   C14       1.0  0.62237  0.47374999999999995  0.02152  1.0000
  C   C15       1.0  0.7073900000000002  0.5225  0.01086  1.0000
  C   C16       1.0  0.7528600000000001  0.52229  0.9495700000000001  1.0000
  C   C17       1.0  0.84189  0.56286  0.94032  1.0000
  C   C18       1.0  0.71238  0.4814999999999999  0.8936800000000001  1.0000
  C   C19       1.0  0.8840800000000002  0.55871  0.88127  1.0000
  C   C20       1.0  0.75937  0.48072999999999994  0.83627  1.0000
  C   C21       1.0  0.12077  0.59092  0.79793  1.0000
  C   C22       1.0  0.09602000000000002  0.64849  0.69613  1.0000
  C   C23       1.0  0.20458000000000007  0.63861  0.80191  1.0000
  C   C24       1.0  0.17897  0.6982  0.6957  1.0000
  C   C25       1.0  0.23674  0.6942799999999998  0.74952  1.0000
  C   C26       1.0  0.32521  0.7448099999999998  0.75055  1.0000
  C   C27       1.0  0.37108000000000013  0.77037  0.69355  1.0000
  C   C28       1.0  0.3685700000000001  0.7725099999999998  0.80815  1.0000
  C   C29       1.0  0.45362  0.8206999999999998  0.6963  1.0000
  C   C30       1.0  0.45011  0.82517  0.80615  1.0000
  C   C31       1.0  0.79934  0.43488999999999994  0.62424  1.0000
  C   C32       1.0  0.9165100000000002  0.52822  0.58195  1.0000
  C   C33       1.0  0.75553  0.4297199999999999  0.56588  1.0000
  C   C34       1.0  0.87751  0.52628  0.5217  1.0000
  C   C35       1.0  0.79248  0.47756999999999994  0.511  1.0000
  C   C36       1.0  0.74713  0.47764  0.44964  1.0000
  C   C37       1.0  0.65817  0.43694  0.44032  1.0000
  C   C38       1.0  0.7875300000000002  0.51867  0.39376  1.0000
  C   C39       1.0  0.6159  0.44146  0.3813  1.0000
  C   C40       1.0  0.7404700000000002  0.51969  0.33637  1.0000
  C   C41       1.0  0.12093  0.90887  0.29817  1.0000
  C   C42       1.0  0.09577  0.85151  0.19642  1.0000
  C   C43       1.0  0.20484000000000005  0.86134  0.30189  1.0000
  C   C44       1.0  0.17883000000000004  0.8020199999999997  0.19572000000000003  1.0000
  C   C45       1.0  0.23679  0.8058099999999998  0.24945000000000003  1.0000
  C   C46       1.0  0.32528  0.7552199999999998  0.25039  1.0000
  C   C47       1.0  0.37097000000000013  0.7296199999999998  0.19335  1.0000
  C   C48       1.0  0.3687900000000001  0.7275099999999999  0.30794  1.0000
  C   C49       1.0  0.45349  0.6792699999999998  0.19605000000000003  1.0000
  C   C50       1.0  0.4502900000000001  0.67473  0.30587  1.0000
  C   C51       1.0  0.7995  0.06504  0.12408  1.0000
  C   C52       1.0  0.91665  0.97164  0.08175  1.0000
  C   C53       1.0  0.75563  0.07025  0.06574  1.0000
  C   C54       1.0  0.8775900000000002  0.97369  0.02153  1.0000
  C   C55       1.0  0.7925500000000002  0.02239  0.01089  1.0000
  C   C56       1.0  0.7471800000000002  0.02238  0.94955  1.0000
  C   C57       1.0  0.6581600000000002  0.06294  0.94032  1.0000
  C   C58       1.0  0.78762  0.9814899999999999  0.8936800000000001  1.0000
  C   C59       1.0  0.61591  0.05868  0.88129  1.0000
  C   C60       1.0  0.7405700000000001  0.9806499999999998  0.83629  1.0000
  C   C61       1.0  0.37923  0.09096  0.79795  1.0000
  C   C62       1.0  0.40398  0.14848  0.69614  1.0000
  C   C63       1.0  0.29543  0.13868  0.8019199999999999  1.0000
  C   C64       1.0  0.32102000000000014  0.19817999999999997  0.69569  1.0000
  C   C65       1.0  0.26328  0.19432  0.74953  1.0000
  C   C66       1.0  0.17477000000000006  0.2448  0.75054  1.0000
  C   C67       1.0  0.12892  0.27037  0.69354  1.0000
  C   C68       1.0  0.13142  0.27254  0.80813  1.0000
  C   C69       1.0  0.04639  0.32069999999999993  0.69629  1.0000
  C   C70       1.0  0.049860000000000015  0.32517999999999997  0.80613  1.0000
  C   C71       1.0  0.70063  0.9349299999999998  0.62425  1.0000
  C   C72       1.0  0.58348  0.028209999999999992  0.58198  1.0000
  C   C73       1.0  0.7444500000000002  0.92975  0.56587  1.0000
  C   C74       1.0  0.62245  0.026239999999999992  0.5217  1.0000
  C   C75       1.0  0.7074800000000002  0.9776  0.51101  1.0000
  C   C76       1.0  0.75284  0.97762  0.4496200000000001  1.0000
  C   C77       1.0  0.84179  0.93696  0.44032  1.0000
  C   C78       1.0  0.7124700000000002  0.0187  0.39376  1.0000
  C   C79       1.0  0.88406  0.94148  0.38128  1.0000
  C   C80       1.0  0.7595400000000001  0.01969  0.33636  1.0000
  C   C81       1.0  0.8788400000000002  0.09138999999999999  0.70201  1.0000
  C   C82       1.0  0.9037800000000001  0.14905  0.80373  1.0000
  C   C83       1.0  0.79483  0.13876  0.69819  1.0000
  C   C84       1.0  0.82067  0.19844  0.80431  1.0000
  C   C85       1.0  0.76274  0.19432999999999997  0.7506  1.0000
  C   C86       1.0  0.67419  0.24471999999999994  0.74967  1.0000
  C   C87       1.0  0.62829  0.26993  0.80669  1.0000
  C   C88       1.0  0.63083  0.2726  0.6921  1.0000
  C   C89       1.0  0.54579  0.32032  0.80397  1.0000
  C   C90       1.0  0.54927  0.32525  0.69412  1.0000
  C   C91       1.0  0.20072  0.9351699999999998  0.87564  1.0000
  C   C92       1.0  0.08371  0.0284  0.91821  1.0000
  C   C93       1.0  0.24477  0.92978  0.93393  1.0000
  C   C94       1.0  0.12290000000000002  0.026159999999999992  0.97841  1.0000
  C   C95       1.0  0.20798  0.9774299999999999  0.98889  1.0000
  C   C96       1.0  0.25344  0.9770399999999998  0.050249999999999996  1.0000
  C   C97       1.0  0.3422500000000001  0.93593  0.0595  1.0000
  C   C98       1.0  0.21337000000000006  0.01848  0.10609  1.0000
  C   C99       1.0  0.38473  0.94042  0.11847  1.0000
  C   C100      1.0  0.26063  0.01947  0.16339  1.0000
  C   C101      1.0  0.6210000000000002  0.9087  0.20233000000000004  1.0000
  C   C102      1.0  0.59633  0.85096  0.30411  1.0000
  C   C103      1.0  0.7050000000000002  0.86138  0.19843  1.0000
  C   C104      1.0  0.67949  0.80162  0.30462  1.0000
  C   C105      1.0  0.73719  0.8057199999999998  0.25078  1.0000
  C   C106      1.0  0.8258  0.75535  0.24966  1.0000
  C   C107      1.0  0.8719100000000002  0.7300399999999998  0.30661  1.0000
  C   C108      1.0  0.8688700000000003  0.72749  0.19201  1.0000
  C   C109      1.0  0.9543900000000001  0.6795699999999998  0.30371  1.0000
  C   C110      1.0  0.9503400000000002  0.67463  0.19391  1.0000
  C   C111      1.0  0.29894  0.06495  0.3756  1.0000
  C   C112      1.0  0.4161  0.97173  0.4181000000000001  1.0000
  C   C113      1.0  0.25507  0.0703  0.43395000000000006  1.0000
  C   C114      1.0  0.37705  0.9739399999999999  0.47833  1.0000
  C   C115      1.0  0.2919200000000001  0.02252  0.48891000000000007  1.0000
  C   C116      1.0  0.24664000000000005  0.022809999999999993  0.55031  1.0000
  C   C117      1.0  0.15784  0.0639  0.55963  1.0000
  C   C118      1.0  0.2867800000000001  0.98133  0.60614  1.0000
  C   C119      1.0  0.11559000000000003  0.05973999999999999  0.61869  1.0000
  C   C120      1.0  0.23975000000000002  0.9805899999999999  0.66355  1.0000
  C   C121      1.0  0.62118  0.59137  0.70202  1.0000
  C   C122      1.0  0.59622  0.64905  0.80374  1.0000
  C   C123      1.0  0.7051900000000002  0.63874  0.6982  1.0000
  C   C124      1.0  0.67934  0.69847  0.80431  1.0000
  C   C125      1.0  0.7372700000000002  0.69433  0.7506  1.0000
  C   C126      1.0  0.8258200000000002  0.74471  0.74968  1.0000
  C   C127      1.0  0.87175  0.76993  0.8067  1.0000
  C   C128      1.0  0.86917  0.77258  0.69209  1.0000
  C   C129      1.0  0.9542600000000002  0.82032  0.80395  1.0000
  C   C130      1.0  0.9507  0.8252699999999997  0.6941  1.0000
  C   C131      1.0  0.29931  0.43508999999999987  0.87566  1.0000
  C   C132      1.0  0.41630000000000006  0.52843  0.91824  1.0000
  C   C133      1.0  0.25523  0.42973  0.93393  1.0000
  C   C134      1.0  0.37706  0.52622  0.97842  1.0000
  C   C135      1.0  0.29199  0.47741999999999996  0.98891  1.0000
  C   C136      1.0  0.24656000000000006  0.47702  0.05024  1.0000
  C   C137      1.0  0.15775000000000006  0.43586999999999987  0.05950999999999999  1.0000
  C   C138      1.0  0.2866200000000001  0.51849  0.10608  1.0000
  C   C139      1.0  0.11524  0.44042  0.11847  1.0000
  C   C140      1.0  0.23936  0.5195  0.16339  1.0000
  C   C141      1.0  0.8790000000000002  0.4087099999999999  0.20233000000000004  1.0000
  C   C142      1.0  0.90366  0.35094  0.30411  1.0000
  C   C143      1.0  0.7950000000000003  0.36142  0.19845000000000002  1.0000
  C   C144      1.0  0.82054  0.30158  0.30462  1.0000
  C   C145      1.0  0.7627900000000002  0.30568  0.25077  1.0000
  C   C146      1.0  0.67423  0.25535  0.24966  1.0000
  C   C147      1.0  0.6280900000000001  0.23003  0.30662  1.0000
  C   C148      1.0  0.63111  0.22745  0.19201  1.0000
  C   C149      1.0  0.5456000000000001  0.17965  0.30374  1.0000
  C   C150      1.0  0.54965  0.17462999999999995  0.19391  1.0000
  C   C151      1.0  0.20111000000000004  0.56489  0.3756  1.0000
  C   C152      1.0  0.08390000000000003  0.47173  0.4181000000000001  1.0000
  C   C153      1.0  0.24493000000000006  0.57031  0.43395000000000006  1.0000
  C   C154      1.0  0.12290000000000002  0.474  0.47835000000000005  1.0000
  C   C155      1.0  0.20804000000000003  0.52261  0.48894  1.0000
  C   C156      1.0  0.25339000000000006  0.52275  0.5503  1.0000
  C   C157      1.0  0.3422000000000001  0.56388  0.55963  1.0000
  C   C158      1.0  0.21325  0.48129999999999995  0.60616  1.0000
  C   C159      1.0  0.38442  0.55978  0.61869  1.0000
  C   C160      1.0  0.26024  0.48063  0.66357  1.0000
  N   N1        1.0  0.43499  0.40461999999999987  0.24648999999999996  1.0000
  N   N2        1.0  0.00663  0.14991999999999997  0.25108  1.0000
  N   N3        1.0  0.6208  0.51489  0.13428  1.0000
  N   N4        1.0  0.84518  0.51786  0.82844  1.0000
  N   N5        1.0  0.06509000000000001  0.59522  0.74612  1.0000
  N   N6        1.0  0.4933900000000001  0.84995  0.7514  1.0000
  N   N7        1.0  0.8791200000000002  0.4848199999999999  0.63448  1.0000
  N   N8        1.0  0.6546500000000002  0.48266999999999993  0.32849  1.0000
  N   N9        1.0  0.06497  0.90454  0.24651000000000003  1.0000
  N   N10       1.0  0.4934000000000001  0.6499  0.25109  1.0000
  N   N11       1.0  0.87924  0.01497  0.13425  1.0000
  N   N12       1.0  0.65478  0.017789999999999997  0.8284500000000001  1.0000
  N   N13       1.0  0.4348900000000001  0.09522  0.74613  1.0000
  N   N14       1.0  0.00664  0.35  0.75137  1.0000
  N   N15       1.0  0.62095  0.985  0.63452  1.0000
  N   N16       1.0  0.8452700000000001  0.9824799999999999  0.32844  1.0000
  N   N17       1.0  0.9346600000000003  0.09582  0.75375  1.0000
  N   N18       1.0  0.50613  0.35002  0.74891  1.0000
  N   N19       1.0  0.12107000000000002  0.98541  0.8655700000000001  1.0000
  N   N20       1.0  0.34622  0.9817899999999999  0.17127  1.0000
  N   N21       1.0  0.56521  0.90402  0.25408  1.0000
  N   N22       1.0  0.9938000000000002  0.6499  0.24859000000000003  1.0000
  N   N23       1.0  0.37858  0.01471  0.36547  1.0000
  N   N24       1.0  0.15429  0.01852  0.67151  1.0000
  N   N25       1.0  0.56532  0.59588  0.75374  1.0000
  N   N26       1.0  0.99394  0.84994  0.74888  1.0000
  N   N27       1.0  0.37902  0.48526  0.86563  1.0000
  N   N28       1.0  0.15372  0.48192999999999997  0.17124  1.0000
  N   N29       1.0  0.93474  0.4041  0.25411  1.0000
  N   N30       1.0  0.50622  0.14991  0.24862000000000004  1.0000
  N   N31       1.0  0.12148000000000003  0.51461  0.36545  1.0000
  N   N32       1.0  0.34569  0.51861  0.67153  1.0000
