data_image0
_chemical_formula_structural       Cd8H80C120N16O32
_chemical_formula_sum              "Cd8 H80 C120 N16 O32"
_cell_length_a       10.84111
_cell_length_b       13.86288
_cell_length_c       22.937
_cell_angle_alpha    89.96393999999998
_cell_angle_beta     101.24086999999999
_cell_angle_gamma    89.79102

_symmetry_space_group_name_H-M    'P 1'
_symmetry_Int_Tables_number       1

loop_
  _symmetry_equiv_pos_as_xyz
  'x,y,z'

loop_
  _atom_site_type_symbol
  _atom_site_label
  _atom_site_symmetry_multiplicity
  _atom_site_fract_x
  _atom_site_fract_y
  _atom_site_fract_z
  _atom_site_occupancy
  Cd  Cd1       1.0  0.04886  0.68275  0.19152  1.0000
  Cd  Cd2       1.0  0.69134  0.52685  0.19512  1.0000
  Cd  Cd3       1.0  0.30867  0.47315  0.80488  1.0000
  Cd  Cd4       1.0  0.80693  0.02435  0.3046  1.0000
  Cd  Cd5       1.0  0.45091  0.18339  0.30793  1.0000
  Cd  Cd6       1.0  0.19307000000000002  0.97565  0.6954  1.0000
  Cd  Cd7       1.0  0.95114  0.31725  0.8084799999999999  1.0000
  Cd  Cd8       1.0  0.54909  0.8166099999999998  0.69207  1.0000
  H   H1        1.0  0.78346  0.26447  0.57357  1.0000
  H   H2        1.0  0.28074  0.14756999999999995  0.9712599999999999  1.0000
  H   H3        1.0  0.46354000000000006  0.94181  0.80953  1.0000
  H   H4        1.0  0.91082  0.60351  0.57606  1.0000
  H   H5        1.0  0.25384  0.29794  0.48712  1.0000
  H   H6        1.0  0.28157  0.23648999999999998  0.07268  1.0000
  H   H7        1.0  0.92421  0.84021  0.49340999999999996  1.0000
  H   H8        1.0  0.029129999999999955  0.95707  0.8037599999999999  1.0000
  H   H9        1.0  0.42299  0.6608899999999999  0.99311  1.0000
  H   H10       1.0  0.88066  0.95023  0.09307  1.0000
  H   H11       1.0  0.21253  0.97156  0.41711  1.0000
  H   H12       1.0  0.2895  0.4730899999999999  0.08297  1.0000
  H   H13       1.0  0.78254  0.35273  0.47126  1.0000
  H   H14       1.0  0.97087  0.04293  0.19624  1.0000
  H   H15       1.0  0.53646  0.058189999999999985  0.19047  1.0000
  H   H16       1.0  0.2015  0.25706  0.73026  1.0000
  H   H17       1.0  0.74649  0.78318  0.38017  1.0000
  H   H18       1.0  0.56387  0.71535  0.43366  1.0000
  H   H19       1.0  0.61048  0.36184  0.91372  1.0000
  H   H20       1.0  0.24709  0.79815  0.01269  1.0000
  H   H21       1.0  0.23417  0.6962499999999999  0.62637  1.0000
  H   H22       1.0  0.98568  0.8910199999999998  0.90256  1.0000
  H   H23       1.0  0.04404000000000002  0.45512  0.58252  1.0000
  H   H24       1.0  0.11934000000000004  0.04977  0.9069299999999999  1.0000
  H   H25       1.0  0.7985  0.74294  0.26974  1.0000
  H   H26       1.0  0.3895199999999999  0.63817  0.08628  1.0000
  H   H27       1.0  0.56208  0.14542  0.7776299999999999  1.0000
  H   H28       1.0  0.7264  0.7161199999999998  0.80975  1.0000
  H   H29       1.0  0.03834000000000002  0.4423199999999999  0.69055  1.0000
  H   H30       1.0  0.22491  0.7813099999999998  0.30866  1.0000
  H   H31       1.0  0.96167  0.55768  0.30945  1.0000
  H   H32       1.0  0.95597  0.54488  0.41747  1.0000
  H   H33       1.0  0.93454  0.21474999999999994  0.06678  1.0000
  H   H34       1.0  0.06545999999999995  0.78525  0.93322  1.0000
  H   H35       1.0  0.21654  0.73554  0.4264299999999999  1.0000
  H   H36       1.0  0.38025000000000003  0.54905  0.59271  1.0000
  H   H37       1.0  0.48469999999999996  0.60973  0.40323  1.0000
  H   H38       1.0  0.73162  0.8058699999999998  0.12546  1.0000
  H   H39       1.0  0.7751000000000001  0.21868999999999997  0.69134  1.0000
  H   H40       1.0  0.7461600000000002  0.7020599999999998  0.51288  1.0000
  H   H41       1.0  0.12837  0.42496  0.99354  1.0000
  H   H42       1.0  0.26838  0.19413  0.87454  1.0000
  H   H43       1.0  0.87163  0.57504  0.006459999999999999  1.0000
  H   H44       1.0  0.6275  0.07508  0.4924699999999999  1.0000
  H   H45       1.0  0.3725  0.92492  0.50753  1.0000
  H   H46       1.0  0.71926  0.8524399999999998  0.028739999999999998  1.0000
  H   H47       1.0  0.6197499999999999  0.45096  0.4072799999999999  1.0000
  H   H48       1.0  0.76583  0.30375  0.37362999999999996  1.0000
  H   H49       1.0  0.11163  0.13849  0.41339999999999993  1.0000
  H   H50       1.0  0.25352  0.21683  0.61983  1.0000
  H   H51       1.0  0.45725  0.95552  0.91731  1.0000
  H   H52       1.0  0.7518499999999999  0.28346  0.12022999999999999  1.0000
  H   H53       1.0  0.71843  0.7635099999999998  0.92732  1.0000
  H   H54       1.0  0.88837  0.8615099999999998  0.5866  1.0000
  H   H55       1.0  0.21747  0.6472699999999998  0.52874  1.0000
  H   H56       1.0  0.2736  0.28388  0.19024999999999997  1.0000
  H   H57       1.0  0.58953  0.10368999999999999  0.9238699999999999  1.0000
  H   H58       1.0  0.41047000000000006  0.8963099999999999  0.07612  1.0000
  H   H59       1.0  0.57702  0.33911  0.006889999999999999  1.0000
  H   H60       1.0  0.7874699999999999  0.02844  0.58289  1.0000
  H   H61       1.0  0.5106700000000002  0.85336  0.9613899999999999  1.0000
  H   H62       1.0  0.07579000000000001  0.15979  0.50658  1.0000
  H   H63       1.0  0.01432  0.10897999999999997  0.09744  1.0000
  H   H64       1.0  0.3017099999999999  0.75768  0.7697999999999999  1.0000
  H   H65       1.0  0.47323  0.45549  0.69604  1.0000
  H   H66       1.0  0.43612999999999996  0.28466  0.56634  1.0000
  H   H67       1.0  0.43792  0.85458  0.22235999999999997  1.0000
  H   H68       1.0  0.24815  0.7165499999999998  0.87977  1.0000
  H   H69       1.0  0.5153  0.3902699999999999  0.59676  1.0000
  H   H70       1.0  0.059  0.3553099999999999  0.2771  1.0000
  H   H71       1.0  0.7105  0.52691  0.91702  1.0000
  H   H72       1.0  0.08919  0.39649  0.42394  1.0000
  H   H73       1.0  0.48933  0.14664  0.03861  1.0000
  H   H74       1.0  0.54275  0.04448  0.08268  1.0000
  H   H75       1.0  0.52678  0.54452  0.30396  1.0000
  H   H76       1.0  0.0093  0.64724  0.46104  1.0000
  H   H77       1.0  0.7529100000000001  0.20184999999999995  0.98731  1.0000
  H   H78       1.0  0.9907000000000001  0.35277  0.53896  1.0000
  H   H79       1.0  0.69829  0.24231999999999995  0.2302  1.0000
  H   H80       1.0  0.941  0.64469  0.7229  1.0000
  C   C1        1.0  0.030900000000000004  0.61298  0.32509  1.0000
  C   C2        1.0  0.33909  0.8412299999999998  0.6049  1.0000
  C   C3        1.0  0.77495  0.42934  0.4804  1.0000
  C   C4        1.0  0.90088  0.7541099999999997  0.65467  1.0000
  C   C5        1.0  0.43543000000000004  0.28209999999999996  0.90272  1.0000
  C   C6        1.0  0.06550999999999998  0.78355  0.59808  1.0000
  C   C7        1.0  0.058790000000000016  0.9087599999999998  0.45076999999999995  1.0000
  C   C8        1.0  0.8595500000000001  0.28561  0.36674  1.0000
  C   C9        1.0  0.3176  0.51514  0.55551  1.0000
  C   C10       1.0  0.0969  0.66551  0.67847  1.0000
  C   C11       1.0  0.9771999999999998  0.14065  0.50225  1.0000
  C   C12       1.0  0.77285  0.59323  0.00346  1.0000
  C   C13       1.0  0.65352  0.06985  0.96074  1.0000
  C   C14       1.0  0.54008  0.43873  0.10166  1.0000
  C   C15       1.0  0.64215  0.9714199999999997  0.9723  1.0000
  C   C16       1.0  0.9344899999999999  0.21645999999999999  0.40191999999999994  1.0000
  C   C17       1.0  0.31585  0.43339  0.04626  1.0000
  C   C18       1.0  0.5326099999999999  0.88612  0.8254199999999999  1.0000
  C   C19       1.0  0.07805000000000008  0.85559  0.91332  1.0000
  C   C20       1.0  0.27366  0.9072599999999997  0.50414  1.0000
  C   C21       1.0  0.27383  0.07089999999999998  0.98028  1.0000
  C   C22       1.0  0.8301399999999999  0.27173  0.6731  1.0000
  C   C23       1.0  0.05399999999999999  0.19577999999999998  0.38967  1.0000
  C   C24       1.0  0.8145700000000001  0.06705  0.54603  1.0000
  C   C25       1.0  0.97564  0.6835399999999999  0.68828  1.0000
  C   C26       1.0  0.22627999999999998  0.22381  0.33257999999999993  1.0000
  C   C27       1.0  0.15321  0.4301599999999999  0.4607  1.0000
  C   C28       1.0  0.03854000000000001  0.06147  0.60175  1.0000
  C   C29       1.0  0.72618  0.9290999999999999  0.019719999999999998  1.0000
  C   C30       1.0  0.9219500000000002  0.14441  0.08668  1.0000
  C   C31       1.0  0.67851  0.9018699999999998  0.21829999999999997  1.0000
  C   C32       1.0  0.09912  0.24589  0.34532  1.0000
  C   C33       1.0  0.35786  0.02858  0.0277  1.0000
  C   C34       1.0  0.55748  0.5914399999999997  0.95054  1.0000
  C   C35       1.0  0.59984  0.2548599999999999  0.8457099999999999  1.0000
  C   C36       1.0  0.18543  0.93295  0.45397  1.0000
  C   C37       1.0  0.32149  0.09813  0.7817  1.0000
  C   C38       1.0  0.82795  0.08335  0.04488999999999999  1.0000
  C   C39       1.0  0.6841500000000001  0.56661  0.95374  1.0000
  C   C40       1.0  0.17205000000000004  0.91665  0.95511  1.0000
  C   C41       1.0  0.22505  0.57066  0.5196  1.0000
  C   C42       1.0  0.59252  0.60391  0.30858  1.0000
  C   C43       1.0  0.32853  0.23018  0.17227  1.0000
  C   C44       1.0  0.54046  0.9114199999999999  0.93474  1.0000
  C   C45       1.0  0.67162  0.58377  0.45546  1.0000
  C   C46       1.0  0.554  0.3042  0.89017  1.0000
  C   C47       1.0  0.25428  0.87475  0.0032699999999999995  1.0000
  C   C48       1.0  0.039060000000000004  0.58877  0.43461  1.0000
  C   C49       1.0  0.022799999999999987  0.85935  0.49775  1.0000
  C   C50       1.0  0.9609400000000001  0.4112399999999999  0.56539  1.0000
  C   C51       1.0  0.66875  0.79301  0.88561  1.0000
  C   C52       1.0  0.8588200000000001  0.47143  0.52775  1.0000
  C   C53       1.0  0.40616  0.16469  0.82225  1.0000
  C   C54       1.0  0.26356  0.35847  0.94868  1.0000
  C   C55       1.0  0.34648  0.9301599999999998  0.03926  1.0000
  C   C56       1.0  0.47324000000000005  0.81614  0.18770999999999996  1.0000
  C   C57       1.0  0.7351900000000001  0.7064699999999998  0.29349  1.0000
  C   C58       1.0  0.18201999999999996  0.01562  0.9442  1.0000
  C   C59       1.0  0.16986  0.7282699999999998  0.3269  1.0000
  C   C60       1.0  0.9031000000000001  0.33449  0.32153  1.0000
  C   C61       1.0  0.14119000000000004  0.52857  0.47225  1.0000
  C   C62       1.0  0.40017  0.74514  0.15428  1.0000
  C   C63       1.0  0.45954  0.08859  0.06525  1.0000
  C   C64       1.0  0.84679  0.56985  0.5393  1.0000
  C   C65       1.0  0.36189999999999994  0.2125  0.8677399999999998  1.0000
  C   C66       1.0  0.70989  0.7271999999999998  0.3485  1.0000
  C   C67       1.0  0.9691  0.38703  0.6749  1.0000
  C   C68       1.0  0.27423000000000003  0.7211299999999999  0.16731  1.0000
  C   C69       1.0  0.9614600000000001  0.9385299999999999  0.39825  1.0000
  C   C70       1.0  0.24611999999999992  0.37452  0.49652999999999997  1.0000
  C   C71       1.0  0.52677  0.18385999999999994  0.8122899999999998  1.0000
  C   C72       1.0  0.45992000000000005  0.56128  0.89833  1.0000
  C   C73       1.0  0.4782600000000001  0.35824  0.00273  1.0000
  C   C74       1.0  0.66091  0.15877  0.3951  1.0000
  C   C75       1.0  0.44252  0.4085599999999999  0.04946  1.0000
  C   C76       1.0  0.23686  0.8602099999999998  0.55222  1.0000
  C   C77       1.0  0.6381  0.7875  0.13226  1.0000
  C   C78       1.0  0.26481  0.2935299999999999  0.70651  1.0000
  C   C79       1.0  0.16697999999999996  0.70584  0.38486999999999993  1.0000
  C   C80       1.0  0.788  0.22687999999999997  0.15176  1.0000
  C   C81       1.0  0.52174  0.64176  0.99727  1.0000
  C   C82       1.0  0.60901  0.6666999999999997  0.04866999999999999  1.0000
  C   C83       1.0  0.14045  0.71439  0.63325  1.0000
  C   C84       1.0  0.67147  0.76982  0.82773  1.0000
  C   C85       1.0  0.89031  0.16507  0.45051  1.0000
  C   C86       1.0  0.29011  0.2728  0.6515  1.0000
  C   C87       1.0  0.42317000000000005  0.35498  0.58621  1.0000
  C   C88       1.0  0.57683  0.6450199999999999  0.41379  1.0000
  C   C89       1.0  0.9459999999999998  0.80422  0.61033  1.0000
  C   C90       1.0  0.22715000000000002  0.40677  0.99654  1.0000
  C   C91       1.0  0.83302  0.29416  0.61513  1.0000
  C   C92       1.0  0.7364500000000003  0.64153  0.05131  1.0000
  C   C93       1.0  0.44600000000000006  0.6958  0.10983  1.0000
  C   C94       1.0  0.1097  0.8349299999999997  0.54949  1.0000
  C   C95       1.0  0.40749  0.3960899999999999  0.69142  1.0000
  C   C96       1.0  0.7737200000000001  0.77619  0.66742  1.0000
  C   C97       1.0  0.23801  0.79428  0.79342  1.0000
  C   C98       1.0  0.024360000000000014  0.31646  0.31172  1.0000
  C   C99       1.0  0.72634  0.09274999999999999  0.49586  1.0000
  C   C100      1.0  0.6824  0.48486  0.44449  1.0000
  C   C101      1.0  0.18292999999999995  0.59831  0.71848  1.0000
  C   C102      1.0  0.76314  0.13979000000000003  0.44778  1.0000
  C   C103      1.0  0.8170700000000001  0.40169  0.28152  1.0000
  C   C104      1.0  0.33125  0.20698999999999995  0.11438  1.0000
  C   C105      1.0  0.75388  0.62548  0.50347  1.0000
  C   C106      1.0  0.32838  0.41623  0.54454  1.0000
  C   C107      1.0  0.09489999999999998  0.8973199999999998  0.80838  1.0000
  C   C108      1.0  0.39099000000000006  0.3333  0.95133  1.0000
  C   C109      1.0  0.4674  0.11387999999999997  0.17458  1.0000
  C   C110      1.0  0.81799  0.98438  0.05578999999999999  1.0000
  C   C111      1.0  0.72577  0.27887  0.83269  1.0000
  C   C112      1.0  0.8382400000000001  0.6604599999999998  0.10419  1.0000
  C   C113      1.0  0.59384  0.8353099999999999  0.17775  1.0000
  C   C114      1.0  0.9051  0.10267999999999998  0.19162  1.0000
  C   C115      1.0  0.56457  0.7178999999999998  0.09727  1.0000
  C   C116      1.0  0.16175999999999993  0.33954  0.89581  1.0000
  C   C117      1.0  0.76199  0.20571999999999996  0.20657999999999999  1.0000
  C   C118      1.0  0.9412099999999999  0.09124  0.54923  1.0000
  C   C119      1.0  0.212  0.77313  0.84824  1.0000
  C   C120      1.0  0.74573  0.12526  0.99672  1.0000
  N   N1        1.0  0.61852  0.6618199999999999  0.35735  1.0000
  N   N2        1.0  0.83573  0.12846  0.23109  1.0000
  N   N3        1.0  0.07868  0.63309  0.38292  1.0000
  N   N4        1.0  0.33869  0.3702  0.73105  1.0000
  N   N5        1.0  0.4139399999999999  0.17151  0.20935  1.0000
  N   N6        1.0  0.5805  0.86639  0.88333  1.0000
  N   N7        1.0  0.12031999999999995  0.8388099999999998  0.8570099999999999  1.0000
  N   N8        1.0  0.58606  0.8284899999999997  0.7906499999999997  1.0000
  N   N9        1.0  0.16428  0.8715399999999999  0.7689099999999999  1.0000
  N   N10       1.0  0.66131  0.6298  0.26893999999999996  1.0000
  N   N11       1.0  0.08446  0.66982  0.29008  1.0000
  N   N12       1.0  0.91554  0.33018  0.70992  1.0000
  N   N13       1.0  0.41951  0.13362  0.11666999999999998  1.0000
  N   N14       1.0  0.92133  0.36691  0.6170799999999999  1.0000
  N   N15       1.0  0.87968  0.16118999999999994  0.14299  1.0000
  N   N16       1.0  0.38148000000000004  0.33817999999999987  0.64265  1.0000
  O   O1        1.0  0.16501999999999997  0.37671  0.84465  1.0000
  O   O2        1.0  0.28061  0.14432  0.35129  1.0000
  O   O3        1.0  0.20412999999999998  0.10039  0.7801499999999999  1.0000
  O   O4        1.0  0.6999399999999998  0.3994199999999999  0.28017  1.0000
  O   O5        1.0  0.37412  0.04278  0.74841  1.0000
  O   O6        1.0  0.30006  0.6005899999999997  0.71983  1.0000
  O   O7        1.0  0.22138  0.64183  0.14837  1.0000
  O   O8        1.0  0.43128000000000005  0.78928  0.59725  1.0000
  O   O9        1.0  0.5009  0.48637  0.14266  1.0000
  O   O10       1.0  0.99978  0.9861399999999998  0.35712  1.0000
  O   O11       1.0  0.15361  0.08053  0.60314  1.0000
  O   O12       1.0  0.62589  0.9572199999999997  0.25159  1.0000
  O   O13       1.0  0.4991  0.51364  0.85734  1.0000
  O   O14       1.0  0.86886  0.4579  0.24843999999999997  1.0000
  O   O15       1.0  0.33731  0.87955  0.65591  1.0000
  O   O16       1.0  0.13115  0.5421  0.75156  1.0000
  O   O17       1.0  0.22373  0.7822  0.19750999999999996  1.0000
  O   O18       1.0  0.8464  0.91947  0.39686  1.0000
  O   O19       1.0  0.34477  0.5800299999999998  0.89707  1.0000
  O   O20       1.0  0.83498  0.6232999999999999  0.15535  1.0000
  O   O21       1.0  0.27585  0.28585  0.30287  1.0000
  O   O22       1.0  0.93146  0.71088  0.09674999999999999  1.0000
  O   O23       1.0  0.77862  0.35817  0.8516299999999999  1.0000
  O   O24       1.0  0.65523  0.41996999999999995  0.10293  1.0000
  O   O25       1.0  0.77627  0.21781  0.8024799999999999  1.0000
  O   O26       1.0  0.00021999999999997553  0.01387  0.64287  1.0000
  O   O27       1.0  0.7241499999999998  0.7141499999999998  0.6971299999999999  1.0000
  O   O28       1.0  0.56872  0.21072  0.40275  1.0000
  O   O29       1.0  0.66269  0.12046  0.34409  1.0000
  O   O30       1.0  0.06854000000000007  0.28912  0.90325  1.0000
  O   O31       1.0  0.71939  0.85568  0.64871  1.0000
  O   O32       1.0  0.79587  0.8996099999999998  0.21985  1.0000
