data_image0
_chemical_formula_structural       Cu8Si4H64C112N64Cl2
_chemical_formula_sum              "Cu8 Si4 H64 C112 N64 Cl2"
_cell_length_a       18.42243
_cell_length_b       18.42229
_cell_length_c       25.33387
_cell_angle_alpha    90.0
_cell_angle_beta     90.0
_cell_angle_gamma    89.94705

_space_group_name_H-M_alt    "P 1"
_space_group_IT_number       1

loop_
  _space_group_symop_operation_xyz
  'x, y, z'

loop_
  _atom_site_type_symbol
  _atom_site_label
  _atom_site_symmetry_multiplicity
  _atom_site_fract_x
  _atom_site_fract_y
  _atom_site_fract_z
  _atom_site_occupancy
  Cu  Cu1       1.0  0.40753  0.59246  0.5  1.0000
  Cu  Cu2       1.0  0.5933400000000001  0.40666  0.49999  1.0000
  Cu  Cu3       1.0  0.90711  0.90712  0.00067  1.0000
  Cu  Cu4       1.0  0.09313000000000002  0.09314  0.00073  1.0000
  Cu  Cu5       1.0  0.49939000000000006  0.50061  0.40264  1.0000
  Cu  Cu6       1.0  0.99935  0.99935  0.90303  1.0000
  Cu  Cu7       1.0  0.99924  0.99924  0.09678  1.0000
  Cu  Cu8       1.0  0.49940000000000007  0.5006  0.59733  1.0000
  Si  Si1       1.0  0.49982000000000004  8e-05  0.25011  1.0000
  Si  Si2       1.0  0.49985  9e-05  0.75004  1.0000
  Si  Si3       1.0  0.9998700000000001  0.49984  0.25011  1.0000
  Si  Si4       1.0  0.99989  0.49988000000000005  0.75004  1.0000
  H   H1        1.0  0.56861  0.74265  0.29254  1.0000
  H   H2        1.0  0.57286  0.85654  0.24013  1.0000
  H   H3        1.0  0.4358600000000001  0.9616299999999999  0.35535  1.0000
  H   H4        1.0  0.4328700000000001  0.84779  0.40772  1.0000
  H   H5        1.0  0.43141  0.25765  0.29309  1.0000
  H   H6        1.0  0.4271900000000001  0.1441  0.24046  1.0000
  H   H7        1.0  0.56413  0.03833  0.35534  1.0000
  H   H8        1.0  0.56761  0.15193  0.40785  1.0000
  H   H9        1.0  0.75734  0.06857  0.7925200000000001  1.0000
  H   H10       1.0  0.6435000000000002  0.07293  0.74012  1.0000
  H   H11       1.0  0.5384800000000002  0.93598  0.85532  1.0000
  H   H12       1.0  0.65227  0.93294  0.90768  1.0000
  H   H13       1.0  0.24236  0.93147  0.79322  1.0000
  H   H14       1.0  0.3558300000000001  0.92725  0.74054  1.0000
  H   H15       1.0  0.46151000000000003  0.06417  0.85537  1.0000
  H   H16       1.0  0.34801  0.06762  0.90793  1.0000
  H   H17       1.0  0.93158  0.24254  0.20636  1.0000
  H   H18       1.0  0.9272700000000001  0.35578  0.25946  1.0000
  H   H19       1.0  0.06418  0.46226000000000006  0.14493  1.0000
  H   H20       1.0  0.06797  0.34874  0.09216  1.0000
  H   H21       1.0  0.06841  0.75706  0.2071  1.0000
  H   H22       1.0  0.07279  0.64339  0.25991  1.0000
  H   H23       1.0  0.93581  0.53772  0.14495  1.0000
  H   H24       1.0  0.93254  0.6516  0.09240000000000001  1.0000
  H   H25       1.0  0.7424  0.56862  0.70689  1.0000
  H   H26       1.0  0.85593  0.57277  0.75956  1.0000
  H   H27       1.0  0.9616500000000001  0.4358  0.64467  1.0000
  H   H28       1.0  0.84808  0.43244  0.59214  1.0000
  H   H29       1.0  0.25739  0.43141  0.70747  1.0000
  H   H30       1.0  0.14355  0.42707  0.75989  1.0000
  H   H31       1.0  0.03832  0.56407  0.64471  1.0000
  H   H32       1.0  0.15214  0.56713  0.59236  1.0000
  H   H33       1.0  0.43141  0.25765  0.7069  1.0000
  H   H34       1.0  0.42717000000000005  0.14412  0.75956  1.0000
  H   H35       1.0  0.56411  0.03831  0.64469  1.0000
  H   H36       1.0  0.56759  0.15189  0.59218  1.0000
  H   H37       1.0  0.5686200000000002  0.74266  0.70746  1.0000
  H   H38       1.0  0.5728700000000001  0.85651  0.75989  1.0000
  H   H39       1.0  0.43584000000000006  0.9616400000000002  0.64469  1.0000
  H   H40       1.0  0.43289  0.84783  0.59231  1.0000
  H   H41       1.0  0.24257  0.93156  0.20634  1.0000
  H   H42       1.0  0.35582  0.92733  0.25946  1.0000
  H   H43       1.0  0.46222  0.06427  0.14491  1.0000
  H   H44       1.0  0.34871  0.06795  0.09212  1.0000
  H   H45       1.0  0.7571  0.06839  0.20711  1.0000
  H   H46       1.0  0.6434400000000001  0.07284  0.25992  1.0000
  H   H47       1.0  0.53769  0.93588  0.14497  1.0000
  H   H48       1.0  0.65157  0.93252  0.09243999999999998  1.0000
  H   H49       1.0  0.06860000000000001  0.7573  0.7925300000000001  1.0000
  H   H50       1.0  0.07288  0.64345  0.74012  1.0000
  H   H51       1.0  0.93589  0.53851  0.85534  1.0000
  H   H52       1.0  0.9329600000000001  0.6523  0.90772  1.0000
  H   H53       1.0  0.93149  0.24233  0.79321  1.0000
  H   H54       1.0  0.9272  0.35578  0.74054  1.0000
  H   H55       1.0  0.06408  0.46155  0.8553500000000002  1.0000
  H   H56       1.0  0.06764  0.34804  0.90789  1.0000
  H   H57       1.0  0.25739  0.43141  0.29253  1.0000
  H   H58       1.0  0.14352  0.4271  0.24012  1.0000
  H   H59       1.0  0.03834  0.56409  0.35531  1.0000
  H   H60       1.0  0.15218000000000004  0.56715  0.40767  1.0000
  H   H61       1.0  0.74238  0.56862  0.29311  1.0000
  H   H62       1.0  0.8559500000000001  0.57276  0.24046  1.0000
  H   H63       1.0  0.9616400000000002  0.4358099999999999  0.35537  1.0000
  H   H64       1.0  0.8480400000000002  0.43242  0.4079  1.0000
  C   C1        1.0  0.4920900000000001  0.71991  0.38208  1.0000
  C   C2        1.0  0.49920000000000003  0.78772  0.35279  1.0000
  C   C3        1.0  0.5395200000000001  0.79075  0.30576  1.0000
  C   C4        1.0  0.54137  0.85482  0.2765  1.0000
  C   C5        1.0  0.50326  0.91714  0.29302  1.0000
  C   C6        1.0  0.4647900000000001  0.91387  0.34106  1.0000
  C   C7        1.0  0.4629400000000001  0.85025  0.3708  1.0000
  C   C8        1.0  0.50874  0.28025  0.3825  1.0000
  C   C9        1.0  0.50125  0.21245  0.35318  1.0000
  C   C10       1.0  0.46063  0.20958  0.30625  1.0000
  C   C11       1.0  0.45869  0.14562  0.27683  1.0000
  C   C12       1.0  0.49664  0.08312  0.29315  1.0000
  C   C13       1.0  0.53529  0.0862  0.34114  1.0000
  C   C14       1.0  0.5374400000000001  0.14975  0.37096  1.0000
  C   C15       1.0  0.7802300000000001  0.99205  0.88204  1.0000
  C   C16       1.0  0.7123700000000001  0.9991699999999999  0.85275  1.0000
  C   C17       1.0  0.70926  0.0395  0.80573  1.0000
  C   C18       1.0  0.64518  0.04145  0.77649  1.0000
  C   C19       1.0  0.58283  0.0034799999999999996  0.7929899999999999  1.0000
  C   C20       1.0  0.58618  0.96492  0.8410200000000001  1.0000
  C   C21       1.0  0.64983  0.96299  0.87075  1.0000
  C   C22       1.0  0.21966  0.00885  0.88276  1.0000
  C   C23       1.0  0.28744  0.0014  0.8533  1.0000
  C   C24       1.0  0.29036  0.96076  0.80635  1.0000
  C   C25       1.0  0.3543000000000001  0.95886  0.77687  1.0000
  C   C26       1.0  0.41674  0.99692  0.79308  1.0000
  C   C27       1.0  0.4136500000000001  0.03543  0.8411299999999999  1.0000
  C   C28       1.0  0.35013  0.03753  0.87102  1.0000
  C   C29       1.0  0.00912  0.22081999999999996  0.11685  1.0000
  C   C30       1.0  0.0015  0.28825  0.14647  1.0000
  C   C31       1.0  0.96072  0.29072  0.19339999999999996  1.0000
  C   C32       1.0  0.95879  0.35444  0.22308  1.0000
  C   C33       1.0  0.9967300000000002  0.41701  0.207  1.0000
  C   C34       1.0  0.03545  0.41431  0.15900000000000003  1.0000
  C   C35       1.0  0.03775  0.35097  0.12901  1.0000
  C   C36       1.0  0.99225  0.77887  0.11741  1.0000
  C   C37       1.0  0.99916  0.71146  0.147  1.0000
  C   C38       1.0  0.0395  0.70879  0.19407  1.0000
  C   C39       1.0  0.04136  0.64495  0.22352  1.0000
  C   C40       1.0  0.00329  0.58256  0.20715  1.0000
  C   C41       1.0  0.9647100000000001  0.58553  0.15910000000000002  1.0000
  C   C42       1.0  0.9627200000000001  0.64895  0.12926  1.0000
  C   C43       1.0  0.7197500000000001  0.4913  0.61748  1.0000
  C   C44       1.0  0.7875600000000003  0.49873  0.64683  1.0000
  C   C45       1.0  0.79045  0.53934  0.69376  1.0000
  C   C46       1.0  0.85439  0.54119  0.72322  1.0000
  C   C47       1.0  0.91683  0.50308  0.70697  1.0000
  C   C48       1.0  0.9137700000000001  0.46458  0.65891  1.0000
  C   C49       1.0  0.85025  0.46253999999999995  0.62905  1.0000
  C   C50       1.0  0.2800700000000001  0.50789  0.61792  1.0000
  C   C51       1.0  0.21226  0.50079  0.64723  1.0000
  C   C52       1.0  0.20926  0.46047  0.6942500000000001  1.0000
  C   C53       1.0  0.14519000000000007  0.45853  0.72351  1.0000
  C   C54       1.0  0.08279  0.49651  0.70702  1.0000
  C   C55       1.0  0.08606000000000001  0.53509  0.65901  1.0000
  C   C56       1.0  0.1497  0.53703  0.62927  1.0000
  C   C57       1.0  0.50871  0.28024  0.61749  1.0000
  C   C58       1.0  0.50125  0.21243  0.64683  1.0000
  C   C59       1.0  0.46063  0.20957  0.69377  1.0000
  C   C60       1.0  0.4587  0.14562  0.7232  1.0000
  C   C61       1.0  0.49667  0.08311  0.70693  1.0000
  C   C62       1.0  0.53528  0.08618  0.65891  1.0000
  C   C63       1.0  0.53743  0.14972  0.62907  1.0000
  C   C64       1.0  0.49211000000000005  0.71992  0.61791  1.0000
  C   C65       1.0  0.49919  0.78774  0.64723  1.0000
  C   C66       1.0  0.53951  0.79077  0.6942500000000001  1.0000
  C   C67       1.0  0.5413600000000001  0.85482  0.72353  1.0000
  C   C68       1.0  0.50324  0.91716  0.70706  1.0000
  C   C69       1.0  0.46477  0.91389  0.65901  1.0000
  C   C70       1.0  0.4629400000000001  0.85028  0.62924  1.0000
  C   C71       1.0  0.22081  0.00912  0.11684  1.0000
  C   C72       1.0  0.28824  0.00152  0.14647  1.0000
  C   C73       1.0  0.29074  0.96074  0.19339999999999996  1.0000
  C   C74       1.0  0.35444  0.9588900000000001  0.2231  1.0000
  C   C75       1.0  0.41695  0.9969500000000001  0.20703  1.0000
  C   C76       1.0  0.4142600000000001  0.03557  0.15900000000000003  1.0000
  C   C77       1.0  0.35095000000000004  0.03778  0.12899  1.0000
  C   C78       1.0  0.77885  0.9922500000000001  0.11741999999999998  1.0000
  C   C79       1.0  0.71144  0.99918  0.147  1.0000
  C   C80       1.0  0.7088000000000001  0.03952  0.19407  1.0000
  C   C81       1.0  0.6449600000000002  0.04145  0.2235  1.0000
  C   C82       1.0  0.5825100000000001  0.0035000000000000005  0.20711  1.0000
  C   C83       1.0  0.58548  0.96483  0.15910000000000002  1.0000
  C   C84       1.0  0.64893  0.9627599999999998  0.12928  1.0000
  C   C85       1.0  0.9920400000000001  0.78024  0.88205  1.0000
  C   C86       1.0  0.9991500000000001  0.71238  0.85275  1.0000
  C   C87       1.0  0.03948  0.70925  0.80573  1.0000
  C   C88       1.0  0.04135  0.64517  0.77647  1.0000
  C   C89       1.0  0.00326  0.58288  0.79295  1.0000
  C   C90       1.0  0.96479  0.58623  0.8410100000000001  1.0000
  C   C91       1.0  0.9629600000000001  0.64986  0.87077  1.0000
  C   C92       1.0  0.00885  0.21967  0.88276  1.0000
  C   C93       1.0  0.00138  0.28744  0.8533  1.0000
  C   C94       1.0  0.9607300000000002  0.29034  0.80635  1.0000
  C   C95       1.0  0.9587600000000001  0.3543  0.77689  1.0000
  C   C96       1.0  0.9967000000000003  0.41679  0.79311  1.0000
  C   C97       1.0  0.035310000000000015  0.4137  0.8411299999999999  1.0000
  C   C98       1.0  0.037500000000000006  0.35016  0.87099  1.0000
  C   C99       1.0  0.28008  0.50791  0.38207  1.0000
  C   C100      1.0  0.21227000000000004  0.50078  0.35278  1.0000
  C   C101      1.0  0.20927  0.46047  0.30575  1.0000
  C   C102      1.0  0.14519000000000007  0.45853  0.27651  1.0000
  C   C103      1.0  0.0828  0.49648999999999993  0.29306  1.0000
  C   C104      1.0  0.08609000000000001  0.5351  0.34105  1.0000
  C   C105      1.0  0.14972  0.53704  0.37077  1.0000
  C   C106      1.0  0.71973  0.49126000000000003  0.38251  1.0000
  C   C107      1.0  0.78754  0.49873  0.35319  1.0000
  C   C108      1.0  0.79043  0.53935  0.30625  1.0000
  C   C109      1.0  0.8543800000000003  0.5412  0.27681  1.0000
  C   C110      1.0  0.91681  0.5031  0.29311  1.0000
  C   C111      1.0  0.91375  0.46459  0.34116  1.0000
  C   C112      1.0  0.85022  0.46253999999999995  0.371  1.0000
  N   N1        1.0  0.45929  0.64524  0.44114  1.0000
  N   N2        1.0  0.49597  0.60908  0.40304  1.0000
  N   N3        1.0  0.51668  0.65427  0.36558  1.0000
  N   N4        1.0  0.4566100000000001  0.71468  0.42895  1.0000
  N   N5        1.0  0.5407700000000001  0.35484  0.44173  1.0000
  N   N6        1.0  0.50384  0.39161  0.40309  1.0000
  N   N7        1.0  0.48362  0.34587  0.36617  1.0000
  N   N8        1.0  0.54427  0.28584  0.42933  1.0000
  N   N9        1.0  0.8547400000000003  0.9592599999999999  0.94131  1.0000
  N   N10       1.0  0.89091  0.9961099999999999  0.90327  1.0000
  N   N11       1.0  0.8458300000000001  0.01677  0.8656900000000001  1.0000
  N   N12       1.0  0.78543  0.9565000000000001  0.9289000000000001  1.0000
  N   N13       1.0  0.14509  0.04081  0.94208  1.0000
  N   N14       1.0  0.10834000000000002  0.0038799999999999998  0.90348  1.0000
  N   N15       1.0  0.15406  0.9837099999999999  0.86651  1.0000
  N   N16       1.0  0.21406  0.04439  0.9296  1.0000
  N   N17       1.0  0.04066  0.14562  0.05834000000000001  1.0000
  N   N18       1.0  0.00428  0.10919  0.09653000000000002  1.0000
  N   N19       1.0  0.9834900000000002  0.15543  0.13323  1.0000
  N   N20       1.0  0.04501  0.21506  0.07025  1.0000
  N   N21       1.0  0.9591800000000001  0.85388  0.05901  1.0000
  N   N22       1.0  0.9958300000000001  0.8900399999999999  0.09694  1.0000
  N   N23       1.0  0.0172  0.84428  0.13398  1.0000
  N   N24       1.0  0.95614  0.78424  0.07089  1.0000
  N   N25       1.0  0.64516  0.4592200000000001  0.55828  1.0000
  N   N26       1.0  0.6083900000000001  0.49615  0.59691  1.0000
  N   N27       1.0  0.65414  0.51639  0.63383  1.0000
  N   N28       1.0  0.71417  0.45575  0.57067  1.0000
  N   N29       1.0  0.35475  0.54068  0.55887  1.0000
  N   N30       1.0  0.3909  0.50405  0.59697  1.0000
  N   N31       1.0  0.34571  0.48332  0.63443  1.0000
  N   N32       1.0  0.2853  0.54338  0.57105  1.0000
  N   N33       1.0  0.54078  0.35483  0.55828  1.0000
  N   N34       1.0  0.5038500000000001  0.3916  0.59691  1.0000
  N   N35       1.0  0.48361000000000004  0.34585  0.63383  1.0000
  N   N36       1.0  0.5442500000000001  0.28582  0.57068  1.0000
  N   N37       1.0  0.45931000000000005  0.64525  0.55886  1.0000
  N   N38       1.0  0.49595  0.60909  0.59696  1.0000
  N   N39       1.0  0.51668  0.65428  0.63442  1.0000
  N   N40       1.0  0.45662  0.7147  0.57105  1.0000
  N   N41       1.0  0.14562000000000003  0.04066  0.05833  1.0000
  N   N42       1.0  0.10918000000000003  0.00429  0.09652  1.0000
  N   N43       1.0  0.15542  0.9835  0.13322  1.0000
  N   N44       1.0  0.21505000000000002  0.04501  0.07024  1.0000
  N   N45       1.0  0.8538700000000002  0.95919  0.05901  1.0000
  N   N46       1.0  0.89003  0.99584  0.09694  1.0000
  N   N47       1.0  0.84427  0.0172  0.13398  1.0000
  N   N48       1.0  0.7842200000000001  0.95615  0.0709  1.0000
  N   N49       1.0  0.9592500000000002  0.85475  0.94131  1.0000
  N   N50       1.0  0.9961000000000001  0.89093  0.90327  1.0000
  N   N51       1.0  0.01677  0.84584  0.8656999999999999  1.0000
  N   N52       1.0  0.9565000000000001  0.78544  0.9289000000000001  1.0000
  N   N53       1.0  0.040810000000000006  0.1451  0.94208  1.0000
  N   N54       1.0  0.00388  0.10835  0.90347  1.0000
  N   N55       1.0  0.9837000000000002  0.15407  0.86651  1.0000
  N   N56       1.0  0.04439  0.21407  0.92959  1.0000
  N   N57       1.0  0.35474  0.5407  0.44113  1.0000
  N   N58       1.0  0.3909  0.50403  0.40304  1.0000
  N   N59       1.0  0.34572  0.48332  0.36557  1.0000
  N   N60       1.0  0.28531  0.54339  0.42895  1.0000
  N   N61       1.0  0.64515  0.45922999999999997  0.44174  1.0000
  N   N62       1.0  0.60837  0.49616  0.4031  1.0000
  N   N63       1.0  0.6541200000000001  0.51639  0.36618  1.0000
  N   N64       1.0  0.71414  0.45573  0.42933  1.0000
  Cl  Cl1       1.0  0.50024  0.49974  0.5  1.0000
  Cl  Cl2       1.0  0.00014  0.00015  0.99984  1.0000
