data_image0
_chemical_formula_structural       Zn16H96C96N64
_chemical_formula_sum              "Zn16 H96 C96 N64"
_cell_length_a       15.68644
_cell_length_b       15.93755
_cell_length_c       18.42418
_cell_angle_alpha    89.99457000000001
_cell_angle_beta     89.99139999999998
_cell_angle_gamma    90.0

_space_group_name_H-M_alt    "P 1"
_space_group_IT_number       1

loop_
  _space_group_symop_operation_xyz
  'x, y, z'

loop_
  _atom_site_type_symbol
  _atom_site_label
  _atom_site_symmetry_multiplicity
  _atom_site_fract_x
  _atom_site_fract_y
  _atom_site_fract_z
  _atom_site_occupancy
  Zn  Zn1       1.0  0.69581  0.86067  0.40261  1.0000
  Zn  Zn2       1.0  0.5028300000000001  0.8350300000000003  0.68239  1.0000
  Zn  Zn3       1.0  0.8033100000000002  0.13937000000000005  0.9034200000000001  1.0000
  Zn  Zn4       1.0  0.9978900000000002  0.16501  0.18328000000000003  1.0000
  Zn  Zn5       1.0  0.30427  0.36064  0.09659  1.0000
  Zn  Zn6       1.0  0.4978  0.33512  0.81666  1.0000
  Zn  Zn7       1.0  0.19685000000000005  0.6392800000000002  0.59733  1.0000
  Zn  Zn8       1.0  0.00224  0.6650100000000002  0.31755  1.0000
  Zn  Zn9       1.0  0.30419  0.13932000000000005  0.59739  1.0000
  Zn  Zn10      1.0  0.49717  0.16497000000000006  0.3176  1.0000
  Zn  Zn11      1.0  0.19669  0.8606300000000002  0.09657000000000002  1.0000
  Zn  Zn12      1.0  0.00211  0.83499  0.8167200000000001  1.0000
  Zn  Zn13      1.0  0.6957300000000002  0.63935  0.9034100000000002  1.0000
  Zn  Zn14      1.0  0.5022  0.6648800000000002  0.18334  1.0000
  Zn  Zn15      1.0  0.8031400000000002  0.3607200000000001  0.40267  1.0000
  Zn  Zn16      1.0  0.99776  0.3349900000000001  0.68245  1.0000
  H   H1        1.0  0.88513  0.9477600000000003  0.42327  1.0000
  H   H2        1.0  0.02896  0.8550600000000003  0.38523  1.0000
  H   H3        1.0  0.64399  0.66525  0.4392400000000001  1.0000
  H   H4        1.0  0.73813  0.9516600000000002  0.25041  1.0000
  H   H5        1.0  0.7748  0.9417500000000002  0.5507300000000002  1.0000
  H   H6        1.0  0.54591  0.8113500000000002  0.51136  1.0000
  H   H7        1.0  0.68332  0.9276100000000003  0.67997  1.0000
  H   H8        1.0  0.5882800000000002  0.8220000000000002  0.26162  1.0000
  H   H9        1.0  0.55368  0.5739200000000002  0.33508  1.0000
  H   H10       1.0  0.63761  0.08619000000000003  0.20418000000000003  1.0000
  H   H11       1.0  0.56156  0.01264  0.41394  1.0000
  H   H12       1.0  0.8089100000000002  0.7114000000000003  0.34367  1.0000
  H   H13       1.0  0.61466  0.052510000000000015  0.9234100000000001  1.0000
  H   H14       1.0  0.47077  0.14505  0.88492  1.0000
  H   H15       1.0  0.8563000000000002  0.3348700000000001  0.93906  1.0000
  H   H16       1.0  0.7616700000000002  0.048570000000000016  0.7507  1.0000
  H   H17       1.0  0.72553  0.058290000000000015  0.05094  1.0000
  H   H18       1.0  0.9544500000000002  0.18868000000000004  0.01185  1.0000
  H   H19       1.0  0.8167600000000003  0.07238  0.18025  1.0000
  H   H20       1.0  0.9116700000000002  0.17784000000000005  0.76154  1.0000
  H   H21       1.0  0.94631  0.4259300000000001  0.8347100000000002  1.0000
  H   H22       1.0  0.8622200000000002  0.9142600000000002  0.70413  1.0000
  H   H23       1.0  0.93863  0.98726  0.9139200000000001  1.0000
  H   H24       1.0  0.69115  0.28861  0.84361  1.0000
  H   H25       1.0  0.11487000000000003  0.4475000000000001  0.07655  1.0000
  H   H26       1.0  0.97113  0.3550000000000001  0.11505  1.0000
  H   H27       1.0  0.3563900000000001  0.16506000000000007  0.06098  1.0000
  H   H28       1.0  0.2617  0.45129000000000014  0.24930000000000002  1.0000
  H   H29       1.0  0.22555  0.44163000000000013  0.94909  1.0000
  H   H30       1.0  0.45448  0.3112300000000001  0.98806  1.0000
  H   H31       1.0  0.31672  0.42762  0.81972  1.0000
  H   H32       1.0  0.4116300000000001  0.3220400000000001  0.23847  1.0000
  H   H33       1.0  0.44635000000000014  0.07386000000000002  0.16537  1.0000
  H   H34       1.0  0.36208  0.5857900000000003  0.29588000000000003  1.0000
  H   H35       1.0  0.4387000000000001  0.51278  0.08608  1.0000
  H   H36       1.0  0.19129000000000004  0.21130000000000004  0.1564  1.0000
  H   H37       1.0  0.3852500000000001  0.55236  0.57678  1.0000
  H   H38       1.0  0.52932  0.6449700000000003  0.61477  1.0000
  H   H39       1.0  0.14401  0.8347900000000003  0.5607700000000001  1.0000
  H   H40       1.0  0.23815000000000006  0.5483500000000002  0.74963  1.0000
  H   H41       1.0  0.2747700000000001  0.5583000000000002  0.44922000000000006  1.0000
  H   H42       1.0  0.0459  0.6886400000000003  0.48867  1.0000
  H   H43       1.0  0.18325  0.5723300000000002  0.32003  1.0000
  H   H44       1.0  0.0883  0.6780000000000003  0.73835  1.0000
  H   H45       1.0  0.05368  0.9260000000000003  0.66487  1.0000
  H   H46       1.0  0.13755  0.4138600000000001  0.7958000000000001  1.0000
  H   H47       1.0  0.06150000000000001  0.4874900000000001  0.58603  1.0000
  H   H48       1.0  0.30907  0.7886600000000002  0.65632  1.0000
  H   H49       1.0  0.11486  0.052240000000000016  0.5767300000000001  1.0000
  H   H50       1.0  0.97104  0.14494  0.61476  1.0000
  H   H51       1.0  0.3560100000000001  0.3347500000000001  0.56076  1.0000
  H   H52       1.0  0.26187  0.04834  0.74959  1.0000
  H   H53       1.0  0.22520000000000007  0.05825000000000002  0.44926000000000005  1.0000
  H   H54       1.0  0.45409  0.18865000000000007  0.48864  1.0000
  H   H55       1.0  0.31668000000000013  0.07239000000000002  0.32002  1.0000
  H   H56       1.0  0.4117200000000001  0.178  0.73838  1.0000
  H   H57       1.0  0.44631  0.4260800000000001  0.66492  1.0000
  H   H58       1.0  0.36239  0.9138100000000002  0.79582  1.0000
  H   H59       1.0  0.43844  0.9873600000000002  0.58606  1.0000
  H   H60       1.0  0.19109000000000007  0.28860000000000013  0.65632  1.0000
  H   H61       1.0  0.3853400000000001  0.9474900000000003  0.07659  1.0000
  H   H62       1.0  0.52923  0.8549500000000002  0.11506999999999999  1.0000
  H   H63       1.0  0.1437  0.66513  0.06094000000000001  1.0000
  H   H64       1.0  0.23832  0.9514300000000002  0.24930000000000002  1.0000
  H   H65       1.0  0.2744700000000001  0.9417100000000003  0.9490500000000001  1.0000
  H   H66       1.0  0.04555  0.8113100000000002  0.98815  1.0000
  H   H67       1.0  0.18324  0.9276200000000002  0.81974  1.0000
  H   H68       1.0  0.08833000000000003  0.8221600000000002  0.23846  1.0000
  H   H69       1.0  0.05368  0.57406  0.16528  1.0000
  H   H70       1.0  0.13778  0.08574000000000002  0.29587  1.0000
  H   H71       1.0  0.061370000000000015  0.012740000000000003  0.08608  1.0000
  H   H72       1.0  0.30885  0.7113900000000002  0.15638  1.0000
  H   H73       1.0  0.88513  0.5525000000000002  0.92345  1.0000
  H   H74       1.0  0.02887  0.645  0.88495  1.0000
  H   H75       1.0  0.64361  0.8349400000000002  0.9390200000000001  1.0000
  H   H76       1.0  0.7383000000000002  0.54871  0.7507  1.0000
  H   H77       1.0  0.77444  0.55837  0.05091  1.0000
  H   H78       1.0  0.54552  0.6887700000000002  0.01194  1.0000
  H   H79       1.0  0.68328  0.57238  0.18028  1.0000
  H   H80       1.0  0.58837  0.67796  0.7615200000000002  1.0000
  H   H81       1.0  0.55365  0.9261400000000002  0.83462  1.0000
  H   H82       1.0  0.63792  0.41421  0.7041200000000001  1.0000
  H   H83       1.0  0.5613  0.4872200000000001  0.9139200000000001  1.0000
  H   H84       1.0  0.8087100000000003  0.7887  0.8436  1.0000
  H   H85       1.0  0.6147400000000002  0.44764  0.42322  1.0000
  H   H86       1.0  0.47068  0.35503  0.38522  1.0000
  H   H87       1.0  0.85599  0.16521  0.43922999999999995  1.0000
  H   H88       1.0  0.7618500000000001  0.4516400000000001  0.25037  1.0000
  H   H89       1.0  0.7252200000000002  0.4417  0.55078  1.0000
  H   H90       1.0  0.9541000000000002  0.31136  0.5113200000000001  1.0000
  H   H91       1.0  0.8167500000000002  0.42767  0.67997  1.0000
  H   H92       1.0  0.9117000000000002  0.322  0.26165  1.0000
  H   H93       1.0  0.94631  0.07399000000000003  0.33512  1.0000
  H   H94       1.0  0.86245  0.5861400000000002  0.20419  1.0000
  H   H95       1.0  0.9385  0.51251  0.41397  1.0000
  H   H96       1.0  0.6909300000000003  0.21134000000000006  0.34368  1.0000
  C   C1        1.0  0.89068  0.8850500000000002  0.4011100000000001  1.0000
  C   C2        1.0  0.96189  0.8392300000000003  0.38228  1.0000
  C   C3        1.0  0.6189500000000002  0.68381  0.38688  1.0000
  C   C4        1.0  0.68659  0.9845700000000002  0.27713  1.0000
  C   C5        1.0  0.7135700000000003  0.9132000000000002  0.56169  1.0000
  C   C6        1.0  0.5955400000000002  0.8455900000000002  0.5396  1.0000
  C   C7        1.0  0.6684400000000003  0.9064400000000002  0.62559  1.0000
  C   C8        1.0  0.59104  0.7665500000000002  0.29566  1.0000
  C   C9        1.0  0.57439  0.6387400000000002  0.33551  1.0000
  C   C10       1.0  0.63656  0.050650000000000014  0.25423  1.0000
  C   C11       1.0  0.59599  0.014410000000000003  0.36298  1.0000
  C   C12       1.0  0.8491700000000002  0.7633300000000002  0.36023  1.0000
  C   C13       1.0  0.60892  0.11519  0.9011700000000001  1.0000
  C   C14       1.0  0.5378000000000002  0.16094  0.88199  1.0000
  C   C15       1.0  0.8811  0.31612  0.88667  1.0000
  C   C16       1.0  0.8132  0.015620000000000002  0.77741  1.0000
  C   C17       1.0  0.78671  0.08684000000000003  0.06203  1.0000
  C   C18       1.0  0.9047700000000002  0.15444  0.04001  1.0000
  C   C19       1.0  0.83181  0.09359000000000003  0.12594  1.0000
  C   C20       1.0  0.9089  0.23324  0.79561  1.0000
  C   C21       1.0  0.9257500000000002  0.3610600000000001  0.8352400000000001  1.0000
  C   C22       1.0  0.8633300000000003  0.9497600000000003  0.75423  1.0000
  C   C23       1.0  0.9040000000000002  0.9857200000000003  0.8630400000000001  1.0000
  C   C24       1.0  0.6506100000000002  0.23684000000000005  0.86009  1.0000
  C   C25       1.0  0.10937  0.3848200000000001  0.0988  1.0000
  C   C26       1.0  0.03821  0.3391200000000001  0.11797  1.0000
  C   C27       1.0  0.3813  0.18373000000000006  0.11334000000000001  1.0000
  C   C28       1.0  0.31329  0.4842700000000001  0.22265  1.0000
  C   C29       1.0  0.2867500000000001  0.4131200000000001  0.93797  1.0000
  C   C30       1.0  0.40485  0.3455100000000001  0.95986  1.0000
  C   C31       1.0  0.3318  0.4063900000000001  0.87403  1.0000
  C   C32       1.0  0.40893  0.2665800000000001  0.20447  1.0000
  C   C33       1.0  0.42567  0.13871  0.16487  1.0000
  C   C34       1.0  0.3632100000000001  0.55029  0.24577  1.0000
  C   C35       1.0  0.40409  0.51434  0.13699  1.0000
  C   C36       1.0  0.15098  0.26321  0.13987  1.0000
  C   C37       1.0  0.39109000000000005  0.6150600000000003  0.59894  1.0000
  C   C38       1.0  0.46228000000000014  0.6608800000000002  0.61775  1.0000
  C   C39       1.0  0.11909000000000003  0.8161400000000002  0.61312  1.0000
  C   C40       1.0  0.18663000000000005  0.51546  0.72284  1.0000
  C   C41       1.0  0.21356  0.58686  0.43825  1.0000
  C   C42       1.0  0.09554  0.65442  0.46044  1.0000
  C   C43       1.0  0.16833  0.59353  0.3744  1.0000
  C   C44       1.0  0.09113  0.73337  0.70424  1.0000
  C   C45       1.0  0.07433  0.8611500000000002  0.66443  1.0000
  C   C46       1.0  0.13651000000000002  0.4494900000000001  0.74577  1.0000
  C   C47       1.0  0.09598000000000002  0.48581000000000013  0.63699  1.0000
  C   C48       1.0  0.3495700000000001  0.7368600000000002  0.63982  1.0000
  C   C49       1.0  0.10932  0.11495  0.59889  1.0000
  C   C50       1.0  0.03811000000000001  0.16077  0.61772  1.0000
  C   C51       1.0  0.3810500000000001  0.31619000000000014  0.61312  1.0000
  C   C52       1.0  0.31341000000000013  0.015420000000000003  0.72286  1.0000
  C   C53       1.0  0.28643  0.08680000000000003  0.43831  1.0000
  C   C54       1.0  0.4044600000000001  0.15441  0.4604  1.0000
  C   C55       1.0  0.33156000000000013  0.09356000000000003  0.3744  1.0000
  C   C56       1.0  0.4089600000000001  0.23344000000000004  0.70433  1.0000
  C   C57       1.0  0.42561  0.36126  0.66449  1.0000
  C   C58       1.0  0.36344  0.9493500000000002  0.74577  1.0000
  C   C59       1.0  0.40401  0.9855900000000002  0.6370200000000001  1.0000
  C   C60       1.0  0.15083  0.23667000000000005  0.63977  1.0000
  C   C61       1.0  0.39108  0.8848100000000002  0.09883  1.0000
  C   C62       1.0  0.4621900000000001  0.83905  0.118  1.0000
  C   C63       1.0  0.11890000000000003  0.6838800000000003  0.11332  1.0000
  C   C64       1.0  0.1868  0.9843700000000002  0.22259000000000004  1.0000
  C   C65       1.0  0.21329000000000004  0.91316  0.93797  1.0000
  C   C66       1.0  0.09523  0.8455500000000002  0.9599900000000001  1.0000
  C   C67       1.0  0.16819  0.9064100000000003  0.87406  1.0000
  C   C68       1.0  0.09109000000000003  0.76676  0.20439  1.0000
  C   C69       1.0  0.07425000000000002  0.6389400000000002  0.16476  1.0000
  C   C70       1.0  0.13667  0.05023000000000001  0.24577  1.0000
  C   C71       1.0  0.09599  0.014280000000000003  0.13696  1.0000
  C   C72       1.0  0.3493900000000001  0.7631600000000002  0.1399  1.0000
  C   C73       1.0  0.8906300000000003  0.61517  0.9012000000000001  1.0000
  C   C74       1.0  0.9617900000000003  0.6608800000000002  0.8820300000000001  1.0000
  C   C75       1.0  0.6187  0.8162700000000003  0.88666  1.0000
  C   C76       1.0  0.6867100000000003  0.51572  0.7773500000000002  1.0000
  C   C77       1.0  0.71325  0.58688  0.06203  1.0000
  C   C78       1.0  0.5951500000000002  0.6544900000000002  0.04013  1.0000
  C   C79       1.0  0.6682  0.5936100000000002  0.12597  1.0000
  C   C80       1.0  0.59107  0.7334200000000002  0.79552  1.0000
  C   C81       1.0  0.57432  0.8612900000000002  0.83513  1.0000
  C   C82       1.0  0.6367900000000002  0.4497100000000001  0.75422  1.0000
  C   C83       1.0  0.59591  0.48566  0.8630100000000002  1.0000
  C   C84       1.0  0.8490100000000003  0.73679  0.86013  1.0000
  C   C85       1.0  0.60891  0.3849400000000001  0.40106  1.0000
  C   C86       1.0  0.53772  0.3391200000000001  0.38225  1.0000
  C   C87       1.0  0.88091  0.18386000000000005  0.38687  1.0000
  C   C88       1.0  0.81337  0.48454000000000014  0.2771600000000001  1.0000
  C   C89       1.0  0.7864400000000002  0.41314  0.56175  1.0000
  C   C90       1.0  0.9044500000000002  0.34558  0.53955  1.0000
  C   C91       1.0  0.83167  0.4064700000000001  0.6256  1.0000
  C   C92       1.0  0.9088600000000002  0.26663  0.29575  1.0000
  C   C93       1.0  0.9256700000000001  0.13885  0.33557  1.0000
  C   C94       1.0  0.86348  0.5505100000000003  0.25423  1.0000
  C   C95       1.0  0.9040100000000002  0.5141900000000003  0.36301  1.0000
  C   C96       1.0  0.6504200000000002  0.2631400000000001  0.36017  1.0000
  N   N1        1.0  0.81935  0.8365000000000002  0.38693  1.0000
  N   N2        1.0  0.62926  0.76484  0.3612  1.0000
  N   N3        1.0  0.66053  0.9620800000000003  0.34623  1.0000
  N   N4        1.0  0.6669300000000002  0.8745600000000002  0.50731  1.0000
  N   N5        1.0  0.59368  0.8635100000000002  0.61111  1.0000
  N   N6        1.0  0.55675  0.6917700000000002  0.2779  1.0000
  N   N7        1.0  0.57919  0.06927  0.30908  1.0000
  N   N8        1.0  0.93501  0.7621600000000002  0.35621  1.0000
  N   N9        1.0  0.68023  0.16374  0.88711  1.0000
  N   N10       1.0  0.87057  0.23502  0.86116  1.0000
  N   N11       1.0  0.83929  0.03798  0.84657  1.0000
  N   N12       1.0  0.83336  0.12553  0.00769  1.0000
  N   N13       1.0  0.9066  0.13654000000000005  0.11155  1.0000
  N   N14       1.0  0.94341  0.3079400000000001  0.7776800000000001  1.0000
  N   N15       1.0  0.92084  0.9311100000000002  0.8089400000000002  1.0000
  N   N16       1.0  0.56478  0.23796000000000006  0.85578  1.0000
  N   N17       1.0  0.18075  0.33628000000000013  0.11285000000000002  1.0000
  N   N18       1.0  0.37091  0.26484000000000013  0.13882000000000003  1.0000
  N   N19       1.0  0.33949000000000007  0.4619600000000001  0.15351000000000004  1.0000
  N   N20       1.0  0.33351  0.37447000000000014  0.9922500000000001  1.0000
  N   N21       1.0  0.4066  0.3634300000000001  0.88834  1.0000
  N   N22       1.0  0.44315  0.1918  0.22247000000000003  1.0000
  N   N23       1.0  0.42068  0.5690500000000002  0.19104  1.0000
  N   N24       1.0  0.06514000000000003  0.2621100000000001  0.1442  1.0000
  N   N25       1.0  0.31986  0.66366  0.61314  1.0000
  N   N26       1.0  0.12959  0.7351000000000002  0.6387800000000001  1.0000
  N   N27       1.0  0.16063  0.5380200000000003  0.65373  1.0000
  N   N28       1.0  0.16702000000000006  0.62553  0.49268  1.0000
  N   N29       1.0  0.09357  0.6364800000000003  0.38891  1.0000
  N   N30       1.0  0.05660000000000001  0.8080800000000002  0.72199  1.0000
  N   N31       1.0  0.07912000000000002  0.4310000000000001  0.6909200000000001  1.0000
  N   N32       1.0  0.4354200000000001  0.7379800000000002  0.64382  1.0000
  N   N33       1.0  0.18065  0.16350000000000006  0.61307  1.0000
  N   N34       1.0  0.37074  0.23516000000000006  0.63879  1.0000
  N   N35       1.0  0.33947  0.037920000000000016  0.65376  1.0000
  N   N36       1.0  0.3330700000000001  0.12544  0.49269  1.0000
  N   N37       1.0  0.40632  0.13649000000000006  0.38889000000000007  1.0000
  N   N38       1.0  0.44325  0.3082300000000001  0.7221  1.0000
  N   N39       1.0  0.42081  0.9307300000000002  0.69091  1.0000
  N   N40       1.0  0.06499  0.23784000000000005  0.64379  1.0000
  N   N41       1.0  0.31977  0.8362500000000003  0.11289  1.0000
  N   N42       1.0  0.12943  0.7649800000000002  0.13883  1.0000
  N   N43       1.0  0.1607  0.9620100000000003  0.15343  1.0000
  N   N44       1.0  0.16664000000000007  0.87447  0.9923000000000001  1.0000
  N   N45       1.0  0.0934  0.8634600000000002  0.8884500000000001  1.0000
  N   N46       1.0  0.05658  0.69206  0.22231  1.0000
  N   N47       1.0  0.07916  0.06889  0.19106  1.0000
  N   N48       1.0  0.4352200000000001  0.7620400000000003  0.14422  1.0000
  N   N49       1.0  0.8192500000000003  0.6637200000000002  0.8871500000000001  1.0000
  N   N50       1.0  0.62909  0.7351600000000003  0.8611800000000002  1.0000
  N   N51       1.0  0.66051  0.5380300000000002  0.8464800000000001  1.0000
  N   N52       1.0  0.66649  0.62553  0.007740000000000001  1.0000
  N   N53       1.0  0.5934  0.6365700000000002  0.11166  1.0000
  N   N54       1.0  0.55685  0.8081900000000002  0.77753  1.0000
  N   N55       1.0  0.57931  0.4309400000000001  0.80895  1.0000
  N   N56       1.0  0.93486  0.7378800000000002  0.8558  1.0000
  N   N57       1.0  0.6801300000000001  0.3363400000000001  0.38686000000000004  1.0000
  N   N58       1.0  0.87041  0.26490000000000014  0.36122  1.0000
  N   N59       1.0  0.8393700000000002  0.4619700000000001  0.34627  1.0000
  N   N60       1.0  0.83298  0.3744600000000001  0.50732  1.0000
  N   N61       1.0  0.90643  0.36352  0.61109  1.0000
  N   N62       1.0  0.9434000000000002  0.19192000000000006  0.27801  1.0000
  N   N63       1.0  0.9208800000000003  0.569  0.30908  1.0000
  N   N64       1.0  0.56458  0.26202  0.35617  1.0000
