data_image0
_chemical_formula_structural       In12H12C96O60F48
_chemical_formula_sum              "In12 H12 C96 O60 F48"
_cell_length_a       14.17939
_cell_length_b       17.09421
_cell_length_c       21.83642
_cell_angle_alpha    90.0
_cell_angle_beta     90.0
_cell_angle_gamma    90.0

_symmetry_space_group_name_H-M    'P 1'
_symmetry_Int_Tables_number       1

loop_
  _symmetry_equiv_pos_as_xyz
  'x,y,z'

loop_
  _atom_site_type_symbol
  _atom_site_label
  _atom_site_symmetry_multiplicity
  _atom_site_fract_x
  _atom_site_fract_y
  _atom_site_fract_z
  _atom_site_occupancy
  In  In1       1.0  0.75091  0.24967  0.08378000000000001  1.0000
  In  In2       1.0  0.75091  0.25033  0.91622  1.0000
  In  In3       1.0  0.74909  0.25033  0.58378  1.0000
  In  In4       1.0  0.74909  0.24967  0.4162200000000001  1.0000
  In  In5       1.0  0.24909  0.7503299999999999  0.91622  1.0000
  In  In6       1.0  0.24909  0.74967  0.08378000000000001  1.0000
  In  In7       1.0  0.25091  0.74967  0.4162200000000001  1.0000
  In  In8       1.0  0.25091  0.7503299999999999  0.58378  1.0000
  In  In9       1.0  0.75  0.25083  0.25  1.0000
  In  In10      1.0  0.75  0.24918000000000004  0.75  1.0000
  In  In11      1.0  0.25  0.74918  0.75  1.0000
  In  In12      1.0  0.25  0.75083  0.25  1.0000
  H   H1        1.0  0.8791500000000002  0.2894  0.16729000000000002  1.0000
  H   H2        1.0  0.8791500000000002  0.21061  0.8327100000000001  1.0000
  H   H3        1.0  0.62085  0.21061  0.6672900000000002  1.0000
  H   H4        1.0  0.62085  0.2894  0.33271  1.0000
  H   H5        1.0  0.12085  0.71061  0.8327100000000001  1.0000
  H   H6        1.0  0.12085  0.7894  0.16729000000000002  1.0000
  H   H7        1.0  0.37915  0.7894  0.33271  1.0000
  H   H8        1.0  0.37915  0.71061  0.6672900000000002  1.0000
  H   H9        1.0  0.6077100000000001  0.25  0.0  1.0000
  H   H10       1.0  0.89229  0.25  0.5  1.0000
  H   H11       1.0  0.39229  0.7499999999999999  0.0  1.0000
  H   H12       1.0  0.10771  0.7499999999999999  0.5  1.0000
  C   C1        1.0  0.6169300000000001  0.35909  0.16876  1.0000
  C   C2        1.0  0.54728  0.42528  0.16667000000000004  1.0000
  C   C3        1.0  0.48439  0.43908  0.21519000000000005  1.0000
  C   C4        1.0  0.42298000000000013  0.50296  0.21403  1.0000
  C   C5        1.0  0.42259  0.55596  0.16474  1.0000
  C   C6        1.0  0.4848300000000001  0.54165  0.11599000000000002  1.0000
  C   C7        1.0  0.54543  0.47735  0.11695000000000001  1.0000
  C   C8        1.0  0.35853  0.62604  0.16405  1.0000
  C   C9        1.0  0.8724300000000003  0.13488  0.9949  1.0000
  C   C10       1.0  0.93861  0.06621  0.99787  1.0000
  C   C11       1.0  0.93976  0.01613  0.04884  1.0000
  C   C12       1.0  0.9998100000000001  0.9515000000000001  0.05058000000000001  1.0000
  C   C13       1.0  0.6169300000000001  0.14091  0.83124  1.0000
  C   C14       1.0  0.54728  0.07473  0.83333  1.0000
  C   C15       1.0  0.48439  0.06092  0.7848100000000001  1.0000
  C   C16       1.0  0.42298000000000013  0.9970500000000001  0.78597  1.0000
  C   C17       1.0  0.42259  0.94405  0.83526  1.0000
  C   C18       1.0  0.4848300000000001  0.9583499999999999  0.88401  1.0000
  C   C19       1.0  0.54543  0.02265  0.88305  1.0000
  C   C20       1.0  0.35853  0.87397  0.8359500000000001  1.0000
  C   C21       1.0  0.8724300000000003  0.36512  0.0051  1.0000
  C   C22       1.0  0.93861  0.43379  0.00213  1.0000
  C   C23       1.0  0.93976  0.4838700000000001  0.95116  1.0000
  C   C24       1.0  0.9998100000000001  0.5485  0.9494200000000002  1.0000
  C   C25       1.0  0.88307  0.14091  0.66876  1.0000
  C   C26       1.0  0.95272  0.07473  0.66667  1.0000
  C   C27       1.0  0.01561  0.06092  0.71519  1.0000
  C   C28       1.0  0.07702  0.9970500000000001  0.71403  1.0000
  C   C29       1.0  0.07741  0.94405  0.66474  1.0000
  C   C30       1.0  0.015170000000000003  0.9583499999999999  0.61599  1.0000
  C   C31       1.0  0.95457  0.02265  0.6169500000000001  1.0000
  C   C32       1.0  0.14147000000000004  0.87396  0.6640500000000001  1.0000
  C   C33       1.0  0.62757  0.36512  0.49491  1.0000
  C   C34       1.0  0.56139  0.43379  0.4978700000000001  1.0000
  C   C35       1.0  0.56024  0.4838700000000001  0.54884  1.0000
  C   C36       1.0  0.50019  0.5485  0.55058  1.0000
  C   C37       1.0  0.88307  0.35909  0.33124  1.0000
  C   C38       1.0  0.95272  0.42528  0.33333000000000007  1.0000
  C   C39       1.0  0.01561  0.43908  0.28481  1.0000
  C   C40       1.0  0.07702  0.50296  0.28597000000000006  1.0000
  C   C41       1.0  0.07741  0.55596  0.33526  1.0000
  C   C42       1.0  0.015170000000000003  0.54165  0.38401  1.0000
  C   C43       1.0  0.95457  0.47735  0.38305  1.0000
  C   C44       1.0  0.14147000000000004  0.62604  0.33595  1.0000
  C   C45       1.0  0.62757  0.13488  0.50509  1.0000
  C   C46       1.0  0.56139  0.06621  0.50213  1.0000
  C   C47       1.0  0.56024  0.01613  0.45116  1.0000
  C   C48       1.0  0.50019  0.9515000000000001  0.44942  1.0000
  C   C49       1.0  0.38307  0.64091  0.83124  1.0000
  C   C50       1.0  0.45272  0.57473  0.83333  1.0000
  C   C51       1.0  0.51561  0.56093  0.7848100000000001  1.0000
  C   C52       1.0  0.57702  0.49704999999999994  0.78597  1.0000
  C   C53       1.0  0.57741  0.44405  0.83526  1.0000
  C   C54       1.0  0.51517  0.45835  0.88401  1.0000
  C   C55       1.0  0.45457  0.52265  0.88305  1.0000
  C   C56       1.0  0.64147  0.37396  0.8359500000000001  1.0000
  C   C57       1.0  0.12757  0.86512  0.0051  1.0000
  C   C58       1.0  0.06139  0.9338  0.00213  1.0000
  C   C59       1.0  0.06024  0.9838699999999999  0.95116  1.0000
  C   C60       1.0  0.00019000000000000004  0.0485  0.9494200000000002  1.0000
  C   C61       1.0  0.38307  0.85909  0.16876  1.0000
  C   C62       1.0  0.45272  0.92528  0.16667000000000004  1.0000
  C   C63       1.0  0.51561  0.9390799999999999  0.21519000000000005  1.0000
  C   C64       1.0  0.57702  0.00295  0.21403  1.0000
  C   C65       1.0  0.57741  0.05596  0.16474  1.0000
  C   C66       1.0  0.51517  0.04164999999999999  0.11599000000000002  1.0000
  C   C67       1.0  0.45457  0.97735  0.11695000000000001  1.0000
  C   C68       1.0  0.64147  0.12604  0.16405  1.0000
  C   C69       1.0  0.12757  0.63488  0.9949  1.0000
  C   C70       1.0  0.06139  0.56621  0.99787  1.0000
  C   C71       1.0  0.06024  0.51613  0.04884  1.0000
  C   C72       1.0  0.00019000000000000004  0.4515  0.05058000000000001  1.0000
  C   C73       1.0  0.11693  0.85909  0.33124  1.0000
  C   C74       1.0  0.04728  0.92528  0.33333000000000007  1.0000
  C   C75       1.0  0.9843900000000002  0.9390799999999999  0.28481  1.0000
  C   C76       1.0  0.92298  0.00295  0.28597000000000006  1.0000
  C   C77       1.0  0.92259  0.05596  0.33526  1.0000
  C   C78       1.0  0.98483  0.04164999999999999  0.38401  1.0000
  C   C79       1.0  0.04543  0.97735  0.38305  1.0000
  C   C80       1.0  0.85853  0.12604  0.33595  1.0000
  C   C81       1.0  0.37243  0.63488  0.50509  1.0000
  C   C82       1.0  0.43861  0.56621  0.50213  1.0000
  C   C83       1.0  0.43976  0.51613  0.45116  1.0000
  C   C84       1.0  0.49981  0.4515  0.44942  1.0000
  C   C85       1.0  0.11693  0.64091  0.66876  1.0000
  C   C86       1.0  0.04728  0.57473  0.66667  1.0000
  C   C87       1.0  0.9843900000000002  0.56093  0.71519  1.0000
  C   C88       1.0  0.92298  0.49704999999999994  0.71403  1.0000
  C   C89       1.0  0.92259  0.44405  0.66474  1.0000
  C   C90       1.0  0.98483  0.45835  0.61599  1.0000
  C   C91       1.0  0.04543  0.52265  0.6169500000000001  1.0000
  C   C92       1.0  0.85853  0.37396  0.6640500000000001  1.0000
  C   C93       1.0  0.37243  0.86512  0.49491  1.0000
  C   C94       1.0  0.43861  0.9338  0.4978700000000001  1.0000
  C   C95       1.0  0.43976  0.9838699999999999  0.54884  1.0000
  C   C96       1.0  0.49981  0.0485  0.55058  1.0000
  O   O1        1.0  0.65288  0.34527  0.22104000000000001  1.0000
  O   O2        1.0  0.63332  0.32434  0.11847  1.0000
  O   O3        1.0  0.34782  0.66149  0.21475  1.0000
  O   O4        1.0  0.32302  0.64291  0.11229000000000001  1.0000
  O   O5        1.0  0.86224  0.17386  0.04385  1.0000
  O   O6        1.0  0.83344  0.14666  0.9430800000000003  1.0000
  O   O7        1.0  0.82906  0.25031  0.16691  1.0000
  O   O8        1.0  0.65288  0.15473  0.77896  1.0000
  O   O9        1.0  0.63332  0.17567  0.88153  1.0000
  O   O10       1.0  0.34782  0.83851  0.7852500000000002  1.0000
  O   O11       1.0  0.32302  0.85709  0.8877100000000001  1.0000
  O   O12       1.0  0.86224  0.32614  0.95615  1.0000
  O   O13       1.0  0.83344  0.35334  0.05692  1.0000
  O   O14       1.0  0.82906  0.24969  0.8330900000000001  1.0000
  O   O15       1.0  0.8471200000000001  0.15473  0.72104  1.0000
  O   O16       1.0  0.86668  0.17567  0.61847  1.0000
  O   O17       1.0  0.15218  0.83851  0.71475  1.0000
  O   O18       1.0  0.17698  0.85709  0.6122900000000001  1.0000
  O   O19       1.0  0.63775  0.32614  0.54385  1.0000
  O   O20       1.0  0.66656  0.35334  0.44308  1.0000
  O   O21       1.0  0.67094  0.24969  0.66691  1.0000
  O   O22       1.0  0.8471200000000001  0.34527  0.27896000000000004  1.0000
  O   O23       1.0  0.86668  0.32434  0.38153  1.0000
  O   O24       1.0  0.15218  0.6615  0.28525000000000006  1.0000
  O   O25       1.0  0.17698  0.64291  0.38771  1.0000
  O   O26       1.0  0.63775  0.17386  0.45615  1.0000
  O   O27       1.0  0.66656  0.14666  0.55692  1.0000
  O   O28       1.0  0.67094  0.25031  0.33309  1.0000
  O   O29       1.0  0.34712  0.65473  0.77896  1.0000
  O   O30       1.0  0.36668  0.67567  0.88153  1.0000
  O   O31       1.0  0.65218  0.33851  0.7852500000000002  1.0000
  O   O32       1.0  0.67698  0.35709  0.8877100000000001  1.0000
  O   O33       1.0  0.13776  0.82615  0.95615  1.0000
  O   O34       1.0  0.16656000000000004  0.85335  0.05692  1.0000
  O   O35       1.0  0.17094  0.7497  0.8330900000000001  1.0000
  O   O36       1.0  0.34712  0.84527  0.22104000000000001  1.0000
  O   O37       1.0  0.36668  0.82434  0.11847  1.0000
  O   O38       1.0  0.65218  0.16149  0.21475  1.0000
  O   O39       1.0  0.67698  0.14291  0.11229000000000001  1.0000
  O   O40       1.0  0.13776  0.67386  0.04385  1.0000
  O   O41       1.0  0.16656000000000004  0.64666  0.9430800000000003  1.0000
  O   O42       1.0  0.17094  0.75031  0.16691  1.0000
  O   O43       1.0  0.15288  0.84527  0.27896000000000004  1.0000
  O   O44       1.0  0.13332  0.82434  0.38153  1.0000
  O   O45       1.0  0.8478200000000002  0.1615  0.28525000000000006  1.0000
  O   O46       1.0  0.82302  0.14291  0.38771  1.0000
  O   O47       1.0  0.36225  0.67386  0.45615  1.0000
  O   O48       1.0  0.3334400000000001  0.64666  0.55692  1.0000
  O   O49       1.0  0.32906  0.75031  0.33309  1.0000
  O   O50       1.0  0.15288  0.65473  0.72104  1.0000
  O   O51       1.0  0.13332  0.67567  0.61847  1.0000
  O   O52       1.0  0.8478200000000002  0.33851  0.71475  1.0000
  O   O53       1.0  0.82302  0.35709  0.6122900000000001  1.0000
  O   O54       1.0  0.36225  0.82615  0.54385  1.0000
  O   O55       1.0  0.3334400000000001  0.85335  0.44308  1.0000
  O   O56       1.0  0.32906  0.7497  0.66691  1.0000
  O   O57       1.0  0.67619  0.25  0.0  1.0000
  O   O58       1.0  0.8238100000000003  0.25  0.5  1.0000
  O   O59       1.0  0.32381  0.7499999999999999  0.0  1.0000
  O   O60       1.0  0.17619  0.7499999999999999  0.5  1.0000
  F   F1        1.0  0.48072  0.38941  0.26336  1.0000
  F   F2        1.0  0.36198  0.51187  0.26073  1.0000
  F   F3        1.0  0.49047  0.59094  0.06771  1.0000
  F   F4        1.0  0.60493  0.4682799999999999  0.0695  1.0000
  F   F5        1.0  0.88124  0.02773  0.09670000000000001  1.0000
  F   F6        1.0  0.99521  0.9046  0.10013  1.0000
  F   F7        1.0  0.48072  0.11059  0.7366400000000001  1.0000
  F   F8        1.0  0.36198  0.9881400000000001  0.7392700000000002  1.0000
  F   F9        1.0  0.49047  0.90907  0.93229  1.0000
  F   F10       1.0  0.60493  0.03172  0.9305000000000001  1.0000
  F   F11       1.0  0.88124  0.47227  0.9033  1.0000
  F   F12       1.0  0.99521  0.59541  0.8998700000000001  1.0000
  F   F13       1.0  0.019280000000000002  0.11059  0.7633600000000001  1.0000
  F   F14       1.0  0.13802  0.9881400000000001  0.7607300000000001  1.0000
  F   F15       1.0  0.00953  0.90907  0.56771  1.0000
  F   F16       1.0  0.89507  0.03172  0.5695  1.0000
  F   F17       1.0  0.6187600000000001  0.47227  0.5967000000000001  1.0000
  F   F18       1.0  0.50479  0.5954  0.6001300000000002  1.0000
  F   F19       1.0  0.019280000000000002  0.38941  0.23664000000000004  1.0000
  F   F20       1.0  0.13802  0.51187  0.23927  1.0000
  F   F21       1.0  0.00953  0.59094  0.43229000000000006  1.0000
  F   F22       1.0  0.89507  0.4682799999999999  0.43050000000000005  1.0000
  F   F23       1.0  0.6187600000000001  0.02773  0.4033  1.0000
  F   F24       1.0  0.50479  0.9046  0.39987  1.0000
  F   F25       1.0  0.51928  0.6106  0.7366400000000001  1.0000
  F   F26       1.0  0.63802  0.48813  0.7392700000000002  1.0000
  F   F27       1.0  0.50953  0.40907  0.93229  1.0000
  F   F28       1.0  0.39507  0.53172  0.9305000000000001  1.0000
  F   F29       1.0  0.11876  0.97228  0.9033  1.0000
  F   F30       1.0  0.00479  0.0954  0.8998700000000001  1.0000
  F   F31       1.0  0.51928  0.88941  0.26336  1.0000
  F   F32       1.0  0.63802  0.01187  0.26073  1.0000
  F   F33       1.0  0.50953  0.09094  0.06771  1.0000
  F   F34       1.0  0.39507  0.9682900000000001  0.0695  1.0000
  F   F35       1.0  0.11876  0.52773  0.09670000000000001  1.0000
  F   F36       1.0  0.00479  0.4046  0.10013  1.0000
  F   F37       1.0  0.9807200000000003  0.88941  0.23664000000000004  1.0000
  F   F38       1.0  0.86198  0.01187  0.23927  1.0000
  F   F39       1.0  0.9904700000000001  0.09094  0.43229000000000006  1.0000
  F   F40       1.0  0.10493  0.9682900000000001  0.43050000000000005  1.0000
  F   F41       1.0  0.38124  0.52773  0.4033  1.0000
  F   F42       1.0  0.49521  0.4046  0.39987  1.0000
  F   F43       1.0  0.9807200000000003  0.6106  0.7633600000000001  1.0000
  F   F44       1.0  0.86198  0.48813  0.7607300000000001  1.0000
  F   F45       1.0  0.9904700000000001  0.40907  0.56771  1.0000
  F   F46       1.0  0.10493  0.53172  0.5695  1.0000
  F   F47       1.0  0.38124  0.97228  0.5967000000000001  1.0000
  F   F48       1.0  0.49521  0.0954  0.6001300000000002  1.0000
