data_image0
_chemical_formula_structural       Cd8H96C144N24O48
_chemical_formula_sum              "Cd8 H96 C144 N24 O48"
_cell_length_a       13.03097
_cell_length_b       15.26674
_cell_length_c       24.03866
_cell_angle_alpha    89.81924999999998
_cell_angle_beta     90.04904
_cell_angle_gamma    90.03173000000001

_symmetry_space_group_name_H-M    'P 1'
_symmetry_Int_Tables_number       1

loop_
  _symmetry_equiv_pos_as_xyz
  'x,y,z'

loop_
  _atom_site_type_symbol
  _atom_site_label
  _atom_site_symmetry_multiplicity
  _atom_site_fract_x
  _atom_site_fract_y
  _atom_site_fract_z
  _atom_site_occupancy
  Cd  Cd1       1.0  0.6691100000000001  0.43916  0.72896  1.0000
  Cd  Cd2       1.0  0.8301100000000001  0.9399300000000002  0.77182  1.0000
  Cd  Cd3       1.0  0.67014  0.06119  0.27118  1.0000
  Cd  Cd4       1.0  0.8313000000000003  0.56061  0.22856  1.0000
  Cd  Cd5       1.0  0.33089  0.56084  0.27104  1.0000
  Cd  Cd6       1.0  0.16989000000000007  0.06007000000000001  0.22818  1.0000
  Cd  Cd7       1.0  0.32986  0.93882  0.72882  1.0000
  Cd  Cd8       1.0  0.16870000000000004  0.43939000000000006  0.77145  1.0000
  H   H1        1.0  0.50924  0.96128  0.61036  1.0000
  H   H2        1.0  0.57806  0.07334000000000003  0.54116  1.0000
  H   H3        1.0  0.6343600000000001  0.22177000000000005  0.57885  1.0000
  H   H4        1.0  0.60291  0.11081  0.8901  1.0000
  H   H5        1.0  0.43754  0.19512  0.90565  1.0000
  H   H6        1.0  0.33017  0.23703  0.82244  1.0000
  H   H7        1.0  0.48105000000000003  0.38694  0.80395  1.0000
  H   H8        1.0  0.41604000000000013  0.39063  0.90144  1.0000
  H   H9        1.0  0.7058  0.50603  0.94928  1.0000
  H   H10       1.0  0.75535  0.50335  0.84854  1.0000
  H   H11       1.0  0.58575  0.44017  0.02192  1.0000
  H   H12       1.0  0.4617400000000001  0.40472  0.00204  1.0000
  H   H13       1.0  0.9941800000000002  0.46349  0.89306  1.0000
  H   H14       1.0  0.9212  0.57584  0.96059  1.0000
  H   H15       1.0  0.86087  0.72175  0.92026  1.0000
  H   H16       1.0  0.89328  0.60816  0.61184  1.0000
  H   H17       1.0  0.05735000000000001  0.69386  0.59365  1.0000
  H   H18       1.0  0.16819  0.7359400000000001  0.67528  1.0000
  H   H19       1.0  0.0187  0.88784  0.697  1.0000
  H   H20       1.0  0.08339  0.89053  0.5995  1.0000
  H   H21       1.0  0.79406  0.00681  0.55118  1.0000
  H   H22       1.0  0.7450200000000002  0.00499  0.65196  1.0000
  H   H23       1.0  0.9137300000000003  0.9403  0.4787  1.0000
  H   H24       1.0  0.03752  0.90449  0.49869  1.0000
  H   H25       1.0  0.50625  0.5362300000000002  0.39297000000000004  1.0000
  H   H26       1.0  0.57925  0.4233  0.46047  1.0000
  H   H27       1.0  0.6393000000000001  0.2779  0.42045  1.0000
  H   H28       1.0  0.60732  0.3921000000000001  0.11176  1.0000
  H   H29       1.0  0.44317  0.30639  0.09360000000000002  1.0000
  H   H30       1.0  0.33225  0.26419  0.17528  1.0000
  H   H31       1.0  0.48121  0.11278  0.19628999999999996  1.0000
  H   H32       1.0  0.4160500000000001  0.10933  0.09879  1.0000
  H   H33       1.0  0.70557  0.99393  0.051  1.0000
  H   H34       1.0  0.7552500000000001  0.9963900000000002  0.15176  1.0000
  H   H35       1.0  0.58577  0.06002000000000001  0.97836  1.0000
  H   H36       1.0  0.46169  0.09525  0.99798  1.0000
  H   H37       1.0  0.99071  0.03765  0.10707000000000001  1.0000
  H   H38       1.0  0.92097  0.92494  0.03913  1.0000
  H   H39       1.0  0.8654300000000003  0.77695  0.07815  1.0000
  H   H40       1.0  0.8947800000000001  0.89034  0.38824  1.0000
  H   H41       1.0  0.06009000000000001  0.80569  0.40537000000000006  1.0000
  H   H42       1.0  0.16843000000000002  0.76332  0.32278  1.0000
  H   H43       1.0  0.019220000000000008  0.61293  0.30358  1.0000
  H   H44       1.0  0.08394  0.60929  0.40122  1.0000
  H   H45       1.0  0.79409  0.4937400000000001  0.44899  1.0000
  H   H46       1.0  0.7448900000000002  0.49636  0.34813  1.0000
  H   H47       1.0  0.9141  0.55961  0.52164  1.0000
  H   H48       1.0  0.038  0.59535  0.50172  1.0000
  H   H49       1.0  0.4907600000000001  0.038720000000000004  0.38964  1.0000
  H   H50       1.0  0.42194  0.92666  0.45884  1.0000
  H   H51       1.0  0.36564000000000013  0.7782300000000002  0.42115  1.0000
  H   H52       1.0  0.39709  0.8891900000000003  0.1099  1.0000
  H   H53       1.0  0.56246  0.80488  0.09435000000000002  1.0000
  H   H54       1.0  0.6698400000000002  0.76297  0.17756000000000002  1.0000
  H   H55       1.0  0.51895  0.6130600000000003  0.19605000000000003  1.0000
  H   H56       1.0  0.58396  0.6093700000000002  0.09856  1.0000
  H   H57       1.0  0.2942000000000001  0.49397000000000013  0.05072000000000001  1.0000
  H   H58       1.0  0.24465000000000003  0.49665  0.15146  1.0000
  H   H59       1.0  0.41425  0.55983  0.9780900000000001  1.0000
  H   H60       1.0  0.53826  0.59528  0.99796  1.0000
  H   H61       1.0  0.00582  0.53651  0.10694  1.0000
  H   H62       1.0  0.0788  0.42416  0.03941  1.0000
  H   H63       1.0  0.13913  0.27825000000000005  0.07974  1.0000
  H   H64       1.0  0.10672  0.39184  0.38816  1.0000
  H   H65       1.0  0.9426500000000001  0.30614  0.40635  1.0000
  H   H66       1.0  0.83181  0.26406000000000013  0.32472  1.0000
  H   H67       1.0  0.9813  0.11216  0.303  1.0000
  H   H68       1.0  0.91661  0.10947  0.4005  1.0000
  H   H69       1.0  0.20594000000000004  0.9931900000000001  0.44882000000000005  1.0000
  H   H70       1.0  0.25498  0.9950100000000002  0.34804  1.0000
  H   H71       1.0  0.08627  0.0597  0.5213  1.0000
  H   H72       1.0  0.96248  0.09551000000000001  0.50131  1.0000
  H   H73       1.0  0.49375000000000013  0.46377  0.60703  1.0000
  H   H74       1.0  0.4207500000000001  0.5767  0.53953  1.0000
  H   H75       1.0  0.36070000000000013  0.7221  0.57955  1.0000
  H   H76       1.0  0.39268000000000003  0.6079  0.8882400000000001  1.0000
  H   H77       1.0  0.5568300000000002  0.69361  0.9064100000000002  1.0000
  H   H78       1.0  0.66775  0.73581  0.82472  1.0000
  H   H79       1.0  0.51879  0.88722  0.8037200000000001  1.0000
  H   H80       1.0  0.58395  0.8906700000000002  0.9012099999999998  1.0000
  H   H81       1.0  0.2944300000000001  0.006069999999999999  0.94901  1.0000
  H   H82       1.0  0.24476000000000006  0.0036099999999999995  0.84825  1.0000
  H   H83       1.0  0.41423  0.93998  0.02164  1.0000
  H   H84       1.0  0.53831  0.9047500000000003  0.00203  1.0000
  H   H85       1.0  0.0093  0.96235  0.89294  1.0000
  H   H86       1.0  0.07903  0.07506  0.96087  1.0000
  H   H87       1.0  0.13457  0.22306  0.9218500000000001  1.0000
  H   H88       1.0  0.10522  0.10966  0.61176  1.0000
  H   H89       1.0  0.93991  0.19431  0.59463  1.0000
  H   H90       1.0  0.83157  0.23668  0.67722  1.0000
  H   H91       1.0  0.9807800000000001  0.38707  0.69642  1.0000
  H   H92       1.0  0.9160600000000002  0.39071  0.59878  1.0000
  H   H93       1.0  0.20591  0.50627  0.55101  1.0000
  H   H94       1.0  0.25511  0.50364  0.65187  1.0000
  H   H95       1.0  0.0859  0.44039  0.47836  1.0000
  H   H96       1.0  0.962  0.4046500000000001  0.49828  1.0000
  C   C1        1.0  0.53249  0.027370000000000005  0.62123  1.0000
  C   C2        1.0  0.5709600000000001  0.08976  0.58496  1.0000
  C   C3        1.0  0.6010600000000001  0.17135000000000006  0.60531  1.0000
  C   C4        1.0  0.58845  0.19019  0.66173  1.0000
  C   C5        1.0  0.54733  0.12655  0.69739  1.0000
  C   C6        1.0  0.52417  0.1404  0.75704  1.0000
  C   C7        1.0  0.58486  0.11273000000000002  0.8015299999999999  1.0000
  C   C8        1.0  0.55477  0.13241  0.85587  1.0000
  C   C9        1.0  0.4635800000000001  0.17825000000000005  0.8641  1.0000
  C   C10       1.0  0.4027600000000001  0.20239  0.81945  1.0000
  C   C11       1.0  0.6222900000000002  0.27823  0.68341  1.0000
  C   C12       1.0  0.6782100000000001  0.057970000000000015  0.79076  1.0000
  C   C13       1.0  0.52791  0.41307  0.83755  1.0000
  C   C14       1.0  0.49303  0.41433  0.89228  1.0000
  C   C15       1.0  0.55667  0.44748  0.93414  1.0000
  C   C16       1.0  0.6533300000000002  0.47929  0.9184  1.0000
  C   C17       1.0  0.68218  0.47739  0.8627700000000001  1.0000
  C   C18       1.0  0.52147  0.4537600000000001  0.99356  1.0000
  C   C19       1.0  0.96957  0.52889  0.8811700000000001  1.0000
  C   C20       1.0  0.9292000000000001  0.59132  0.91658  1.0000
  C   C21       1.0  0.89702  0.6716100000000003  0.89491  1.0000
  C   C22       1.0  0.9105300000000001  0.68976  0.83836  1.0000
  C   C23       1.0  0.9540600000000001  0.6264  0.80361  1.0000
  C   C24       1.0  0.9768700000000002  0.63934  0.74374  1.0000
  C   C25       1.0  0.91504  0.6112900000000001  0.69995  1.0000
  C   C26       1.0  0.9427900000000001  0.6308  0.64515  1.0000
  C   C27       1.0  0.0334  0.67691  0.63567  1.0000
  C   C28       1.0  0.09589000000000002  0.70109  0.6796199999999999  1.0000
  C   C29       1.0  0.8739600000000001  0.77679  0.8159300000000002  1.0000
  C   C30       1.0  0.82274  0.55568  0.7112600000000001  1.0000
  C   C31       1.0  0.9719400000000002  0.91404  0.66329  1.0000
  C   C32       1.0  0.00665  0.91486  0.6085  1.0000
  C   C33       1.0  0.94316  0.94809  0.56645  1.0000
  C   C34       1.0  0.84668  0.98024  0.58213  1.0000
  C   C35       1.0  0.8180300000000003  0.9787700000000001  0.63783  1.0000
  C   C36       1.0  0.97821  0.95389  0.50689  1.0000
  C   C37       1.0  0.5307  0.47095  0.38102  1.0000
  C   C38       1.0  0.57117  0.40825  0.41647  1.0000
  C   C39       1.0  0.60321  0.32812  0.39491  1.0000
  C   C40       1.0  0.58953  0.3103900000000001  0.33838  1.0000
  C   C41       1.0  0.54605  0.37405  0.30353  1.0000
  C   C42       1.0  0.52317  0.36133  0.24366000000000002  1.0000
  C   C43       1.0  0.58507  0.38925  0.19977  1.0000
  C   C44       1.0  0.55745  0.3697  0.14503  1.0000
  C   C45       1.0  0.46693  0.32351000000000013  0.13558  1.0000
  C   C46       1.0  0.4043900000000001  0.29931  0.17955  1.0000
  C   C47       1.0  0.62605  0.22343  0.31617  1.0000
  C   C48       1.0  0.67781  0.44436  0.21088  1.0000
  C   C49       1.0  0.52806  0.08682  0.16269  1.0000
  C   C50       1.0  0.49304  0.08559000000000003  0.10794  1.0000
  C   C51       1.0  0.55655  0.0525  0.06607  1.0000
  C   C52       1.0  0.6531800000000002  0.02064  0.08185  1.0000
  C   C53       1.0  0.6821700000000003  0.02251  0.13749  1.0000
  C   C54       1.0  0.5214  0.04627  0.00657  1.0000
  C   C55       1.0  0.96771  0.9717500000000002  0.11878  1.0000
  C   C56       1.0  0.9289000000000001  0.90904  0.08304  1.0000
  C   C57       1.0  0.8990900000000002  0.8277000000000002  0.10406  1.0000
  C   C58       1.0  0.9120700000000002  0.8094200000000003  0.1606  1.0000
  C   C59       1.0  0.95316  0.87337  0.19586  1.0000
  C   C60       1.0  0.9758300000000001  0.86007  0.25577  1.0000
  C   C61       1.0  0.9147000000000001  0.88774  0.29993  1.0000
  C   C62       1.0  0.94375  0.86835  0.35457  1.0000
  C   C63       1.0  0.03468  0.82247  0.36359  1.0000
  C   C64       1.0  0.09609  0.79825  0.31934  1.0000
  C   C65       1.0  0.8782100000000003  0.72153  0.18275  1.0000
  C   C66       1.0  0.82169  0.94246  0.28872  1.0000
  C   C67       1.0  0.9722900000000001  0.58678  0.33720000000000006  1.0000
  C   C68       1.0  0.00698  0.58556  0.39201  1.0000
  C   C69       1.0  0.9432200000000002  0.5524200000000002  0.43389  1.0000
  C   C70       1.0  0.8466400000000001  0.52052  0.41811000000000004  1.0000
  C   C71       1.0  0.81799  0.52236  0.36241000000000007  1.0000
  C   C72       1.0  0.97839  0.5462  0.49337  1.0000
  C   C73       1.0  0.46751  0.97263  0.37877  1.0000
  C   C74       1.0  0.42904  0.9102400000000003  0.41504  1.0000
  C   C75       1.0  0.39894  0.8286500000000002  0.39469000000000004  1.0000
  C   C76       1.0  0.41155000000000014  0.8098100000000003  0.33827  1.0000
  C   C77       1.0  0.45267  0.87345  0.30261  1.0000
  C   C78       1.0  0.47583  0.8596000000000003  0.24297000000000002  1.0000
  C   C79       1.0  0.41514  0.88727  0.19847  1.0000
  C   C80       1.0  0.44523000000000007  0.8675900000000001  0.14413  1.0000
  C   C81       1.0  0.53642  0.82175  0.1359  1.0000
  C   C82       1.0  0.59724  0.79761  0.18055000000000002  1.0000
  C   C83       1.0  0.37771  0.72177  0.31659  1.0000
  C   C84       1.0  0.32179  0.94203  0.20924  1.0000
  C   C85       1.0  0.47209000000000007  0.58693  0.16246  1.0000
  C   C86       1.0  0.50697  0.58567  0.10772  1.0000
  C   C87       1.0  0.44333  0.55252  0.06586  1.0000
  C   C88       1.0  0.34667000000000003  0.52071  0.0816  1.0000
  C   C89       1.0  0.31782  0.52261  0.13723  1.0000
  C   C90       1.0  0.47853  0.54624  0.00644  1.0000
  C   C91       1.0  0.03043  0.47111  0.11883  1.0000
  C   C92       1.0  0.0708  0.4086800000000001  0.08342  1.0000
  C   C93       1.0  0.10298  0.3283900000000001  0.10508999999999999  1.0000
  C   C94       1.0  0.08947  0.31024  0.16165  1.0000
  C   C95       1.0  0.04594  0.3736  0.19639000000000004  1.0000
  C   C96       1.0  0.02313  0.36066  0.25626  1.0000
  C   C97       1.0  0.08496  0.38871  0.30005  1.0000
  C   C98       1.0  0.05721  0.36921000000000004  0.35486  1.0000
  C   C99       1.0  0.9666  0.3231  0.36433  1.0000
  C   C100      1.0  0.90411  0.29891  0.32039  1.0000
  C   C101      1.0  0.12604  0.22321  0.18407  1.0000
  C   C102      1.0  0.17726  0.44432  0.28874  1.0000
  C   C103      1.0  0.02806  0.08596  0.33671  1.0000
  C   C104      1.0  0.99335  0.08514  0.3915  1.0000
  C   C105      1.0  0.05684000000000001  0.05191  0.43355  1.0000
  C   C106      1.0  0.15332  0.01977  0.4178700000000001  1.0000
  C   C107      1.0  0.18197  0.02123  0.36218  1.0000
  C   C108      1.0  0.02179  0.04611000000000001  0.49311000000000005  1.0000
  C   C109      1.0  0.4693000000000001  0.52905  0.61898  1.0000
  C   C110      1.0  0.42883  0.59175  0.58353  1.0000
  C   C111      1.0  0.39679  0.6718800000000003  0.60509  1.0000
  C   C112      1.0  0.41047  0.68961  0.66162  1.0000
  C   C113      1.0  0.45396000000000003  0.6259500000000002  0.69647  1.0000
  C   C114      1.0  0.47683  0.6386700000000002  0.75634  1.0000
  C   C115      1.0  0.41493  0.61075  0.8002300000000001  1.0000
  C   C116      1.0  0.44255  0.6303  0.85497  1.0000
  C   C117      1.0  0.53307  0.6764900000000003  0.86442  1.0000
  C   C118      1.0  0.59561  0.70069  0.82045  1.0000
  C   C119      1.0  0.37395  0.77657  0.6838400000000001  1.0000
  C   C120      1.0  0.32220000000000004  0.5556500000000002  0.78912  1.0000
  C   C121      1.0  0.47194  0.91318  0.83731  1.0000
  C   C122      1.0  0.50696  0.91442  0.8920600000000001  1.0000
  C   C123      1.0  0.44345000000000007  0.9475000000000002  0.93394  1.0000
  C   C124      1.0  0.3468200000000001  0.97936  0.91815  1.0000
  C   C125      1.0  0.31783  0.97749  0.86251  1.0000
  C   C126      1.0  0.47859999999999997  0.95373  0.99343  1.0000
  C   C127      1.0  0.03229  0.02825000000000001  0.8812200000000001  1.0000
  C   C128      1.0  0.0711  0.09096  0.9169600000000001  1.0000
  C   C129      1.0  0.10091000000000001  0.1723  0.8959400000000001  1.0000
  C   C130      1.0  0.08793  0.19059  0.8394  1.0000
  C   C131      1.0  0.04684  0.12663  0.80414  1.0000
  C   C132      1.0  0.024170000000000004  0.13993  0.7442299999999998  1.0000
  C   C133      1.0  0.0853  0.11226  0.70008  1.0000
  C   C134      1.0  0.056250000000000015  0.13165  0.64544  1.0000
  C   C135      1.0  0.9653200000000002  0.17753  0.63641  1.0000
  C   C136      1.0  0.90391  0.20175  0.68066  1.0000
  C   C137      1.0  0.12179  0.27847  0.81725  1.0000
  C   C138      1.0  0.17831000000000002  0.05754  0.71128  1.0000
  C   C139      1.0  0.02771  0.4132200000000001  0.6628  1.0000
  C   C140      1.0  0.99302  0.41444  0.60799  1.0000
  C   C141      1.0  0.05678  0.44758  0.56611  1.0000
  C   C142      1.0  0.15336  0.47948000000000013  0.58189  1.0000
  C   C143      1.0  0.18201000000000006  0.47764  0.63759  1.0000
  C   C144      1.0  0.02161  0.4538  0.50663  1.0000
  N   N1        1.0  0.6207  0.44429  0.8229000000000001  1.0000
  N   N2        1.0  0.43166  0.18288  0.76597  1.0000
  N   N3        1.0  0.52216  0.04559  0.67646  1.0000
  N   N4        1.0  0.87941  0.9457300000000002  0.67784  1.0000
  N   N5        1.0  0.06937  0.68146  0.73365  1.0000
  N   N6        1.0  0.97929  0.5459  0.82563  1.0000
  N   N7        1.0  0.6209200000000001  0.05571  0.17733  1.0000
  N   N8        1.0  0.43081  0.31897  0.23355  1.0000
  N   N9        1.0  0.52077  0.4543900000000001  0.32548  1.0000
  N   N10       1.0  0.87957  0.55549  0.32253  1.0000
  N   N11       1.0  0.06804  0.8175  0.26555  1.0000
  N   N12       1.0  0.97816  0.95418  0.17422000000000004  1.0000
  N   N13       1.0  0.3793100000000001  0.55571  0.17710000000000004  1.0000
  N   N14       1.0  0.56834  0.8171200000000002  0.23403  1.0000
  N   N15       1.0  0.47784  0.9544200000000003  0.32355  1.0000
  N   N16       1.0  0.12059000000000002  0.05427  0.32216  1.0000
  N   N17       1.0  0.93063  0.31854  0.26635  1.0000
  N   N18       1.0  0.02071  0.4541000000000001  0.17438  1.0000
  N   N19       1.0  0.3790800000000001  0.9443  0.82267  1.0000
  N   N20       1.0  0.56919  0.6810300000000002  0.76645  1.0000
  N   N21       1.0  0.47923  0.54561  0.67452  1.0000
  N   N22       1.0  0.12043000000000002  0.4445100000000001  0.67747  1.0000
  N   N23       1.0  0.9319600000000002  0.1825  0.73445  1.0000
  N   N24       1.0  0.021840000000000005  0.04582  0.82579  1.0000
  O   O1        1.0  0.5997  0.29776  0.73338  1.0000
  O   O2        1.0  0.6723  0.32797  0.65072  1.0000
  O   O3        1.0  0.72022  0.01829  0.8316600000000001  1.0000
  O   O4        1.0  0.70865  0.04919000000000001  0.74081  1.0000
  O   O5        1.0  0.49440000000000006  0.98274  0.71069  1.0000
  O   O6        1.0  0.3747  0.20458  0.72449  1.0000
  O   O7        1.0  0.90091  0.79956  0.76713  1.0000
  O   O8        1.0  0.81733  0.82288  0.8474100000000001  1.0000
  O   O9        1.0  0.7816100000000001  0.51582  0.6701800000000001  1.0000
  O   O10       1.0  0.79189  0.54666  0.76114  1.0000
  O   O11       1.0  0.00572  0.48208  0.7920900000000001  1.0000
  O   O12       1.0  0.12846  0.70223  0.77448  1.0000
  O   O13       1.0  0.59933  0.20099000000000006  0.26729  1.0000
  O   O14       1.0  0.68242  0.17705  0.34773000000000004  1.0000
  O   O15       1.0  0.71946  0.4836800000000001  0.16967  1.0000
  O   O16       1.0  0.70825  0.4535  0.26082  1.0000
  O   O17       1.0  0.4941500000000001  0.51851  0.29194  1.0000
  O   O18       1.0  0.37164  0.29783  0.2743  1.0000
  O   O19       1.0  0.90023  0.70219  0.23291000000000003  1.0000
  O   O20       1.0  0.82835  0.67175  0.15009  1.0000
  O   O21       1.0  0.77952  0.98165  0.3297  1.0000
  O   O22       1.0  0.79175  0.9516300000000002  0.23872000000000002  1.0000
  O   O23       1.0  0.00568  0.01744  0.20796  1.0000
  O   O24       1.0  0.12549  0.79529  0.22453000000000004  1.0000
  O   O25       1.0  0.4003000000000001  0.70225  0.26662  1.0000
  O   O26       1.0  0.3277  0.67203  0.34929  1.0000
  O   O27       1.0  0.27978000000000003  0.98171  0.16834  1.0000
  O   O28       1.0  0.29135000000000005  0.95081  0.25919  1.0000
  O   O29       1.0  0.5056  0.01726  0.28931  1.0000
  O   O30       1.0  0.6253  0.79542  0.27551  1.0000
  O   O31       1.0  0.09909000000000003  0.20044  0.23288  1.0000
  O   O32       1.0  0.18267000000000003  0.17712  0.15259  1.0000
  O   O33       1.0  0.21839  0.48418  0.32982  1.0000
  O   O34       1.0  0.20811000000000002  0.45334  0.23886  1.0000
  O   O35       1.0  0.99428  0.51792  0.20791  1.0000
  O   O36       1.0  0.87154  0.29777  0.22552  1.0000
  O   O37       1.0  0.40067000000000014  0.7990100000000002  0.7327100000000001  1.0000
  O   O38       1.0  0.31758000000000003  0.82295  0.65227  1.0000
  O   O39       1.0  0.28055  0.51632  0.83034  1.0000
  O   O40       1.0  0.29175  0.5465  0.73918  1.0000
  O   O41       1.0  0.50585  0.48149  0.7080600000000001  1.0000
  O   O42       1.0  0.62836  0.70217  0.72571  1.0000
  O   O43       1.0  0.09977000000000001  0.29781  0.7671000000000001  1.0000
  O   O44       1.0  0.17166  0.32826  0.84991  1.0000
  O   O45       1.0  0.22048000000000006  0.01835  0.6703  1.0000
  O   O46       1.0  0.20825  0.04837  0.7612799999999998  1.0000
  O   O47       1.0  0.9943200000000002  0.98256  0.7920400000000001  1.0000
  O   O48       1.0  0.87451  0.20471000000000006  0.77547  1.0000
