data_image0
_chemical_formula_structural       Gd8H72C144S24N24O48
_chemical_formula_sum              "Gd8 H72 C144 S24 N24 O48"
_cell_length_a       12.53102
_cell_length_b       12.52389
_cell_length_c       32.565059999999995
_cell_angle_alpha    81.54013999999998
_cell_angle_beta     81.51812
_cell_angle_gamma    64.34271

_space_group_name_H-M_alt    "P 1"
_space_group_IT_number       1

loop_
  _space_group_symop_operation_xyz
  'x, y, z'

loop_
  _atom_site_type_symbol
  _atom_site_label
  _atom_site_symmetry_multiplicity
  _atom_site_fract_x
  _atom_site_fract_y
  _atom_site_fract_z
  _atom_site_occupancy
  Gd  Gd1       1.0  0.65216  0.7462400000000001  0.95748  1.0000
  Gd  Gd2       1.0  0.6521999999999998  0.8189800000000002  0.83547  1.0000
  Gd  Gd3       1.0  0.7435400000000001  0.6562399999999999  0.45751  1.0000
  Gd  Gd4       1.0  0.8174399999999998  0.6543900000000002  0.33598  1.0000
  Gd  Gd5       1.0  0.25526000000000004  0.34397000000000005  0.5424099999999997  1.0000
  Gd  Gd6       1.0  0.18167999999999992  0.34475  0.66375  1.0000
  Gd  Gd7       1.0  0.34156000000000003  0.25988  0.04242  1.0000
  Gd  Gd8       1.0  0.34388  0.18644000000000002  0.16354  1.0000
  H   H1        1.0  0.5364800000000001  0.9634  0.24509  1.0000
  H   H2        1.0  0.91955  0.54835  0.82295  1.0000
  H   H3        1.0  0.90783  0.3295100000000001  0.9373199999999998  1.0000
  H   H4        1.0  0.96042  0.8893300000000001  0.82543  1.0000
  H   H5        1.0  0.32948  0.7115099999999999  0.83887  1.0000
  H   H6        1.0  0.39221  0.63646  0.96866  1.0000
  H   H7        1.0  0.9412999999999999  0.87095  0.9589  1.0000
  H   H8        1.0  0.10911999999999981  0.93695  0.94976  1.0000
  H   H9        1.0  0.36821999999999994  0.21253000000000005  0.84892  1.0000
  H   H10       1.0  0.41120000000000007  0.04324999999999998  0.97408  1.0000
  H   H11       1.0  0.32980000000000004  0.93754  0.061229999999999986  1.0000
  H   H12       1.0  0.20591  0.39596  0.87851  1.0000
  H   H13       1.0  0.21983  0.57956  0.98255  1.0000
  H   H14       1.0  0.6221699999999999  0.5956  0.23588  1.0000
  H   H15       1.0  0.4206099999999999  0.6619000000000002  0.20987  1.0000
  H   H16       1.0  0.32194999999999996  0.57122  0.13774  1.0000
  H   H17       1.0  0.44608000000000003  0.55762  0.06891  1.0000
  H   H18       1.0  0.07857000000000006  0.3654200000000001  0.7927899999999998  1.0000
  H   H19       1.0  0.9630899999999998  0.53489  0.74518  1.0000
  H   H20       1.0  0.5455599999999999  0.92279  0.32199  1.0000
  H   H21       1.0  0.3279  0.91444  0.43688  1.0000
  H   H22       1.0  0.8857199999999998  0.96461  0.32549  1.0000
  H   H23       1.0  0.71054  0.32912  0.3399  1.0000
  H   H24       1.0  0.6332700000000001  0.39808  0.46906  1.0000
  H   H25       1.0  0.8683599999999998  0.9462200000000001  0.45902  1.0000
  H   H26       1.0  0.9364799999999998  0.11236  0.44957  1.0000
  H   H27       1.0  0.21149  0.36749000000000004  0.34927  1.0000
  H   H28       1.0  0.03977000000000004  0.41598  0.47399  1.0000
  H   H29       1.0  0.9333600000000001  0.33408  0.56046  1.0000
  H   H30       1.0  0.39389  0.20609999999999998  0.37966  1.0000
  H   H31       1.0  0.57533  0.22612  0.48398  1.0000
  H   H32       1.0  0.5960799999999998  0.62353  0.73382  1.0000
  H   H33       1.0  0.6622699999999998  0.42121999999999993  0.70816  1.0000
  H   H34       1.0  0.5692599999999995  0.3219600000000001  0.63715  1.0000
  H   H35       1.0  0.55422  0.44755  0.56845  1.0000
  H   H36       1.0  0.3621  0.08002  0.29149  1.0000
  H   H37       1.0  0.03632999999999997  0.4652500000000001  0.25471  1.0000
  H   H38       1.0  0.45341  0.07559  0.67764  1.0000
  H   H39       1.0  0.67154  0.08627  0.5631  1.0000
  H   H40       1.0  0.10914000000000001  0.03921999999999999  0.67455  1.0000
  H   H41       1.0  0.29101999999999995  0.6664100000000001  0.6612199999999998  1.0000
  H   H42       1.0  0.36605000000000004  0.6027  0.53153  1.0000
  H   H43       1.0  0.13184999999999997  0.05266000000000001  0.54107  1.0000
  H   H44       1.0  0.06544000000000001  0.88499  0.5508  1.0000
  H   H45       1.0  0.7883899999999999  0.63155  0.65113  1.0000
  H   H46       1.0  0.9581300000000001  0.5867999999999999  0.52607  1.0000
  H   H47       1.0  0.06489999999999996  0.66948  0.4408  1.0000
  H   H48       1.0  0.6045  0.79145  0.62142  1.0000
  H   H49       1.0  0.4226699999999999  0.7754500000000001  0.51742  1.0000
  H   H50       1.0  0.40326999999999996  0.37923  0.26518  1.0000
  H   H51       1.0  0.33605999999999997  0.58084  0.29153  1.0000
  H   H52       1.0  0.42918999999999996  0.67796  0.36279  1.0000
  H   H53       1.0  0.44430999999999987  0.55417  0.43192  1.0000
  H   H54       1.0  0.6368899999999998  0.9184600000000002  0.70816  1.0000
  H   H55       1.0  0.46333  0.03368999999999997  0.7549  1.0000
  H   H56       1.0  0.07707999999999997  0.45639  0.1771  1.0000
  H   H57       1.0  0.08323000000000001  0.67532  0.06228  1.0000
  H   H58       1.0  0.03702  0.11312000000000001  0.17468  1.0000
  H   H59       1.0  0.6676599999999997  0.2935  0.15934  1.0000
  H   H60       1.0  0.60167  0.36941000000000007  0.02983  1.0000
  H   H61       1.0  0.054189999999999995  0.13284  0.04126  1.0000
  H   H62       1.0  0.8869999999999999  0.06556  0.05059  1.0000
  H   H63       1.0  0.6298299999999998  0.79184  0.15035999999999994  1.0000
  H   H64       1.0  0.5839999999999997  0.96414  0.02547  1.0000
  H   H65       1.0  0.6652499999999999  0.06755000000000007  0.9398599999999998  1.0000
  H   H66       1.0  0.7898999999999998  0.60873  0.12  1.0000
  H   H67       1.0  0.77477  0.42516000000000004  0.015299999999999996  1.0000
  H   H68       1.0  0.3757399999999998  0.40212  0.76362  1.0000
  H   H69       1.0  0.57681  0.33723999999999993  0.78987  1.0000
  H   H70       1.0  0.6717799999999996  0.4320900000000001  0.86134  1.0000
  H   H71       1.0  0.54549  0.44793000000000005  0.92994  1.0000
  H   H72       1.0  0.9202099999999998  0.63919  0.20789  1.0000
  C   C1        1.0  0.47896999999999995  0.7068900000000002  0.89496  1.0000
  C   C2        1.0  0.37468999999999986  0.6764700000000002  0.90259  1.0000
  C   C3        1.0  0.8308499999999999  0.85315  0.8957899999999998  1.0000
  C   C4        1.0  0.9355499999999998  0.8806800000000001  0.89262  1.0000
  C   C5        1.0  0.7006899999999999  0.73683  0.26585  1.0000
  C   C6        1.0  0.5921299999999999  0.7744400000000001  0.2441  1.0000
  C   C7        1.0  0.07282999999999998  0.2524900000000001  0.8498299999999998  1.0000
  C   C8        1.0  0.22782999999999992  0.314  0.94173  1.0000
  C   C9        1.0  0.51205  0.89447  0.23848  1.0000
  C   C10       1.0  0.39944  0.11424000000000002  0.9093699999999998  1.0000
  C   C11       1.0  0.9493000000000001  0.462  0.8412  1.0000
  C   C12       1.0  0.901  0.45236000000000004  0.8826499999999998  1.0000
  C   C13       1.0  0.9435699999999997  0.33972  0.90513  1.0000
  C   C14       1.0  0.11612  0.9505000000000001  0.88239  1.0000
  C   C15       1.0  0.19019999999999995  0.6121700000000001  0.9168799999999998  1.0000
  C   C16       1.0  0.9898400000000002  0.90212  0.85338  1.0000
  C   C17       1.0  0.48763999999999996  0.004349999999999999  0.89141  1.0000
  C   C18       1.0  0.2690399999999999  0.76201  0.13577  1.0000
  C   C19       1.0  0.37264  0.8469  0.21681  1.0000
  C   C20       1.0  0.81125  0.55711  0.90312  1.0000
  C   C21       1.0  0.30862999999999996  0.6806300000000001  0.87079  1.0000
  C   C22       1.0  0.3418799999999998  0.64012  0.94357  1.0000
  C   C23       1.0  0.9808699999999999  0.8895  0.9281999999999998  1.0000
  C   C24       1.0  0.07315999999999999  0.9251200000000002  0.92321  1.0000
  C   C25       1.0  0.4837799999999999  0.74333  0.02279  1.0000
  C   C26       1.0  0.3999799999999999  0.7465  0.06039  1.0000
  C   C27       1.0  0.34296  0.21581000000000006  0.88228  1.0000
  C   C28       1.0  0.36883  0.12045000000000002  0.9522799999999999  1.0000
  C   C29       1.0  0.33122  0.8546200000000002  0.07764  1.0000
  C   C30       1.0  0.2545299999999999  0.31672  0.89845  1.0000
  C   C31       1.0  0.24708000000000008  0.6086600000000001  0.9512799999999998  1.0000
  C   C32       1.0  0.5603099999999999  0.6891500000000002  0.23248  1.0000
  C   C33       1.0  0.44968  0.72529  0.21826999999999994  1.0000
  C   C34       1.0  0.32651999999999975  0.65015  0.11996  1.0000
  C   C35       1.0  0.39483  0.64278  0.08177  1.0000
  C   C36       1.0  0.03693999999999996  0.361  0.82443  1.0000
  C   C37       1.0  0.70561  0.4812399999999999  0.39514  1.0000
  C   C38       1.0  0.67417  0.37752  0.40328  1.0000
  C   C39       1.0  0.8481799999999999  0.83646  0.3959  1.0000
  C   C40       1.0  0.8768299999999997  0.94047  0.3927  1.0000
  C   C41       1.0  0.7360499999999998  0.7002100000000001  0.7653499999999998  1.0000
  C   C42       1.0  0.77434  0.59162  0.74345  1.0000
  C   C43       1.0  0.24997999999999998  0.07661000000000003  0.34899  1.0000
  C   C44       1.0  0.31061999999999995  0.23068000000000002  0.44265  1.0000
  C   C45       1.0  0.8942399999999998  0.51083  0.73828  1.0000
  C   C46       1.0  0.11231999999999986  0.40217  0.40954  1.0000
  C   C47       1.0  0.45926999999999996  0.95315  0.34026  1.0000
  C   C48       1.0  0.45007999999999987  0.90617  0.38191999999999987  1.0000
  C   C49       1.0  0.3378199999999998  0.94933  0.40457  1.0000
  C   C50       1.0  0.9485999999999999  0.11976000000000003  0.38224  1.0000
  C   C51       1.0  0.60891  0.19351  0.41854  1.0000
  C   C52       1.0  0.8989099999999998  0.99408  0.35339  1.0000
  C   C53       1.0  0.0033799999999999616  0.4916600000000001  0.39146  1.0000
  C   C54       1.0  0.7594199999999998  0.2711200000000001  0.6351199999999998  1.0000
  C   C55       1.0  0.8465500000000001  0.37205  0.71612  1.0000
  C   C56       1.0  0.5549399999999997  0.81563  0.40204  1.0000
  C   C57       1.0  0.67867  0.30995  0.37187  1.0000
  C   C58       1.0  0.63693  0.3465200000000001  0.44434  1.0000
  C   C59       1.0  0.8867299999999999  0.98539  0.42821  1.0000
  C   C60       1.0  0.9234199999999999  0.07697000000000001  0.4231  1.0000
  C   C61       1.0  0.7391399999999998  0.48771  0.52259  1.0000
  C   C62       1.0  0.74259  0.40296000000000004  0.5599  1.0000
  C   C63       1.0  0.21405  0.34392000000000006  0.3827099999999999  1.0000
  C   C64       1.0  0.11732  0.37258  0.45247  1.0000
  C   C65       1.0  0.85092  0.33475  0.57703  1.0000
  C   C66       1.0  0.3142799999999999  0.2556300000000001  0.3993  1.0000
  C   C67       1.0  0.6049099999999996  0.2520200000000001  0.45258  1.0000
  C   C68       1.0  0.68934  0.56073  0.7311199999999998  1.0000
  C   C69       1.0  0.72534  0.44989  0.71704  1.0000
  C   C70       1.0  0.64758  0.32765  0.61933  1.0000
  C   C71       1.0  0.6394599999999998  0.39657  0.58124  1.0000
  C   C72       1.0  0.35814000000000007  0.039940000000000024  0.3233899999999999  1.0000
  C   C73       1.0  0.29586999999999997  0.51637  0.60519  1.0000
  C   C74       1.0  0.32635  0.6205999999999999  0.59751  1.0000
  C   C75       1.0  0.14949999999999994  0.16437  0.60405  1.0000
  C   C76       1.0  0.12065  0.060570000000000054  0.6073399999999998  1.0000
  C   C77       1.0  0.2629299999999999  0.30198000000000014  0.23406  1.0000
  C   C78       1.0  0.22494000000000003  0.4099400000000001  0.25616  1.0000
  C   C79       1.0  0.74934  0.92319  0.65086  1.0000
  C   C80       1.0  0.6868799999999999  0.7697500000000003  0.5581899999999997  1.0000
  C   C81       1.0  0.10487000000000003  0.48978000000000005  0.2616199999999999  1.0000
  C   C82       1.0  0.8866200000000001  0.59878  0.59066  1.0000
  C   C83       1.0  0.5398499999999999  0.04559000000000005  0.6594699999999998  1.0000
  C   C84       1.0  0.54925  0.09298999999999999  0.61788  1.0000
  C   C85       1.0  0.6616499999999998  0.05079  0.59535  1.0000
  C   C86       1.0  0.05053999999999999  0.88031  0.6181099999999999  1.0000
  C   C87       1.0  0.38938999999999996  0.8060500000000002  0.58301  1.0000
  C   C88       1.0  0.09758  0.008120000000000007  0.64674  1.0000
  C   C89       1.0  0.99611  0.5098200000000002  0.6085399999999997  1.0000
  C   C90       1.0  0.2383999999999999  0.7304800000000001  0.36538  1.0000
  C   C91       1.0  0.15162999999999996  0.62881  0.284  1.0000
  C   C92       1.0  0.44414999999999977  0.18299000000000004  0.59782  1.0000
  C   C93       1.0  0.32177999999999995  0.68718  0.62927  1.0000
  C   C94       1.0  0.36246999999999996  0.6533300000000001  0.55653  1.0000
  C   C95       1.0  0.11251999999999993  0.014210000000000018  0.57189  1.0000
  C   C96       1.0  0.07666999999999997  0.92202  0.57718  1.0000
  C   C97       1.0  0.25953  0.51431  0.47795  1.0000
  C   C98       1.0  0.25581000000000004  0.60019  0.44092  1.0000
  C   C99       1.0  0.7850799999999998  0.6556800000000003  0.6177299999999998  1.0000
  C   C100      1.0  0.88075  0.6293100000000003  0.54778  1.0000
  C   C101      1.0  0.14715000000000006  0.66863  0.42396  1.0000
  C   C102      1.0  0.68397  0.74336  0.60148  1.0000
  C   C103      1.0  0.39354999999999996  0.74842  0.54871  1.0000
  C   C104      1.0  0.30981  0.44134  0.26831  1.0000
  C   C105      1.0  0.2731499999999999  0.55179  0.28276  1.0000
  C   C106      1.0  0.35059999999999997  0.6736799999999998  0.38094  1.0000
  C   C107      1.0  0.35893999999999976  0.60567  0.41925  1.0000
  C   C108      1.0  0.6410199999999999  0.9590600000000001  0.67635  1.0000
  C   C109      1.0  0.5147899999999997  0.30103  0.10401  1.0000
  C   C110      1.0  0.6202399999999998  0.32968  0.09586  1.0000
  C   C111      1.0  0.16384999999999986  0.15224  0.10416  1.0000
  C   C112      1.0  0.05975  0.12382  0.10746  1.0000
  C   C113      1.0  0.2994599999999999  0.2599  0.73348  1.0000
  C   C114      1.0  0.40715000000000007  0.22273999999999997  0.75563  1.0000
  C   C115      1.0  0.9223099999999999  0.7521700000000001  0.15051  1.0000
  C   C116      1.0  0.76695  0.69247  0.05704  1.0000
  C   C117      1.0  0.4873099999999998  0.10290999999999999  0.76154  1.0000
  C   C118      1.0  0.5962999999999999  0.89165  0.09015  1.0000
  C   C119      1.0  0.0463299999999999  0.5427400000000002  0.15885  1.0000
  C   C120      1.0  0.09215999999999998  0.55248  0.11705  1.0000
  C   C121      1.0  0.04880999999999995  0.66514  0.09465  1.0000
  C   C122      1.0  0.87983  0.05315000000000001  0.11794999999999997  1.0000
  C   C123      1.0  0.8056  0.39271  0.08084  1.0000
  C   C124      1.0  0.00654000000000001  0.1013  0.14679  1.0000
  C   C125      1.0  0.50731  0.00045999999999999833  0.10858  1.0000
  C   C126      1.0  0.7256799999999999  0.24115  0.86433  1.0000
  C   C127      1.0  0.62552  0.15177  0.78348  1.0000
  C   C128      1.0  0.18118999999999993  0.44804000000000005  0.09638  1.0000
  C   C129      1.0  0.6877399999999999  0.3246200000000001  0.12737  1.0000
  C   C130      1.0  0.6526099999999998  0.36551  0.054749999999999986  1.0000
  C   C131      1.0  0.01462  0.11435  0.07198  1.0000
  C   C132      1.0  0.9228199999999998  0.07802  0.07706  1.0000
  C   C133      1.0  0.51016  0.26255000000000006  0.9771799999999998  1.0000
  C   C134      1.0  0.59395  0.25884  0.93958  1.0000
  C   C135      1.0  0.6536799999999999  0.7894000000000001  0.11692  1.0000
  C   C136      1.0  0.6262599999999998  0.88661  0.04719  1.0000
  C   C137      1.0  0.66338  0.15005  0.92288  1.0000
  C   C138      1.0  0.7413899999999999  0.68871  0.10036  1.0000
  C   C139      1.0  0.7478699999999998  0.3963  0.04667  1.0000
  C   C140      1.0  0.43796  0.30872  0.76723  1.0000
  C   C141      1.0  0.54821  0.27333  0.7816  1.0000
  C   C142      1.0  0.66728  0.35371  0.87956  1.0000
  C   C143      1.0  0.59831  0.36223  0.91764  1.0000
  C   C144      1.0  0.9597499999999998  0.64368  0.17595  1.0000
  S   S1        1.0  0.18536999999999998  0.12512000000000006  0.82692  1.0000
  S   S2        1.0  0.06714  0.57243  0.92203  1.0000
  S   S3        1.0  0.2223600000000001  0.9086299999999999  0.20529  1.0000
  S   S4        1.0  0.19835999999999993  0.7707500000000002  0.18818  1.0000
  S   S5        1.0  0.11282000000000007  0.43288  0.96731  1.0000
  S   S6        1.0  0.23181999999999997  0.00010000000000000178  0.8763  1.0000
  S   S7        1.0  0.12237000000000002  0.18854  0.32609  1.0000
  S   S8        1.0  0.56952  0.07001000000000004  0.42420999999999986  1.0000
  S   S9        1.0  0.9069799999999999  0.22164000000000006  0.70479  1.0000
  S   S10       1.0  0.7683599999999999  0.19953999999999997  0.68742  1.0000
  S   S11       1.0  0.42859999999999987  0.11711000000000002  0.46893  1.0000
  S   S12       1.0  0.99842  0.23536  0.37577  1.0000
  S   S13       1.0  0.8766000000000002  0.81147  0.67399  1.0000
  S   S14       1.0  0.42831  0.9297999999999998  0.57761  1.0000
  S   S15       1.0  0.09036999999999998  0.7786100000000001  0.29604  1.0000
  S   S16       1.0  0.22892999999999997  0.8016299999999998  0.31304  1.0000
  S   S17       1.0  0.56801  0.88389  0.5324  1.0000
  S   S18       1.0  0.0017100000000000262  0.76407  0.62467  1.0000
  S   S19       1.0  0.8102299999999999  0.87936  0.17366  1.0000
  S   S20       1.0  0.9284899999999999  0.43281  0.07522  1.0000
  S   S21       1.0  0.7752099999999997  0.09149000000000006  0.7954299999999997  1.0000
  S   S22       1.0  0.7974999999999999  0.23090000000000002  0.81205  1.0000
  S   S23       1.0  0.8804899999999998  0.5743  0.03071  1.0000
  S   S24       1.0  0.76329  0.004659999999999999  0.12436  1.0000
  N   N1        1.0  0.40416  0.9312700000000002  0.22515  1.0000
  N   N2        1.0  0.26832000000000006  0.86239  0.11487999999999997  1.0000
  N   N3        1.0  0.0779300000000001  0.93732  0.84799  1.0000
  N   N4        1.0  0.2871299999999999  0.22029000000000004  0.96873  1.0000
  N   N5        1.0  0.21876999999999988  0.6468000000000003  0.8775  1.0000
  N   N6        1.0  0.026810000000000077  0.24111000000000007  0.8891999999999998  1.0000
  N   N7        1.0  0.93102  0.40295999999999993  0.72479  1.0000
  N   N8        1.0  0.8593099999999999  0.2716000000000001  0.61423  1.0000
  N   N9        1.0  0.93492  0.08159  0.3479  1.0000
  N   N10       1.0  0.21632000000000007  0.29086999999999996  0.46929  1.0000
  N   N11       1.0  0.64435  0.22037000000000007  0.37907  1.0000
  N   N12       1.0  0.2390799999999999  0.031910000000000015  0.38858  1.0000
  N   N13       1.0  0.06753999999999999  0.5975  0.27523  1.0000
  N   N14       1.0  0.13840999999999995  0.7310300000000001  0.38659  1.0000
  N   N15       1.0  0.062270000000000054  0.92012  0.6524  1.0000
  N   N16       1.0  0.7810999999999999  0.7109200000000001  0.53128  1.0000
  N   N17       1.0  0.35480000000000006  0.77766  0.62241  1.0000
  N   N18       1.0  0.7605100000000001  0.96844  0.61136  1.0000
  N   N19       1.0  0.5945999999999999  0.06666000000000005  0.77534  1.0000
  N   N20       1.0  0.7264599999999996  0.14125000000000004  0.88566  1.0000
  N   N21       1.0  0.9185399999999999  0.06604000000000002  0.15227999999999994  1.0000
  N   N22       1.0  0.7074799999999998  0.7871  0.03043  1.0000
  N   N23       1.0  0.7779699999999998  0.35791  0.1203  1.0000
  N   N24       1.0  0.9664899999999998  0.7636500000000002  0.11089  1.0000
  O   O1        1.0  0.7835700000000004  0.86569  0.86215  1.0000
  O   O2        1.0  0.7167600000000001  0.81312  0.28349  1.0000
  O   O3        1.0  0.5341699999999999  0.6894700000000002  0.92684  1.0000
  O   O4        1.0  0.79363  0.81972  0.9318699999999998  1.0000
  O   O5        1.0  0.5079399999999998  0.7458800000000001  0.85844  1.0000
  O   O6        1.0  0.5718499999999997  0.6452  0.014739999999999996  1.0000
  O   O7        1.0  0.7916200000000001  0.54977  0.9428  1.0000
  O   O8        1.0  0.75567  0.65522  0.88091  1.0000
  O   O9        1.0  0.5516500000000001  0.91468  0.91484  1.0000
  O   O10       1.0  0.49759  0.0021899999999999997  0.85197  1.0000
  O   O11       1.0  0.4700599999999999  0.84097  0.00011999999999999998  1.0000
  O   O12       1.0  0.7714599999999996  0.62537  0.27068  1.0000
  O   O13       1.0  0.8603299999999999  0.78927  0.36228  1.0000
  O   O14       1.0  0.8114500000000001  0.7149700000000001  0.78395  1.0000
  O   O15       1.0  0.6880199999999997  0.53803  0.42672  1.0000
  O   O16       1.0  0.8144799999999999  0.7993000000000001  0.432  1.0000
  O   O17       1.0  0.7458400000000001  0.50815  0.35861  1.0000
  O   O18       1.0  0.6411499999999999  0.57612  0.51465  1.0000
  O   O19       1.0  0.5498  0.798  0.44175  1.0000
  O   O20       1.0  0.6503499999999998  0.75697  0.3792  1.0000
  O   O21       1.0  0.9130300000000002  0.55553  0.41477999999999987  1.0000
  O   O22       1.0  0.0027500000000000415  0.50292  0.35195  1.0000
  O   O23       1.0  0.83703  0.47429000000000004  0.50018  1.0000
  O   O24       1.0  0.6250499999999999  0.77246  0.76914  1.0000
  O   O25       1.0  0.13744999999999996  0.21142  0.63768  1.0000
  O   O26       1.0  0.18662999999999996  0.28594000000000014  0.21636  1.0000
  O   O27       1.0  0.3118099999999999  0.46127  0.57333  1.0000
  O   O28       1.0  0.18409999999999999  0.20094000000000004  0.56803  1.0000
  O   O29       1.0  0.25789000000000006  0.48728000000000005  0.64178  1.0000
  O   O30       1.0  0.35687999999999986  0.424  0.48515999999999987  1.0000
  O   O31       1.0  0.4496  0.20209  0.55813  1.0000
  O   O32       1.0  0.34821  0.23956000000000002  0.62074  1.0000
  O   O33       1.0  0.08521  0.44424  0.58515  1.0000
  O   O34       1.0  0.99835  0.50033  0.64795  1.0000
  O   O35       1.0  0.16204  0.5287  0.50071  1.0000
  O   O36       1.0  0.37433999999999995  0.23187  0.22906  1.0000
  O   O37       1.0  0.21119  0.13973  0.13776  1.0000
  O   O38       1.0  0.2854300000000001  0.18423  0.71481  1.0000
  O   O39       1.0  0.45621  0.32196  0.07274  1.0000
  O   O40       1.0  0.20063  0.1859  0.06801  1.0000
  O   O41       1.0  0.4877699999999999  0.25989  0.1404  1.0000
  O   O42       1.0  0.42212  0.36066  0.98518  1.0000
  O   O43       1.0  0.19929000000000002  0.45516  0.05662999999999999  1.0000
  O   O44       1.0  0.23824  0.3505  0.11866999999999997  1.0000
  O   O45       1.0  0.4433  0.0916  0.08551  1.0000
  O   O46       1.0  0.4964499999999999  0.00043000000000000275  0.14811  1.0000
  O   O47       1.0  0.5240399999999998  0.16493  0.9999300000000001  1.0000
  O   O48       1.0  0.22731  0.37096  0.72938  1.0000
