data_image0
_chemical_formula_structural       Zn16H72C108O52
_chemical_formula_sum              "Zn16 H72 C108 O52"
_cell_length_a       16.42265
_cell_length_b       17.45517
_cell_length_c       17.91092
_cell_angle_alpha    89.87129
_cell_angle_beta     90.0
_cell_angle_gamma    90.0

_symmetry_space_group_name_H-M    'P 1'
_symmetry_Int_Tables_number       1

loop_
  _symmetry_equiv_pos_as_xyz
  'x,y,z'

loop_
  _atom_site_type_symbol
  _atom_site_label
  _atom_site_symmetry_multiplicity
  _atom_site_fract_x
  _atom_site_fract_y
  _atom_site_fract_z
  _atom_site_occupancy
  Zn  Zn1       1.0  0.27893  0.75167  0.76236  1.0000
  Zn  Zn2       1.0  0.22648  0.1507  0.11732999999999999  1.0000
  Zn  Zn3       1.0  0.89133  0.26381  0.8204699999999998  1.0000
  Zn  Zn4       1.0  0.31973  0.08941  0.26702  1.0000
  Zn  Zn5       1.0  0.2212  0.24857999999999997  0.26195  1.0000
  Zn  Zn6       1.0  0.27374  0.84934  0.61628  1.0000
  Zn  Zn7       1.0  0.60884  0.73613  0.32007  1.0000
  Zn  Zn8       1.0  0.18032  0.91032  0.76692  1.0000
  Zn  Zn9       1.0  0.7212  0.25142  0.73805  1.0000
  Zn  Zn10      1.0  0.77374  0.65066  0.38372  1.0000
  Zn  Zn11      1.0  0.10884  0.76387  0.67993  1.0000
  Zn  Zn12      1.0  0.6803200000000003  0.58968  0.23307999999999998  1.0000
  Zn  Zn13      1.0  0.7789300000000002  0.74833  0.23764  1.0000
  Zn  Zn14      1.0  0.7264800000000002  0.3493  0.88267  1.0000
  Zn  Zn15      1.0  0.39133  0.23619  0.17953  1.0000
  Zn  Zn16      1.0  0.81973  0.41059  0.73299  1.0000
  H   H1        1.0  0.22829  0.95959  0.9978399999999998  1.0000
  H   H2        1.0  0.36061  0.7485  0.9734399999999999  1.0000
  H   H3        1.0  0.37418  0.8747399999999999  0.17945999999999998  1.0000
  H   H4        1.0  0.45499  0.76068  0.16697  1.0000
  H   H5        1.0  0.40417  0.68815  0.11556  1.0000
  H   H6        1.0  0.48614  0.73862  0.07456  1.0000
  H   H7        1.0  0.030980000000000004  0.53328  0.73196  1.0000
  H   H8        1.0  0.29097  0.51723  0.75676  1.0000
  H   H9        1.0  0.14251  0.31471  0.77502  1.0000
  H   H10       1.0  0.35772  0.39599  0.77145  1.0000
  H   H11       1.0  0.30227  0.33228  0.8297099999999997  1.0000
  H   H12       1.0  0.30571  0.31644  0.73254  1.0000
  H   H13       1.0  0.52513  0.7030099999999999  0.76027  1.0000
  H   H14       1.0  0.7177500000000002  0.65654  0.60359  1.0000
  H   H15       1.0  0.49961999999999995  0.77033  0.53033  1.0000
  H   H16       1.0  0.64677  0.64165  0.8050699999999997  1.0000
  H   H17       1.0  0.69412  0.58116  0.7381999999999999  1.0000
  H   H18       1.0  0.73658  0.67138  0.7583  1.0000
  H   H19       1.0  0.27182  0.04079  0.49774  1.0000
  H   H20       1.0  0.13944  0.25187  0.47301999999999994  1.0000
  H   H21       1.0  0.12613  0.12511  0.67934  1.0000
  H   H22       1.0  0.04533  0.23910000000000003  0.6667299999999998  1.0000
  H   H23       1.0  0.09592  0.31189  0.61515  1.0000
  H   H24       1.0  0.013960000000000004  0.26143  0.57436  1.0000
  H   H25       1.0  0.4692100000000001  0.46729  0.23103999999999997  1.0000
  H   H26       1.0  0.20904  0.48274  0.25526  1.0000
  H   H27       1.0  0.3573  0.68497  0.27635  1.0000
  H   H28       1.0  0.1422  0.60343  0.2717  1.0000
  H   H29       1.0  0.19742  0.66721  0.3298  1.0000
  H   H30       1.0  0.19395  0.68319  0.23257000000000003  1.0000
  H   H31       1.0  0.9750599999999999  0.29691  0.2602  1.0000
  H   H32       1.0  0.78221  0.34353  0.10355  1.0000
  H   H33       1.0  0.00022  0.22979  0.03049  1.0000
  H   H34       1.0  0.85337  0.35815  0.30492999999999987  1.0000
  H   H35       1.0  0.80604  0.4188  0.23789  1.0000
  H   H36       1.0  0.76358  0.32851  0.2582  1.0000
  H   H37       1.0  0.77182  0.45921000000000006  0.50227  1.0000
  H   H38       1.0  0.63944  0.24812999999999996  0.52698  1.0000
  H   H39       1.0  0.62613  0.37489  0.32066  1.0000
  H   H40       1.0  0.54533  0.2609  0.33326999999999996  1.0000
  H   H41       1.0  0.59592  0.18811  0.38485  1.0000
  H   H42       1.0  0.51396  0.23857  0.42565  1.0000
  H   H43       1.0  0.96921  0.0327  0.76897  1.0000
  H   H44       1.0  0.70904  0.01726  0.74474  1.0000
  H   H45       1.0  0.8573  0.81502  0.72365  1.0000
  H   H46       1.0  0.6422  0.89657  0.7283  1.0000
  H   H47       1.0  0.69742  0.83279  0.6702  1.0000
  H   H48       1.0  0.69395  0.8168100000000001  0.76743  1.0000
  H   H49       1.0  0.47506  0.20309  0.7398  1.0000
  H   H50       1.0  0.28221  0.15647  0.8964499999999999  1.0000
  H   H51       1.0  0.50022  0.2702  0.9695099999999999  1.0000
  H   H52       1.0  0.35337  0.14185  0.69508  1.0000
  H   H53       1.0  0.30604  0.0812  0.76211  1.0000
  H   H54       1.0  0.26358  0.17149  0.7418  1.0000
  H   H55       1.0  0.72829  0.54041  0.00217  1.0000
  H   H56       1.0  0.86061  0.7515  0.02656  1.0000
  H   H57       1.0  0.87418  0.62525  0.8205499999999999  1.0000
  H   H58       1.0  0.9549900000000002  0.73932  0.83303  1.0000
  H   H59       1.0  0.9041700000000003  0.81185  0.88444  1.0000
  H   H60       1.0  0.98614  0.76138  0.92544  1.0000
  H   H61       1.0  0.53098  0.96672  0.26804  1.0000
  H   H62       1.0  0.79097  0.98277  0.24324  1.0000
  H   H63       1.0  0.64251  0.18529  0.22498  1.0000
  H   H64       1.0  0.85772  0.10401  0.22854999999999998  1.0000
  H   H65       1.0  0.80227  0.16772  0.17029  1.0000
  H   H66       1.0  0.8057100000000003  0.18356  0.26746999999999993  1.0000
  H   H67       1.0  0.025130000000000003  0.79699  0.23972999999999997  1.0000
  H   H68       1.0  0.21775  0.84346  0.39641999999999994  1.0000
  H   H69       1.0  0.9996199999999998  0.72967  0.46967999999999993  1.0000
  H   H70       1.0  0.14677  0.85835  0.19493  1.0000
  H   H71       1.0  0.19412  0.9188399999999999  0.2618  1.0000
  H   H72       1.0  0.23658  0.82862  0.24171  1.0000
  C   C1        1.0  0.27446  0.9907600000000001  0.1395  1.0000
  C   C2        1.0  0.2972900000000001  0.9225100000000002  0.09403  1.0000
  C   C3        1.0  0.26819  0.91586  0.02084  1.0000
  C   C4        1.0  0.2916  0.85288  0.9776399999999998  1.0000
  C   C5        1.0  0.34354  0.79704  0.00807  1.0000
  C   C6        1.0  0.37454  0.80373  0.08071  1.0000
  C   C7        1.0  0.35065  0.86707  0.12316999999999999  1.0000
  C   C8        1.0  0.43295  0.74487  0.11129  1.0000
  C   C9        1.0  0.99696  0.3833  0.7548699999999998  1.0000
  C   C10       1.0  0.07909  0.42006  0.7533599999999999  1.0000
  C   C11       1.0  0.08539  0.49929  0.74166  1.0000
  C   C12       1.0  0.16202  0.53409  0.7446099999999999  1.0000
  C   C13       1.0  0.23197  0.48898  0.75562  1.0000
  C   C14       1.0  0.22681  0.40959  0.76503  1.0000
  C   C15       1.0  0.14924  0.37599  0.7655  1.0000
  C   C16       1.0  0.30212  0.36141  0.77524  1.0000
  C   C17       1.0  0.42144  0.76939  0.6648199999999997  1.0000
  C   C18       1.0  0.50472  0.74042  0.64746  1.0000
  C   C19       1.0  0.55092  0.70609  0.70441  1.0000
  C   C20       1.0  0.62825  0.67619  0.69017  1.0000
  C   C21       1.0  0.65816  0.68002  0.6170199999999998  1.0000
  C   C22       1.0  0.61235  0.71345  0.5594999999999998  1.0000
  C   C23       1.0  0.5355  0.74454  0.57472  1.0000
  C   C24       1.0  0.67856  0.64082  0.75124  1.0000
  C   C25       1.0  0.17112  0.61891  0.7372  1.0000
  C   C26       1.0  0.26407  0.845  0.89842  1.0000
  C   C27       1.0  0.64522  0.71299  0.48170999999999997  1.0000
  C   C28       1.0  0.22559  0.00924  0.63947  1.0000
  C   C29       1.0  0.20286  0.07762  0.59393  1.0000
  C   C30       1.0  0.23194  0.08441  0.52075  1.0000
  C   C31       1.0  0.2085  0.14749  0.47747  1.0000
  C   C32       1.0  0.15658000000000005  0.20328  0.50777  1.0000
  C   C33       1.0  0.12565  0.19643  0.58044  1.0000
  C   C34       1.0  0.14957000000000006  0.13299  0.62301  1.0000
  C   C35       1.0  0.06723000000000003  0.25514  0.61099  1.0000
  C   C36       1.0  0.50306  0.61663  0.25511  1.0000
  C   C37       1.0  0.4208700000000001  0.57998  0.25365  1.0000
  C   C38       1.0  0.41465  0.50096  0.24098999999999998  1.0000
  C   C39       1.0  0.33803  0.46606000000000003  0.24314  1.0000
  C   C40       1.0  0.26806  0.51097  0.25466  1.0000
  C   C41       1.0  0.27313  0.59019  0.26516  1.0000
  C   C42       1.0  0.35067  0.62383  0.2662  1.0000
  C   C43       1.0  0.19769  0.63816  0.27542  1.0000
  C   C44       1.0  0.07865000000000003  0.23061999999999996  0.16482  1.0000
  C   C45       1.0  0.9953199999999999  0.25958  0.14751  1.0000
  C   C46       1.0  0.9492  0.29387  0.20438999999999996  1.0000
  C   C47       1.0  0.87186  0.32381  0.19013  1.0000
  C   C48       1.0  0.8418100000000002  0.32005  0.11704  1.0000
  C   C49       1.0  0.88752  0.28663  0.059629999999999996  1.0000
  C   C50       1.0  0.96441  0.25551  0.07485  1.0000
  C   C51       1.0  0.82158  0.35912  0.2511  1.0000
  C   C52       1.0  0.32897  0.38138  0.23437  1.0000
  C   C53       1.0  0.23603000000000005  0.15539  0.39827  1.0000
  C   C54       1.0  0.85463  0.28714  0.9818599999999998  1.0000
  C   C55       1.0  0.7255900000000002  0.49075  0.36053  1.0000
  C   C56       1.0  0.70286  0.42238  0.40607  1.0000
  C   C57       1.0  0.73194  0.41559  0.47926  1.0000
  C   C58       1.0  0.7085000000000002  0.35251  0.52254  1.0000
  C   C59       1.0  0.65658  0.29672  0.49223  1.0000
  C   C60       1.0  0.6256500000000003  0.30357  0.41956  1.0000
  C   C61       1.0  0.64957  0.36701  0.37698999999999994  1.0000
  C   C62       1.0  0.56723  0.24486  0.38901  1.0000
  C   C63       1.0  0.00306  0.88337  0.7449  1.0000
  C   C64       1.0  0.92087  0.92002  0.7463599999999998  1.0000
  C   C65       1.0  0.91465  0.99904  0.75901  1.0000
  C   C66       1.0  0.8380300000000003  0.03394  0.75687  1.0000
  C   C67       1.0  0.7680600000000001  0.98903  0.7453399999999998  1.0000
  C   C68       1.0  0.77313  0.90981  0.73484  1.0000
  C   C69       1.0  0.85067  0.87617  0.7338099999999999  1.0000
  C   C70       1.0  0.69769  0.86184  0.72458  1.0000
  C   C71       1.0  0.57865  0.26938  0.83518  1.0000
  C   C72       1.0  0.49532000000000004  0.24042000000000002  0.8524899999999997  1.0000
  C   C73       1.0  0.4492000000000001  0.20613  0.7956099999999999  1.0000
  C   C74       1.0  0.3718600000000001  0.17619  0.80987  1.0000
  C   C75       1.0  0.34181  0.17995  0.88296  1.0000
  C   C76       1.0  0.38752  0.21337  0.9403699999999999  1.0000
  C   C77       1.0  0.46441  0.24449  0.92515  1.0000
  C   C78       1.0  0.32158  0.14088  0.7489  1.0000
  C   C79       1.0  0.82897  0.11861999999999999  0.76563  1.0000
  C   C80       1.0  0.73604  0.34461  0.60173  1.0000
  C   C81       1.0  0.35463  0.21286  0.01814  1.0000
  C   C82       1.0  0.77446  0.50924  0.8605  1.0000
  C   C83       1.0  0.79729  0.57749  0.90597  1.0000
  C   C84       1.0  0.76819  0.58413  0.9791599999999999  1.0000
  C   C85       1.0  0.7916  0.64712  0.02236  1.0000
  C   C86       1.0  0.84354  0.7029599999999999  0.9919299999999999  1.0000
  C   C87       1.0  0.87454  0.69627  0.9193  1.0000
  C   C88       1.0  0.85065  0.63293  0.87684  1.0000
  C   C89       1.0  0.9329500000000002  0.75513  0.88872  1.0000
  C   C90       1.0  0.49695999999999996  0.1167  0.24513  1.0000
  C   C91       1.0  0.57909  0.07994  0.24664  1.0000
  C   C92       1.0  0.58539  0.0007100000000000001  0.25833999999999996  1.0000
  C   C93       1.0  0.66202  0.96591  0.25539  1.0000
  C   C94       1.0  0.73197  0.01101  0.24438  1.0000
  C   C95       1.0  0.72681  0.09041  0.23497  1.0000
  C   C96       1.0  0.64924  0.12400000000000001  0.2345  1.0000
  C   C97       1.0  0.80212  0.13859  0.22476  1.0000
  C   C98       1.0  0.92144  0.73061  0.33518  1.0000
  C   C99       1.0  0.00472  0.75958  0.3525399999999999  1.0000
  C   C100      1.0  0.05092  0.79391  0.29559  1.0000
  C   C101      1.0  0.12825  0.82381  0.3098299999999999  1.0000
  C   C102      1.0  0.15816  0.81998  0.38298  1.0000
  C   C103      1.0  0.11235  0.78654  0.44051  1.0000
  C   C104      1.0  0.0355  0.75546  0.42528  1.0000
  C   C105      1.0  0.17856  0.85918  0.24875999999999998  1.0000
  C   C106      1.0  0.67112  0.88109  0.2628  1.0000
  C   C107      1.0  0.76407  0.655  0.10158  1.0000
  C   C108      1.0  0.14522  0.78701  0.51829  1.0000
  O   O1        1.0  0.22528  0.03851  0.10958  1.0000
  O   O2        1.0  0.30551  0.9963099999999999  0.20488  1.0000
  O   O3        1.0  0.93937  0.4201  0.7230699999999998  1.0000
  O   O4        1.0  0.99124  0.31824  0.7878  1.0000
  O   O5        1.0  0.38453  0.80695  0.61354  1.0000
  O   O6        1.0  0.39315  0.75386  0.72975  1.0000
  O   O7        1.0  0.10753  0.65895  0.72276  1.0000
  O   O8        1.0  0.24313000000000007  0.64532  0.74642  1.0000
  O   O9        1.0  0.27788  0.78024  0.8676999999999999  1.0000
  O   O10       1.0  0.22989000000000007  0.90297  0.8674099999999998  1.0000
  O   O11       1.0  0.59903  0.7391  0.4302  1.0000
  O   O12       1.0  0.71703  0.68574  0.47361  1.0000
  O   O13       1.0  0.20885  0.82134  0.7049  1.0000
  O   O14       1.0  0.27474  0.96156  0.60961  1.0000
  O   O15       1.0  0.1945  0.00363  0.70483  1.0000
  O   O16       1.0  0.5606  0.57979  0.22340999999999997  1.0000
  O   O17       1.0  0.5089  0.6817  0.28771  1.0000
  O   O18       1.0  0.11557  0.19312  0.11368  1.0000
  O   O19       1.0  0.10698  0.24613999999999997  0.22969  1.0000
  O   O20       1.0  0.39266  0.34167  0.21963  1.0000
  O   O21       1.0  0.25694  0.35466  0.24276  1.0000
  O   O22       1.0  0.2223  0.22025  0.36745  1.0000
  O   O23       1.0  0.27007  0.09744  0.36742  1.0000
  O   O24       1.0  0.90098  0.26096  0.9306499999999999  1.0000
  O   O25       1.0  0.78286  0.3144  0.97343  1.0000
  O   O26       1.0  0.29162  0.17874  0.20522  1.0000
  O   O27       1.0  0.77474  0.53844  0.39039  1.0000
  O   O28       1.0  0.6945  0.49637  0.29517  1.0000
  O   O29       1.0  0.0606  0.92021  0.77659  1.0000
  O   O30       1.0  0.0089  0.8183  0.7123  1.0000
  O   O31       1.0  0.61557  0.30688  0.88632  1.0000
  O   O32       1.0  0.60698  0.25386  0.77031  1.0000
  O   O33       1.0  0.89266  0.15833  0.7803699999999999  1.0000
  O   O34       1.0  0.75695  0.14534  0.7572399999999998  1.0000
  O   O35       1.0  0.7223  0.27975  0.63255  1.0000
  O   O36       1.0  0.77007  0.40256  0.63258  1.0000
  O   O37       1.0  0.40098  0.23904  0.06936  1.0000
  O   O38       1.0  0.28286  0.1856  0.02658  1.0000
  O   O39       1.0  0.79163  0.32126  0.7947799999999998  1.0000
  O   O40       1.0  0.72528  0.46149  0.89042  1.0000
  O   O41       1.0  0.80551  0.50369  0.79512  1.0000
  O   O42       1.0  0.43937  0.0799  0.27693  1.0000
  O   O43       1.0  0.49124000000000007  0.18176  0.21219999999999994  1.0000
  O   O44       1.0  0.88453  0.69305  0.38646  1.0000
  O   O45       1.0  0.8931500000000002  0.74614  0.27026  1.0000
  O   O46       1.0  0.6075300000000001  0.84105  0.27724  1.0000
  O   O47       1.0  0.7431300000000001  0.85468  0.25358  1.0000
  O   O48       1.0  0.77788  0.71976  0.1323  1.0000
  O   O49       1.0  0.72989  0.59703  0.13258999999999996  1.0000
  O   O50       1.0  0.09903000000000003  0.7608999999999999  0.5698  1.0000
  O   O51       1.0  0.21703  0.81426  0.5264  1.0000
  O   O52       1.0  0.70885  0.67866  0.29509999999999986  1.0000
