data_image0
_chemical_formula_structural       Cu4Sn4H96C160N32
_chemical_formula_sum              "Cu4 Sn4 H96 C160 N32"
_cell_length_a       10.60031
_cell_length_b       14.55525
_cell_length_c       25.5326
_cell_angle_alpha    90.00090999999999
_cell_angle_beta     91.83574
_cell_angle_gamma    89.99955

_space_group_name_H-M_alt    "P 1"
_space_group_IT_number       1

loop_
  _space_group_symop_operation_xyz
  'x, y, z'

loop_
  _atom_site_type_symbol
  _atom_site_label
  _atom_site_symmetry_multiplicity
  _atom_site_fract_x
  _atom_site_fract_y
  _atom_site_fract_z
  _atom_site_occupancy
  Cu  Cu1       1.0  0.76929  0.21561  0.83606  1.0000
  Cu  Cu2       1.0  0.73064  0.7155099999999998  0.66394  1.0000
  Cu  Cu3       1.0  0.24024  0.7813  0.16308000000000006  1.0000
  Cu  Cu4       1.0  0.25977  0.2813199999999999  0.33692  1.0000
  Sn  Sn1       1.0  0.95865  0.06464  0.98935  1.0000
  Sn  Sn2       1.0  0.54133  0.56464  0.51064  1.0000
  Sn  Sn3       1.0  0.45529  0.5791  0.0027200000000000006  1.0000
  Sn  Sn4       1.0  0.04472  0.07908999999999998  0.49728  1.0000
  H   H1        1.0  0.07767  0.9348099999999999  0.79876  1.0000
  H   H2        1.0  0.28507  0.02463  0.83335  1.0000
  H   H3        1.0  0.44164  0.17536  0.01227  1.0000
  H   H4        1.0  0.34821  0.19410999999999998  0.10821000000000001  1.0000
  H   H5        1.0  0.66558  0.9073399999999998  0.8291900000000001  1.0000
  H   H6        1.0  0.61236  0.8438299999999997  0.7414900000000001  1.0000
  H   H7        1.0  0.96537  0.72429  0.7313300000000001  1.0000
  H   H8        1.0  0.03345000000000002  0.7837899999999998  0.8183400000000002  1.0000
  H   H9        1.0  0.50372  0.9802799999999998  0.93311  1.0000
  H   H10       1.0  0.69522  0.03959999999999999  0.89061  1.0000
  H   H11       1.0  0.52059  0.2886799999999999  0.8556700000000002  1.0000
  H   H12       1.0  0.32224  0.23865  0.89379  1.0000
  H   H13       1.0  0.0031200000000000247  0.16197  0.8875100000000002  1.0000
  H   H14       1.0  0.17643  0.23393  0.9413100000000002  1.0000
  H   H15       1.0  0.97156  0.4894099999999999  0.9317  1.0000
  H   H16       1.0  0.7975800000000001  0.40481  0.88543  1.0000
  H   H17       1.0  0.08009  0.32706  0.04102  1.0000
  H   H18       1.0  0.19986999999999996  0.3462699999999999  0.1343  1.0000
  H   H19       1.0  0.61713  0.53249  0.20309  1.0000
  H   H20       1.0  0.81614  0.60343  0.15458  1.0000
  H   H21       1.0  0.20373999999999998  0.49086999999999986  0.18341  1.0000
  H   H22       1.0  0.15738  0.4363399999999999  0.27218  1.0000
  H   H23       1.0  0.51557  0.3263699999999999  0.29327  1.0000
  H   H24       1.0  0.57504  0.37259  0.20393  1.0000
  H   H25       1.0  0.42232000000000003  0.4348199999999999  0.7012500000000002  1.0000
  H   H26       1.0  0.21489  0.5246099999999998  0.66666  1.0000
  H   H27       1.0  0.05839  0.67537  0.48774  1.0000
  H   H28       1.0  0.15179000000000004  0.6940999999999998  0.3918000000000001  1.0000
  H   H29       1.0  0.8344400000000001  0.4073099999999999  0.67083  1.0000
  H   H30       1.0  0.8876000000000001  0.3438299999999999  0.75853  1.0000
  H   H31       1.0  0.53461  0.22428  0.76867  1.0000
  H   H32       1.0  0.46654  0.28375  0.6816600000000003  1.0000
  H   H33       1.0  0.9962600000000001  0.48026999999999986  0.56688  1.0000
  H   H34       1.0  0.8048  0.5396099999999999  0.6094  1.0000
  H   H35       1.0  0.97938  0.7886899999999998  0.6443200000000001  1.0000
  H   H36       1.0  0.17774  0.7386699999999998  0.60619  1.0000
  H   H37       1.0  0.49681  0.6619899999999997  0.61251  1.0000
  H   H38       1.0  0.32358  0.73395  0.55868  1.0000
  H   H39       1.0  0.52845  0.9894099999999998  0.56832  1.0000
  H   H40       1.0  0.70242  0.9047999999999998  0.61458  1.0000
  H   H41       1.0  0.41992  0.8270799999999998  0.45899  1.0000
  H   H42       1.0  0.3002  0.8462999999999998  0.3657  1.0000
  H   H43       1.0  0.88288  0.0325  0.29691  1.0000
  H   H44       1.0  0.68386  0.10341  0.3454100000000001  1.0000
  H   H45       1.0  0.29625  0.9908999999999998  0.31659  1.0000
  H   H46       1.0  0.34264  0.9363799999999998  0.22782000000000005  1.0000
  H   H47       1.0  0.98446  0.8263699999999999  0.20673000000000005  1.0000
  H   H48       1.0  0.92499  0.8725899999999998  0.29607  1.0000
  H   H49       1.0  0.9474400000000001  0.040129999999999985  0.20284  1.0000
  H   H50       1.0  0.73768  0.95221  0.16840000000000002  1.0000
  H   H51       1.0  0.57187  0.81555  0.9889600000000001  1.0000
  H   H52       1.0  0.66857  0.7945299999999997  0.89398  1.0000
  H   H53       1.0  0.33927  0.08873999999999997  0.17388  1.0000
  H   H54       1.0  0.38256999999999997  0.14576999999999998  0.26378  1.0000
  H   H55       1.0  0.02343  0.25583999999999996  0.27245  1.0000
  H   H56       1.0  0.96532  0.20346999999999996  0.18291000000000002  1.0000
  H   H57       1.0  0.49972  0.01611  0.06673  1.0000
  H   H58       1.0  0.31126  0.9524699999999998  0.10966000000000002  1.0000
  H   H59       1.0  0.4946400000000001  0.7053499999999998  0.14173  1.0000
  H   H60       1.0  0.69175  0.7607099999999998  0.10261000000000002  1.0000
  H   H61       1.0  0.04021  0.8513899999999998  0.08912000000000003  1.0000
  H   H62       1.0  0.85634  0.78357  0.04023000000000001  1.0000
  H   H63       1.0  0.9974499999999998  0.5152999999999998  0.08351  1.0000
  H   H64       1.0  0.18294  0.59332  0.1261  1.0000
  H   H65       1.0  0.9310400000000001  0.67092  0.9570300000000002  1.0000
  H   H66       1.0  0.8172600000000001  0.64499  0.8630300000000001  1.0000
  H   H67       1.0  0.40397  0.4521999999999999  0.79913  1.0000
  H   H68       1.0  0.19929  0.3863399999999999  0.8464100000000002  1.0000
  H   H69       1.0  0.7907099999999999  0.5086799999999998  0.8142600000000001  1.0000
  H   H70       1.0  0.8276499999999999  0.5517  0.72234  1.0000
  H   H71       1.0  0.46888  0.6620499999999999  0.70345  1.0000
  H   H72       1.0  0.41894  0.6271199999999998  0.7955200000000002  1.0000
  H   H73       1.0  0.55259  0.54013  0.29716  1.0000
  H   H74       1.0  0.7623700000000001  0.45224  0.33159  1.0000
  H   H75       1.0  0.92809  0.31555  0.51104  1.0000
  H   H76       1.0  0.83143  0.29454999999999987  0.60603  1.0000
  H   H77       1.0  0.16071  0.58877  0.32611  1.0000
  H   H78       1.0  0.11745  0.64578  0.23620000000000005  1.0000
  H   H79       1.0  0.47658  0.7558499999999998  0.22755  1.0000
  H   H80       1.0  0.53468  0.7035099999999997  0.31709  1.0000
  H   H81       1.0  0.0002800000000000004  0.51612  0.43327  1.0000
  H   H82       1.0  0.18872  0.45245999999999986  0.3903400000000001  1.0000
  H   H83       1.0  0.005380000000000007  0.20535  0.35827000000000003  1.0000
  H   H84       1.0  0.80826  0.2607  0.39741000000000004  1.0000
  H   H85       1.0  0.45982  0.35137  0.41087  1.0000
  H   H86       1.0  0.64364  0.28356  0.45977000000000007  1.0000
  H   H87       1.0  0.50258  0.015299999999999996  0.41648000000000013  1.0000
  H   H88       1.0  0.31707  0.0933  0.37389  1.0000
  H   H89       1.0  0.56895  0.17089999999999994  0.54297  1.0000
  H   H90       1.0  0.6827  0.14497  0.63697  1.0000
  H   H91       1.0  0.09600999999999998  0.9521999999999998  0.70088  1.0000
  H   H92       1.0  0.30069  0.8863499999999997  0.65361  1.0000
  H   H93       1.0  0.70929  0.00866  0.68575  1.0000
  H   H94       1.0  0.67232  0.05165  0.7776700000000002  1.0000
  H   H95       1.0  0.031080000000000017  0.16203999999999993  0.7965700000000001  1.0000
  H   H96       1.0  0.08101  0.12713  0.70449  1.0000
  C   C1        1.0  0.018560000000000004  0.9455099999999997  0.8825700000000001  1.0000
  C   C2        1.0  0.09939999999999999  0.9572899999999998  0.83838  1.0000
  C   C3        1.0  0.20482  0.004209999999999999  0.8558300000000001  1.0000
  C   C4        1.0  0.1895  0.023049999999999998  0.91052  1.0000
  C   C5        1.0  0.27670000000000006  0.07162999999999999  0.9423600000000001  1.0000
  C   C6        1.0  0.26561000000000007  0.09351999999999998  0.99586  1.0000
  C   C7        1.0  0.35481  0.14660999999999993  0.0264  1.0000
  C   C8        1.0  0.30728  0.15532  0.0758  1.0000
  C   C9        1.0  0.18908  0.10641999999999997  0.07574  1.0000
  C   C10       1.0  0.8988700000000001  0.9008  0.8806200000000002  1.0000
  C   C11       1.0  0.85832  0.8567699999999998  0.83129  1.0000
  C   C12       1.0  0.73566  0.8675399999999998  0.8088500000000001  1.0000
  C   C13       1.0  0.70541  0.8323  0.75962  1.0000
  C   C14       1.0  0.90234  0.76734  0.75355  1.0000
  C   C15       1.0  0.94023  0.8009999999999998  0.8022400000000002  1.0000
  C   C16       1.0  0.39414  0.10402999999999997  0.91712  1.0000
  C   C17       1.0  0.5024  0.04861999999999999  0.91582  1.0000
  C   C18       1.0  0.61023  0.08149  0.8922100000000001  1.0000
  C   C19       1.0  0.51307  0.22011  0.87238  1.0000
  C   C20       1.0  0.40168  0.19153999999999993  0.8945  1.0000
  C   C21       1.0  0.99878  0.23408999999999994  0.8985700000000002  1.0000
  C   C22       1.0  0.09686000000000002  0.27516  0.92736  1.0000
  C   C23       1.0  0.09377  0.3695599999999999  0.93752  1.0000
  C   C24       1.0  0.9826000000000001  0.41669  0.92305  1.0000
  C   C25       1.0  0.8855300000000002  0.3699899999999999  0.89632  1.0000
  C   C26       1.0  0.20998  0.41712  0.9581900000000001  1.0000
  C   C27       1.0  0.2347  0.4182599999999999  0.012420000000000002  1.0000
  C   C28       1.0  0.16264  0.36884  0.05007  1.0000
  C   C29       1.0  0.22378  0.37902  0.09785000000000002  1.0000
  C   C30       1.0  0.3326  0.4375099999999999  0.0903  1.0000
  C   C31       1.0  0.42235  0.4631099999999999  0.1303  1.0000
  C   C32       1.0  0.54027  0.5072099999999998  0.12116000000000003  1.0000
  C   C33       1.0  0.62948  0.5375999999999999  0.16127  1.0000
  C   C34       1.0  0.73129  0.5745699999999999  0.13643  1.0000
  C   C35       1.0  0.29157  0.44715  0.9189  1.0000
  C   C36       1.0  0.39433  0.43636  0.18433  1.0000
  C   C37       1.0  0.27553  0.45327  0.20587000000000005  1.0000
  C   C38       1.0  0.2495  0.4237799999999999  0.25593  1.0000
  C   C39       1.0  0.44869  0.3628699999999999  0.2676  1.0000
  C   C40       1.0  0.48197  0.3897599999999999  0.21773000000000003  1.0000
  C   C41       1.0  0.48141000000000006  0.44549  0.61743  1.0000
  C   C42       1.0  0.40058  0.45728999999999986  0.66163  1.0000
  C   C43       1.0  0.29516  0.50419  0.64418  1.0000
  C   C44       1.0  0.31048  0.52304  0.58949  1.0000
  C   C45       1.0  0.22330999999999998  0.5716299999999999  0.55764  1.0000
  C   C46       1.0  0.23439  0.5934899999999997  0.50414  1.0000
  C   C47       1.0  0.14521  0.64661  0.47361  1.0000
  C   C48       1.0  0.19273  0.65532  0.4242  1.0000
  C   C49       1.0  0.31094  0.6064299999999998  0.42425  1.0000
  C   C50       1.0  0.6011  0.40077999999999997  0.61938  1.0000
  C   C51       1.0  0.6416599999999999  0.35676  0.66872  1.0000
  C   C52       1.0  0.76433  0.36753999999999987  0.69116  1.0000
  C   C53       1.0  0.7945600000000002  0.3323099999999999  0.7403900000000002  1.0000
  C   C54       1.0  0.59763  0.26734  0.74646  1.0000
  C   C55       1.0  0.55975  0.30098999999999987  0.6977600000000003  1.0000
  C   C56       1.0  0.10586  0.6040299999999997  0.58287  1.0000
  C   C57       1.0  0.99761  0.54861  0.58418  1.0000
  C   C58       1.0  0.8897900000000001  0.58149  0.60779  1.0000
  C   C59       1.0  0.98692  0.72011  0.62761  1.0000
  C   C60       1.0  0.09831  0.69155  0.60549  1.0000
  C   C61       1.0  0.5012  0.7340999999999998  0.60144  1.0000
  C   C62       1.0  0.40312999999999993  0.77518  0.57265  1.0000
  C   C63       1.0  0.40622  0.8695799999999998  0.56249  1.0000
  C   C64       1.0  0.5174  0.9166899999999998  0.57697  1.0000
  C   C65       1.0  0.61447  0.8699899999999999  0.60369  1.0000
  C   C66       1.0  0.29001  0.9171299999999998  0.54182  1.0000
  C   C67       1.0  0.26529  0.9182599999999997  0.48758  1.0000
  C   C68       1.0  0.33735  0.86885  0.44994  1.0000
  C   C69       1.0  0.27624  0.87903  0.40216  1.0000
  C   C70       1.0  0.1674  0.9374999999999998  0.40970000000000006  1.0000
  C   C71       1.0  0.07765  0.96311  0.36971000000000004  1.0000
  C   C72       1.0  0.95975  0.007219999999999998  0.37884  1.0000
  C   C73       1.0  0.8705200000000001  0.03759  0.33872  1.0000
  C   C74       1.0  0.76871  0.07455  0.36357000000000006  1.0000
  C   C75       1.0  0.20846  0.9471999999999998  0.58111  1.0000
  C   C76       1.0  0.10568  0.9363599999999997  0.31567000000000006  1.0000
  C   C77       1.0  0.22447999999999999  0.9532799999999998  0.29413  1.0000
  C   C78       1.0  0.25052  0.9237999999999997  0.24406  1.0000
  C   C79       1.0  0.05133000000000001  0.8628799999999998  0.23240000000000002  1.0000
  C   C80       1.0  0.01806  0.88976  0.28227  1.0000
  C   C81       1.0  0.99055  0.04967999999999999  0.11733  1.0000
  C   C82       1.0  0.9185  0.02635  0.16265  1.0000
  C   C83       1.0  0.8118200000000001  0.9808999999999998  0.14519  1.0000
  C   C84       1.0  0.81806  0.9738799999999997  0.08925000000000001  1.0000
  C   C85       1.0  0.72822  0.9296699999999999  0.05673000000000001  1.0000
  C   C86       1.0  0.73768  0.9091499999999998  0.0031000000000000003  1.0000
  C   C87       1.0  0.65435  0.84934  0.97391  1.0000
  C   C88       1.0  0.70381  0.8390499999999997  0.92501  1.0000
  C   C89       1.0  0.81693  0.8938299999999998  0.92381  1.0000
  C   C90       1.0  0.10776  0.09771  0.11906000000000001  1.0000
  C   C91       1.0  0.14579  0.13804999999999998  0.16978  1.0000
  C   C92       1.0  0.26661  0.12667  0.1938  1.0000
  C   C93       1.0  0.29096  0.1578  0.24447  1.0000
  C   C94       1.0  0.09079  0.21754  0.2497  1.0000
  C   C95       1.0  0.05872000000000001  0.18819999999999995  0.19950000000000004  1.0000
  C   C96       1.0  0.61331  0.8942699999999998  0.08203000000000002  1.0000
  C   C97       1.0  0.50359  0.9476599999999997  0.08379000000000002  1.0000
  C   C98       1.0  0.3978  0.9123999999999998  0.10762000000000001  1.0000
  C   C99       1.0  0.50008  0.7746899999999998  0.12587  1.0000
  C   C100      1.0  0.61002  0.80575  0.10348  1.0000
  C   C101      1.0  0.027690000000000003  0.77719  0.08718  1.0000
  C   C102      1.0  0.9241600000000001  0.7388799999999998  0.06034  1.0000
  C   C103      1.0  0.9050599999999999  0.6435899999999998  0.06135000000000001  1.0000
  C   C104      1.0  0.002150000000000001  0.58995  0.08437  1.0000
  C   C105      1.0  0.10525  0.63299  0.10875  1.0000
  C   C106      1.0  0.78383  0.60202  0.041750000000000016  1.0000
  C   C107      1.0  0.75877  0.60118  0.98745  1.0000
  C   C108      1.0  0.84156  0.63706  0.94879  1.0000
  C   C109      1.0  0.78354  0.6231  0.9006  1.0000
  C   C110      1.0  0.66499  0.57671  0.9093100000000001  1.0000
  C   C111      1.0  0.5756  0.5493099999999997  0.8698  1.0000
  C   C112      1.0  0.45848  0.5046999999999998  0.87944  1.0000
  C   C113      1.0  0.38095000000000007  0.45934  0.83992  1.0000
  C   C114      1.0  0.27657  0.42521  0.8642100000000003  1.0000
  C   C115      1.0  0.70446  0.56834  0.08109  1.0000
  C   C116      1.0  0.6024000000000002  0.5677299999999997  0.8146300000000002  1.0000
  C   C117      1.0  0.71789  0.54531  0.7917600000000002  1.0000
  C   C118      1.0  0.73806  0.5677  0.73993  1.0000
  C   C119      1.0  0.53862  0.6288899999999997  0.72932  1.0000
  C   C120      1.0  0.51085  0.6090999999999998  0.7807900000000001  1.0000
  C   C121      1.0  0.50947  0.5496899999999999  0.38266000000000006  1.0000
  C   C122      1.0  0.58152  0.52636  0.33734  1.0000
  C   C123      1.0  0.68821  0.4809199999999999  0.3548  1.0000
  C   C124      1.0  0.68195  0.47388999999999987  0.41075  1.0000
  C   C125      1.0  0.77176  0.4296599999999999  0.44327000000000005  1.0000
  C   C126      1.0  0.7622900000000001  0.40915  0.4969  1.0000
  C   C127      1.0  0.84563  0.3493399999999999  0.52609  1.0000
  C   C128      1.0  0.79618  0.3390499999999999  0.575  1.0000
  C   C129      1.0  0.68305  0.3938199999999999  0.57619  1.0000
  C   C130      1.0  0.39226000000000005  0.59772  0.38093  1.0000
  C   C131      1.0  0.3542199999999999  0.6380499999999998  0.33022  1.0000
  C   C132      1.0  0.23339999999999994  0.62668  0.30619  1.0000
  C   C133      1.0  0.20907  0.6578  0.25552  1.0000
  C   C134      1.0  0.40923  0.7175399999999997  0.2503  1.0000
  C   C135      1.0  0.44128000000000006  0.6882099999999998  0.3005  1.0000
  C   C136      1.0  0.88669  0.39427  0.41798  1.0000
  C   C137      1.0  0.9963999999999998  0.4476599999999999  0.41621  1.0000
  C   C138      1.0  0.10218  0.4124  0.39238000000000006  1.0000
  C   C139      1.0  0.99992  0.27469  0.37413  1.0000
  C   C140      1.0  0.8899799999999999  0.30574  0.3965400000000001  1.0000
  C   C141      1.0  0.47232  0.27717  0.41282  1.0000
  C   C142      1.0  0.57584  0.23886  0.43965  1.0000
  C   C143      1.0  0.59494  0.14356999999999995  0.43865  1.0000
  C   C144      1.0  0.4978500000000001  0.08994999999999997  0.41563000000000005  1.0000
  C   C145      1.0  0.39475  0.13298999999999997  0.39125  1.0000
  C   C146      1.0  0.71618  0.10201999999999997  0.45825  1.0000
  C   C147      1.0  0.74123  0.10117  0.51255  1.0000
  C   C148      1.0  0.65844  0.13704999999999995  0.55122  1.0000
  C   C149      1.0  0.71645  0.12309999999999997  0.5994  1.0000
  C   C150      1.0  0.8350099999999999  0.07671999999999997  0.59069  1.0000
  C   C151      1.0  0.9244  0.04931999999999999  0.63021  1.0000
  C   C152      1.0  0.04151  0.004719999999999999  0.62056  1.0000
  C   C153      1.0  0.11904000000000002  0.95936  0.6600900000000001  1.0000
  C   C154      1.0  0.22343000000000002  0.92523  0.6358000000000003  1.0000
  C   C155      1.0  0.79552  0.06832  0.4189  1.0000
  C   C156      1.0  0.89757  0.06773  0.68538  1.0000
  C   C157      1.0  0.78208  0.04531  0.70825  1.0000
  C   C158      1.0  0.76191  0.06767  0.7600900000000002  1.0000
  C   C159      1.0  0.96133  0.12888  0.7707  1.0000
  C   C160      1.0  0.98911  0.10910999999999998  0.71922  1.0000
  N   N1        1.0  0.07429  0.9872799999999998  0.92597  1.0000
  N   N2        1.0  0.16457  0.06971999999999998  0.02662  1.0000
  N   N3        1.0  0.78759  0.7843199999999998  0.73056  1.0000
  N   N4        1.0  0.61685  0.16617999999999994  0.8704500000000002  1.0000
  N   N5        1.0  0.8948  0.28068  0.88155  1.0000
  N   N6        1.0  0.33326  0.37792  0.28745  1.0000
  N   N7        1.0  0.40349  0.4951399999999999  0.92725  1.0000
  N   N8        1.0  0.33789  0.45959  0.03792  1.0000
  N   N9        1.0  0.42569  0.48726999999999987  0.57404  1.0000
  N   N10       1.0  0.33543  0.5697  0.47337  1.0000
  N   N11       1.0  0.7123699999999998  0.2843199999999999  0.76944  1.0000
  N   N12       1.0  0.88316  0.6661799999999998  0.6295500000000002  1.0000
  N   N13       1.0  0.60518  0.78068  0.61847  1.0000
  N   N14       1.0  0.16676  0.8779399999999998  0.21254000000000003  1.0000
  N   N15       1.0  0.09653  0.9951699999999998  0.57276  1.0000
  N   N16       1.0  0.16209000000000004  0.9595699999999999  0.46208  1.0000
  N   N17       1.0  0.9293300000000001  0.014569999999999996  0.0733  1.0000
  N   N18       1.0  0.83649  0.9352799999999998  0.97191  1.0000
  N   N19       1.0  0.20496000000000003  0.20179999999999998  0.27357  1.0000
  N   N20       1.0  0.39528  0.8273599999999998  0.12907  1.0000
  N   N21       1.0  0.11568  0.7255699999999998  0.11317000000000003  1.0000
  N   N22       1.0  0.6520500000000001  0.61115  0.7082900000000001  1.0000
  N   N23       1.0  0.58649  0.52814  0.07262  1.0000
  N   N24       1.0  0.65109  0.56511  0.9624800000000001  1.0000
  N   N25       1.0  0.5706899999999999  0.51459  0.42669  1.0000
  N   N26       1.0  0.66347  0.43527  0.52809  1.0000
  N   N27       1.0  0.29506  0.7018  0.22643000000000005  1.0000
  N   N28       1.0  0.10471000000000001  0.32736  0.37093000000000004  1.0000
  N   N29       1.0  0.38432999999999995  0.22556  0.38682000000000005  1.0000
  N   N30       1.0  0.8479100000000002  0.11111999999999997  0.79173  1.0000
  N   N31       1.0  0.91351  0.02813999999999999  0.42738  1.0000
  N   N32       1.0  0.84892  0.06513  0.53753  1.0000
