data_image0
_chemical_formula_structural       Cd16H36C108O72
_chemical_formula_sum              "Cd16 H36 C108 O72"
_cell_length_a       10.46459
_cell_length_b       10.4645
_cell_length_c       52.40447
_cell_angle_alpha    90.0
_cell_angle_beta     90.0
_cell_angle_gamma    90.0

_symmetry_space_group_name_H-M    'P 1'
_symmetry_Int_Tables_number       1

loop_
  _symmetry_equiv_pos_as_xyz
  'x,y,z'

loop_
  _atom_site_type_symbol
  _atom_site_label
  _atom_site_symmetry_multiplicity
  _atom_site_fract_x
  _atom_site_fract_y
  _atom_site_fract_z
  _atom_site_occupancy
  Cd  Cd1       1.0  0.2515  0.85145  0.42045  1.0000
  Cd  Cd2       1.0  0.85144  0.7485  0.17045  1.0000
  Cd  Cd3       1.0  0.9356700000000001  0.63997  0.77362  1.0000
  Cd  Cd4       1.0  0.2515  0.14855  0.07955  1.0000
  Cd  Cd5       1.0  0.7485000000000002  0.14855  0.9204500000000001  1.0000
  Cd  Cd6       1.0  0.06433  0.63997  0.22638  1.0000
  Cd  Cd7       1.0  0.14856  0.7485  0.82955  1.0000
  Cd  Cd8       1.0  0.6399700000000001  0.06432  0.52362  1.0000
  Cd  Cd9       1.0  0.36003  0.06432  0.47638  1.0000
  Cd  Cd10      1.0  0.06433  0.36003  0.27362  1.0000
  Cd  Cd11      1.0  0.36003  0.9356800000000001  0.02362  1.0000
  Cd  Cd12      1.0  0.7485000000000002  0.85145  0.57955  1.0000
  Cd  Cd13      1.0  0.14856  0.2515  0.6704500000000001  1.0000
  Cd  Cd14      1.0  0.6399700000000001  0.9356800000000001  0.97638  1.0000
  Cd  Cd15      1.0  0.85144  0.2515  0.32955  1.0000
  Cd  Cd16      1.0  0.9356700000000001  0.36003  0.72638  1.0000
  H   H1        1.0  0.3842500000000001  0.47513  0.46596  1.0000
  H   H2        1.0  0.5248700000000001  0.6157500000000001  0.78404  1.0000
  H   H3        1.0  0.11756  0.04437000000000001  0.52268  1.0000
  H   H4        1.0  0.12078  0.34764  0.16064  1.0000
  H   H5        1.0  0.044370000000000014  0.11757000000000002  0.22732  1.0000
  H   H6        1.0  0.95563  0.8824300000000003  0.72732  1.0000
  H   H7        1.0  0.8792200000000001  0.34764  0.83936  1.0000
  H   H8        1.0  0.47513000000000005  0.6157500000000001  0.21596  1.0000
  H   H9        1.0  0.0629  0.8673000000000001  0.09471  1.0000
  H   H10       1.0  0.1327  0.0629  0.34470000000000006  1.0000
  H   H11       1.0  0.11756  0.95563  0.97732  1.0000
  H   H12       1.0  0.044370000000000014  0.8824300000000003  0.27268  1.0000
  H   H13       1.0  0.8792200000000001  0.65236  0.66064  1.0000
  H   H14       1.0  0.3476400000000001  0.12078000000000001  0.58936  1.0000
  H   H15       1.0  0.88244  0.95563  0.02268  1.0000
  H   H16       1.0  0.95563  0.11757000000000002  0.77268  1.0000
  H   H17       1.0  0.6523600000000002  0.12078000000000001  0.41064000000000006  1.0000
  H   H18       1.0  0.8318800000000001  0.5  0.25  1.0000
  H   H19       1.0  0.5  0.16812000000000002  0.0  1.0000
  H   H20       1.0  0.5248700000000001  0.38425  0.7159700000000001  1.0000
  H   H21       1.0  0.5  0.83189  0.5  1.0000
  H   H22       1.0  0.9371000000000002  0.1327  0.59471  1.0000
  H   H23       1.0  0.0629  0.1327  0.4053  1.0000
  H   H24       1.0  0.3842500000000001  0.52487  0.03404  1.0000
  H   H25       1.0  0.3476400000000001  0.87923  0.91064  1.0000
  H   H26       1.0  0.16812  0.5  0.75  1.0000
  H   H27       1.0  0.8673000000000001  0.93711  0.84471  1.0000
  H   H28       1.0  0.12078  0.65236  0.33936  1.0000
  H   H29       1.0  0.9371000000000002  0.8673000000000001  0.9053000000000001  1.0000
  H   H30       1.0  0.8673000000000001  0.0629  0.6553000000000001  1.0000
  H   H31       1.0  0.61575  0.52487  0.9659700000000001  1.0000
  H   H32       1.0  0.88244  0.04437000000000001  0.47732  1.0000
  H   H33       1.0  0.6523600000000002  0.87923  0.08936  1.0000
  H   H34       1.0  0.61575  0.47513  0.53404  1.0000
  H   H35       1.0  0.47513000000000005  0.38425  0.28404  1.0000
  H   H36       1.0  0.1327  0.93711  0.15530000000000005  1.0000
  C   C1        1.0  0.52708  0.56515  0.23084  1.0000
  C   C2        1.0  0.88994  0.7456700000000002  0.6695500000000001  1.0000
  C   C3        1.0  0.7548100000000001  0.9247500000000001  0.05467000000000001  1.0000
  C   C4        1.0  0.9770000000000002  0.11805  0.41661  1.0000
  C   C5        1.0  0.3669400000000001  0.7297000000000001  0.46012  1.0000
  C   C6        1.0  0.88195  0.02301  0.83339  1.0000
  C   C7        1.0  0.92249  0.88477  0.7957  1.0000
  C   C8        1.0  0.56489  0.66091  0.51918  1.0000
  C   C9        1.0  0.31742  0.5  0.25  1.0000
  C   C10       1.0  0.47292000000000006  0.43486  0.73084  1.0000
  C   C11       1.0  0.0508  0.36476  0.21024  1.0000
  C   C12       1.0  0.5651400000000001  0.5270800000000001  0.51917  1.0000
  C   C13       1.0  0.82764  0.8466600000000001  0.6281400000000001  1.0000
  C   C14       1.0  0.8750200000000001  0.93388  0.04295  1.0000
  C   C15       1.0  0.11805  0.02301  0.16661  1.0000
  C   C16       1.0  0.13175  0.14343  0.15526  1.0000
  C   C17       1.0  0.07525000000000001  0.24520000000000003  0.19533  1.0000
  C   C18       1.0  0.3647600000000001  0.9492  0.9602400000000001  1.0000
  C   C19       1.0  0.14343  0.86825  0.9052600000000002  1.0000
  C   C20       1.0  0.27030000000000004  0.36693  0.71012  1.0000
  C   C21       1.0  0.52708  0.43486  0.26916  1.0000
  C   C22       1.0  0.5  0.53952  0.0  1.0000
  C   C23       1.0  0.11524000000000002  0.92249  0.04569  1.0000
  C   C24       1.0  0.023000000000000003  0.8819500000000001  0.91661  1.0000
  C   C25       1.0  0.93388  0.12498  0.7929500000000002  1.0000
  C   C26       1.0  0.9492  0.6352400000000001  0.7102400000000001  1.0000
  C   C27       1.0  0.92249  0.11524000000000001  0.70431  1.0000
  C   C28       1.0  0.8750200000000001  0.06612  0.4570500000000001  1.0000
  C   C29       1.0  0.27030000000000004  0.63307  0.7898800000000001  1.0000
  C   C30       1.0  0.9132300000000001  0.01385  0.80743  1.0000
  C   C31       1.0  0.5  0.72819  0.5  1.0000
  C   C32       1.0  0.11006  0.7456700000000002  0.33045  1.0000
  C   C33       1.0  0.3669400000000001  0.2703  0.03988  1.0000
  C   C34       1.0  0.9132300000000001  0.98616  0.69257  1.0000
  C   C35       1.0  0.8565700000000002  0.86825  0.09474  1.0000
  C   C36       1.0  0.11524000000000002  0.07751000000000001  0.45431  1.0000
  C   C37       1.0  0.17236  0.15335  0.12814  1.0000
  C   C38       1.0  0.07751000000000001  0.11524000000000001  0.29569  1.0000
  C   C39       1.0  0.7281900000000001  0.5  0.25  1.0000
  C   C40       1.0  0.023000000000000003  0.11805  0.58339  1.0000
  C   C41       1.0  0.43486  0.5270800000000001  0.48084  1.0000
  C   C42       1.0  0.4604800000000001  0.5  0.25  1.0000
  C   C43       1.0  0.013840000000000003  0.91323  0.94257  1.0000
  C   C44       1.0  0.14343  0.13175000000000003  0.59475  1.0000
  C   C45       1.0  0.7297000000000001  0.63307  0.21012000000000003  1.0000
  C   C46       1.0  0.93388  0.8750200000000001  0.70705  1.0000
  C   C47       1.0  0.11006  0.25434000000000007  0.16955  1.0000
  C   C48       1.0  0.15335000000000001  0.82765  0.8781400000000001  1.0000
  C   C49       1.0  0.98616  0.91323  0.05743  1.0000
  C   C50       1.0  0.6352400000000001  0.9492  0.03976  1.0000
  C   C51       1.0  0.11805  0.9770000000000001  0.33339  1.0000
  C   C52       1.0  0.88994  0.25434000000000007  0.83045  1.0000
  C   C53       1.0  0.5  0.68259  0.0  1.0000
  C   C54       1.0  0.7456700000000002  0.11006  0.41955  1.0000
  C   C55       1.0  0.9247500000000002  0.24520000000000003  0.8046800000000001  1.0000
  C   C56       1.0  0.7548100000000001  0.07525  0.44533  1.0000
  C   C57       1.0  0.82764  0.15335  0.87187  1.0000
  C   C58       1.0  0.5651400000000001  0.47292  0.98084  1.0000
  C   C59       1.0  0.06612  0.8750200000000001  0.29295  1.0000
  C   C60       1.0  0.9247500000000002  0.75481  0.69533  1.0000
  C   C61       1.0  0.63306  0.2703  0.96012  1.0000
  C   C62       1.0  0.98616  0.08677000000000001  0.4425700000000001  1.0000
  C   C63       1.0  0.6609100000000001  0.43511000000000005  0.26918  1.0000
  C   C64       1.0  0.86825  0.14343  0.84475  1.0000
  C   C65       1.0  0.86825  0.85658  0.6552600000000002  1.0000
  C   C66       1.0  0.33909000000000006  0.43511000000000005  0.73082  1.0000
  C   C67       1.0  0.8847600000000001  0.92249  0.95431  1.0000
  C   C68       1.0  0.0508  0.6352400000000001  0.28976  1.0000
  C   C69       1.0  0.9770000000000002  0.8819500000000001  0.08339  1.0000
  C   C70       1.0  0.8847600000000001  0.07751000000000001  0.5457  1.0000
  C   C71       1.0  0.43486  0.47292  0.01916  1.0000
  C   C72       1.0  0.12498000000000002  0.06612  0.54295  1.0000
  C   C73       1.0  0.08677000000000001  0.98616  0.30743  1.0000
  C   C74       1.0  0.43511000000000005  0.66091  0.48082  1.0000
  C   C75       1.0  0.53952  0.5  0.75  1.0000
  C   C76       1.0  0.6352400000000001  0.050800000000000005  0.46024  1.0000
  C   C77       1.0  0.27181000000000005  0.5  0.75  1.0000
  C   C78       1.0  0.9492  0.36476  0.78976  1.0000
  C   C79       1.0  0.5  0.27181  0.0  1.0000
  C   C80       1.0  0.17236  0.8466600000000001  0.37186  1.0000
  C   C81       1.0  0.24519000000000002  0.07525  0.55468  1.0000
  C   C82       1.0  0.07525000000000001  0.75481  0.30468  1.0000
  C   C83       1.0  0.13175  0.85658  0.34475  1.0000
  C   C84       1.0  0.15335000000000001  0.17236  0.62187  1.0000
  C   C85       1.0  0.08677000000000001  0.01385  0.19257  1.0000
  C   C86       1.0  0.84665  0.17236  0.37814  1.0000
  C   C87       1.0  0.63306  0.7297000000000001  0.53988  1.0000
  C   C88       1.0  0.12498000000000002  0.93388  0.95705  1.0000
  C   C89       1.0  0.5  0.46048000000000006  0.5  1.0000
  C   C90       1.0  0.43511000000000005  0.33909  0.01918  1.0000
  C   C91       1.0  0.33909000000000006  0.56489  0.76918  1.0000
  C   C92       1.0  0.6609100000000001  0.56489  0.23082  1.0000
  C   C93       1.0  0.56489  0.33909  0.98082  1.0000
  C   C94       1.0  0.25433000000000006  0.88995  0.9195500000000001  1.0000
  C   C95       1.0  0.06612  0.12498  0.20705  1.0000
  C   C96       1.0  0.24519000000000002  0.9247500000000001  0.94533  1.0000
  C   C97       1.0  0.07751000000000001  0.88477  0.20431  1.0000
  C   C98       1.0  0.7297000000000001  0.36693  0.28988  1.0000
  C   C99       1.0  0.5  0.31742  0.5  1.0000
  C   C100      1.0  0.013840000000000003  0.08677000000000001  0.55743  1.0000
  C   C101      1.0  0.84665  0.82765  0.12186  1.0000
  C   C102      1.0  0.88195  0.9770000000000001  0.66661  1.0000
  C   C103      1.0  0.8565700000000002  0.13175000000000003  0.40526  1.0000
  C   C104      1.0  0.25433000000000006  0.11006  0.58045  1.0000
  C   C105      1.0  0.47292000000000006  0.56515  0.76917  1.0000
  C   C106      1.0  0.7456700000000002  0.88995  0.08045  1.0000
  C   C107      1.0  0.3647600000000001  0.050800000000000005  0.53976  1.0000
  C   C108      1.0  0.6825800000000001  0.5  0.75  1.0000
  O   O1        1.0  0.64311  0.00133  0.01783  1.0000
  O   O2        1.0  0.8683200000000001  0.9067600000000001  0.97805  1.0000
  O   O3        1.0  0.33061  0.33078  0.05967  1.0000
  O   O4        1.0  0.33078  0.33061  0.69033  1.0000
  O   O5        1.0  0.59414  0.73604  0.98897  1.0000
  O   O6        1.0  0.7386300000000001  0.81944  0.13288  1.0000
  O   O7        1.0  0.20076000000000002  0.9504700000000001  0.38392  1.0000
  O   O8        1.0  0.4705600000000001  0.08162  0.55031  1.0000
  O   O9        1.0  0.04954  0.20076  0.63392  1.0000
  O   O10       1.0  0.59414  0.26396  0.51104  1.0000
  O   O11       1.0  0.00132  0.3569  0.76784  1.0000
  O   O12       1.0  0.52944  0.91839  0.05031  1.0000
  O   O13       1.0  0.66939  0.33078  0.94033  1.0000
  O   O14       1.0  0.7876400000000001  0.94525  0.93957  1.0000
  O   O15       1.0  0.64311  0.99868  0.48217  1.0000
  O   O16       1.0  0.65566  0.85042  0.53809  1.0000
  O   O17       1.0  0.26137000000000005  0.81944  0.86712  1.0000
  O   O18       1.0  0.04954  0.79925  0.86608  1.0000
  O   O19       1.0  0.40586000000000005  0.26396  0.4889600000000001  1.0000
  O   O20       1.0  0.34434000000000003  0.14958000000000002  0.03809  1.0000
  O   O21       1.0  0.65566  0.14958000000000002  0.96192  1.0000
  O   O22       1.0  0.9986800000000001  0.6431  0.26783  1.0000
  O   O23       1.0  0.33078  0.6694000000000001  0.80967  1.0000
  O   O24       1.0  0.95046  0.20076  0.36608000000000007  1.0000
  O   O25       1.0  0.7876400000000001  0.05475  0.56044  1.0000
  O   O26       1.0  0.26137000000000005  0.18057  0.63288  1.0000
  O   O27       1.0  0.91839  0.52943  0.69969  1.0000
  O   O28       1.0  0.52944  0.08162  0.44969  1.0000
  O   O29       1.0  0.13168000000000002  0.09324  0.47805  1.0000
  O   O30       1.0  0.08161  0.4705700000000001  0.19969  1.0000
  O   O31       1.0  0.9067600000000001  0.13168000000000002  0.72805  1.0000
  O   O32       1.0  0.13168000000000002  0.9067600000000001  0.021950000000000004  1.0000
  O   O33       1.0  0.05475  0.21236000000000002  0.31043  1.0000
  O   O34       1.0  0.95046  0.79925  0.13392  1.0000
  O   O35       1.0  0.9986800000000001  0.3569  0.23217  1.0000
  O   O36       1.0  0.40586000000000005  0.73604  0.01104  1.0000
  O   O37       1.0  0.26396000000000003  0.59414  0.23896  1.0000
  O   O38       1.0  0.35689000000000004  0.99868  0.51783  1.0000
  O   O39       1.0  0.21236000000000002  0.94525  0.06043  1.0000
  O   O40       1.0  0.34434000000000003  0.85042  0.46192  1.0000
  O   O41       1.0  0.91839  0.4705700000000001  0.80031  1.0000
  O   O42       1.0  0.21236000000000002  0.05475  0.4395700000000001  1.0000
  O   O43       1.0  0.09324  0.8683200000000001  0.22805000000000003  1.0000
  O   O44       1.0  0.85042  0.34434000000000003  0.28809  1.0000
  O   O45       1.0  0.66939  0.66923  0.55967  1.0000
  O   O46       1.0  0.9452500000000001  0.7876400000000001  0.81044  1.0000
  O   O47       1.0  0.8683200000000001  0.09324  0.52196  1.0000
  O   O48       1.0  0.14958  0.65567  0.78809  1.0000
  O   O49       1.0  0.05475  0.7876400000000001  0.18957000000000002  1.0000
  O   O50       1.0  0.33061  0.66923  0.44033  1.0000
  O   O51       1.0  0.09324  0.13168000000000002  0.27195  1.0000
  O   O52       1.0  0.26396000000000003  0.40586  0.26104  1.0000
  O   O53       1.0  0.18057000000000004  0.73864  0.38288  1.0000
  O   O54       1.0  0.18057000000000004  0.26136  0.11712  1.0000
  O   O55       1.0  0.14958  0.34434000000000003  0.71192  1.0000
  O   O56       1.0  0.9452500000000001  0.21236000000000002  0.68957  1.0000
  O   O57       1.0  0.6692200000000003  0.33061  0.30967000000000006  1.0000
  O   O58       1.0  0.4705600000000001  0.91839  0.94969  1.0000
  O   O59       1.0  0.00132  0.6431  0.73217  1.0000
  O   O60       1.0  0.6692200000000003  0.6694000000000001  0.19033  1.0000
  O   O61       1.0  0.7386300000000001  0.18057  0.36712  1.0000
  O   O62       1.0  0.08161  0.52943  0.30031  1.0000
  O   O63       1.0  0.73604  0.59414  0.7610400000000002  1.0000
  O   O64       1.0  0.85042  0.65567  0.21192  1.0000
  O   O65       1.0  0.35689000000000004  0.00133  0.98217  1.0000
  O   O66       1.0  0.7992400000000001  0.9504700000000001  0.61608  1.0000
  O   O67       1.0  0.81943  0.26136  0.8828900000000001  1.0000
  O   O68       1.0  0.20076000000000002  0.049530000000000005  0.11608  1.0000
  O   O69       1.0  0.81943  0.73864  0.61712  1.0000
  O   O70       1.0  0.73604  0.40586  0.73897  1.0000
  O   O71       1.0  0.7992400000000001  0.049530000000000005  0.88392  1.0000
  O   O72       1.0  0.9067600000000001  0.8683200000000001  0.77196  1.0000
