data_image0
_chemical_formula_structural       Mn12P8H96C168O60
_chemical_formula_sum              "Mn12 P8 H96 C168 O60"
_cell_length_a       15.89005
_cell_length_b       20.388489999999997
_cell_length_c       22.16163
_cell_angle_alpha    117.64389
_cell_angle_beta     108.66992
_cell_angle_gamma    89.53785

_space_group_name_H-M_alt    "P 1"
_space_group_IT_number       1

loop_
  _space_group_symop_operation_xyz
  'x, y, z'

loop_
  _atom_site_type_symbol
  _atom_site_label
  _atom_site_symmetry_multiplicity
  _atom_site_fract_x
  _atom_site_fract_y
  _atom_site_fract_z
  _atom_site_occupancy
  Mn  Mn1       1.0  0.6674  0.65574  0.46340999999999993  1.0000
  Mn  Mn2       1.0  0.8711899999999999  0.7079499999999999  0.5572099999999999  1.0000
  Mn  Mn3       1.0  0.99034  0.5447299999999999  0.9282099999999999  1.0000
  Mn  Mn4       1.0  0.82929  0.19467000000000004  0.53262  1.0000
  Mn  Mn5       1.0  0.62521  0.1736999999999999  0.4499099999999999  1.0000
  Mn  Mn6       1.0  0.5186  0.6208899999999999  0.07365  1.0000
  Mn  Mn7       1.0  0.33487999999999996  0.34421999999999997  0.5370499999999999  1.0000
  Mn  Mn8       1.0  0.13115  0.2872799999999999  0.44265  1.0000
  Mn  Mn9       1.0  0.008559999999999995  0.44975  0.06880999999999998  1.0000
  Mn  Mn10      1.0  0.15348  0.78586  0.4676699999999999  1.0000
  Mn  Mn11      1.0  0.35896  0.8443499999999999  0.54866  1.0000
  Mn  Mn12      1.0  0.48518  0.38217999999999985  0.92636  1.0000
  P   P1        1.0  0.027709999999999884  0.6954399999999998  0.6856099999999998  1.0000
  P   P2        1.0  0.50573  0.5217  0.32853  1.0000
  P   P3        1.0  0.49294  0.01873999999999999  0.32234  1.0000
  P   P4        1.0  0.9937199999999999  0.18483999999999992  0.6655299999999998  1.0000
  P   P5        1.0  0.97516  0.30158999999999997  0.31519  1.0000
  P   P6        1.0  0.49391  0.48157  0.67213  1.0000
  P   P7        1.0  0.5175  0.9875699999999997  0.6738199999999998  1.0000
  P   P8        1.0  0.016110000000000027  0.80764  0.33509  1.0000
  H   H1        1.0  0.4325599999999999  0.6417399999999999  0.4124499999999999  1.0000
  H   H2        1.0  0.14667  0.5663  0.30732  1.0000
  H   H3        1.0  0.17175  0.44954  0.20972  1.0000
  H   H4        1.0  0.38354  0.7691900000000002  0.70598  1.0000
  H   H5        1.0  0.3633399999999999  0.7245399999999997  0.7888499999999998  1.0000
  H   H6        1.0  0.39101  0.45700999999999997  0.37290999999999996  1.0000
  H   H7        1.0  0.57072  0.35794  0.48351  1.0000
  H   H8        1.0  0.69536  0.3974299999999999  0.45594  1.0000
  H   H9        1.0  0.6716599999999998  0.47154  0.3914899999999999  1.0000
  H   H10       1.0  0.91564  0.37935  0.5177  1.0000
  H   H11       1.0  0.1253  0.57083  0.63137  1.0000
  H   H12       1.0  0.8513199999999999  0.60076  0.62371  1.0000
  H   H13       1.0  0.8055199999999997  0.4639199999999998  0.5538299999999998  1.0000
  H   H14       1.0  0.09597999999999995  0.7439  0.6094599999999999  1.0000
  H   H15       1.0  0.2101099999999999  0.6923299999999999  0.7841299999999998  1.0000
  H   H16       1.0  0.03304000000000001  0.6153399999999999  0.76917  1.0000
  H   H17       1.0  0.9633499999999998  0.77752  0.94767  1.0000
  H   H18       1.0  0.96646  0.8714399999999999  0.9049899999999999  1.0000
  H   H19       1.0  0.99574  0.8339499999999997  0.7900799999999999  1.0000
  H   H20       1.0  0.5475  0.5588699999999999  0.22939999999999997  1.0000
  H   H21       1.0  0.48797  0.358  0.23799999999999996  1.0000
  H   H22       1.0  0.49808  0.28011  0.11516  1.0000
  H   H23       1.0  0.53256  0.34149  0.049929999999999995  1.0000
  H   H24       1.0  0.32705  0.42894  0.21369  1.0000
  H   H25       1.0  0.0608599999999999  0.22545999999999994  0.5817599999999999  1.0000
  H   H26       1.0  0.3471  0.28062  0.69591  1.0000
  H   H27       1.0  0.32805999999999996  0.2487799999999998  0.7877099999999999  1.0000
  H   H28       1.0  0.13135  0.05986999999999999  0.2968  1.0000
  H   H29       1.0  0.16056  0.9359999999999999  0.21111  1.0000
  H   H30       1.0  0.11060999999999994  0.07177999999999997  0.62489  1.0000
  H   H31       1.0  0.92721  0.8662299999999999  0.52481  1.0000
  H   H32       1.0  0.8038  0.9382599999999995  0.5478299999999999  1.0000
  H   H33       1.0  0.8298599999999999  0.07684999999999993  0.6052399999999999  1.0000
  H   H34       1.0  0.57284  0.85522  0.47685  1.0000
  H   H35       1.0  0.38769  0.96181  0.3786899999999999  1.0000
  H   H36       1.0  0.66311  0.9722599999999999  0.38328  1.0000
  H   H37       1.0  0.69203  0.89504  0.44382  1.0000
  H   H38       1.0  0.41511  0.14275  0.39939  1.0000
  H   H39       1.0  0.31722999999999996  0.9175  0.21756999999999996  1.0000
  H   H40       1.0  0.48968  0.85479  0.23948999999999998  1.0000
  H   H41       1.0  0.5478699999999997  0.8350799999999999  0.05605  1.0000
  H   H42       1.0  0.5461799999999998  0.97248  0.10006  1.0000
  H   H43       1.0  0.52301  0.05165999999999996  0.21742999999999996  1.0000
  H   H44       1.0  0.95713  0.32431  0.76696  1.0000
  H   H45       1.0  0.008969999999999968  0.11159  0.75583  1.0000
  H   H46       1.0  0.9971900000000001  0.15748  0.87789  1.0000
  H   H47       1.0  0.96613  0.28612999999999994  0.9443499999999999  1.0000
  H   H48       1.0  0.17541000000000007  0.20899000000000004  0.77836  1.0000
  H   H49       1.0  0.56215  0.35583999999999993  0.59278  1.0000
  H   H50       1.0  0.84973  0.4197599999999999  0.70163  1.0000
  H   H51       1.0  0.82837  0.54377  0.79252  1.0000
  H   H52       1.0  0.61751  0.25216  0.30277  1.0000
  H   H53       1.0  0.64173  0.28256  0.21180999999999994  1.0000
  H   H54       1.0  0.6113  0.5464199999999999  0.63005  1.0000
  H   H55       1.0  0.43628  0.6537899999999999  0.52583  1.0000
  H   H56       1.0  0.31010999999999983  0.6130799999999998  0.5506199999999999  1.0000
  H   H57       1.0  0.33018  0.5334899999999999  0.60986  1.0000
  H   H58       1.0  0.09406  0.6167099999999999  0.49017999999999995  1.0000
  H   H59       1.0  0.8802599999999998  0.4278599999999999  0.3676699999999999  1.0000
  H   H60       1.0  0.15499  0.3951  0.37932  1.0000
  H   H61       1.0  0.20352999999999996  0.5309099999999998  0.45349999999999996  1.0000
  H   H62       1.0  0.90255  0.2664399999999999  0.3986699999999999  1.0000
  H   H63       1.0  0.79613  0.3012599999999999  0.21208  1.0000
  H   H64       1.0  0.9684599999999998  0.38111  0.23068  1.0000
  H   H65       1.0  0.03826  0.21841999999999998  0.05232  1.0000
  H   H66       1.0  0.036059999999999995  0.12516  0.09565999999999998  1.0000
  H   H67       1.0  0.007219999999999992  0.16295  0.21071  1.0000
  H   H68       1.0  0.45261  0.44487  0.77093  1.0000
  H   H69       1.0  0.51175  0.64589  0.76242  1.0000
  H   H70       1.0  0.50123  0.72358  0.88522  1.0000
  H   H71       1.0  0.46725999999999995  0.66205  0.9503599999999999  1.0000
  H   H72       1.0  0.67458  0.5728899999999999  0.7842999999999999  1.0000
  H   H73       1.0  0.94454  0.76709  0.41789  1.0000
  H   H74       1.0  0.65973  0.70903  0.29754999999999987  1.0000
  H   H75       1.0  0.6835199999999998  0.7377999999999999  0.20553  1.0000
  H   H76       1.0  0.87674  0.9374199999999996  0.7000199999999999  1.0000
  H   H77       1.0  0.85159  0.06442999999999988  0.7827099999999999  1.0000
  H   H78       1.0  0.8943799999999997  0.9111  0.38214  1.0000
  H   H79       1.0  0.05357999999999999  0.12497999999999992  0.4707299999999999  1.0000
  H   H80       1.0  0.18370999999999998  0.06319999999999996  0.44814999999999994  1.0000
  H   H81       1.0  0.17395  0.9253  0.39665  1.0000
  H   H82       1.0  0.40533  0.14661  0.51631  1.0000
  H   H83       1.0  0.61405  0.05845999999999997  0.62016  1.0000
  H   H84       1.0  0.34234  0.026130000000000014  0.6172  1.0000
  H   H85       1.0  0.29608  0.09833999999999998  0.55205  1.0000
  H   H86       1.0  0.59098  0.8627499999999998  0.59582  1.0000
  H   H87       1.0  0.6964299999999999  0.08916999999999994  0.7744699999999999  1.0000
  H   H88       1.0  0.52359  0.15171  0.76093  1.0000
  H   H89       1.0  0.45717  0.16451999999999997  0.93885  1.0000
  H   H90       1.0  0.45957  0.027009999999999985  0.89248  1.0000
  H   H91       1.0  0.4858599999999999  0.9508899999999999  0.7757299999999999  1.0000
  H   H92       1.0  0.04779999999999999  0.6691799999999999  0.23075  1.0000
  H   H93       1.0  0.0048799999999999955  0.88596  0.24915999999999996  1.0000
  H   H94       1.0  0.014200000000000004  0.84183  0.12648  1.0000
  H   H95       1.0  0.0392  0.7117499999999999  0.05605  1.0000
  H   H96       1.0  0.83787  0.7770799999999999  0.21756  1.0000
  C   C1        1.0  0.37584  0.5994099999999998  0.36801  1.0000
  C   C2        1.0  0.28818  0.6110299999999997  0.36567  1.0000
  C   C3        1.0  0.21448  0.55668  0.30841  1.0000
  C   C4        1.0  0.22880999999999993  0.49168  0.2539599999999999  1.0000
  C   C5        1.0  0.27638  0.68249  0.42395  1.0000
  C   C6        1.0  0.2493  0.78351  0.60101  1.0000
  C   C7        1.0  0.24096  0.7593299999999998  0.6523799999999998  1.0000
  C   C8        1.0  0.31659  0.7544799999999999  0.70385  1.0000
  C   C9        1.0  0.3048099999999999  0.7297299999999998  0.75022  1.0000
  C   C10       1.0  0.3919  0.38436999999999993  0.44220999999999994  1.0000
  C   C11       1.0  0.45858  0.44528  0.39083  1.0000
  C   C12       1.0  0.47299  0.40569  0.42956999999999995  1.0000
  C   C13       1.0  0.55892  0.38905999999999996  0.45366999999999996  1.0000
  C   C14       1.0  0.62917  0.41189  0.43861  1.0000
  C   C15       1.0  0.6155799999999998  0.45256999999999986  0.40102999999999994  1.0000
  C   C16       1.0  0.09904999999999999  0.42373999999999995  0.55502  1.0000
  C   C17       1.0  0.02760000000000006  0.47049  0.57263  1.0000
  C   C18       1.0  0.93723  0.4399799999999999  0.55002  1.0000
  C   C19       1.0  0.054899999999999984  0.5484499999999999  0.61452  1.0000
  C   C20       1.0  0.9924500000000002  0.59562  0.63306  1.0000
  C   C21       1.0  0.90164  0.5651399999999999  0.61098  1.0000
  C   C22       1.0  0.8753399999999998  0.48733999999999994  0.57002  1.0000
  C   C23       1.0  0.15441  0.7399299999999998  0.64896  1.0000
  C   C24       1.0  0.14310999999999993  0.71667  0.69646  1.0000
  C   C25       1.0  0.2185299999999999  0.71098  0.74737  1.0000
  C   C26       1.0  0.01769000000000001  0.7230699999999999  0.77295  1.0000
  C   C27       1.0  0.019739999999999966  0.6718299999999999  0.7986799999999998  1.0000
  C   C28       1.0  0.9998499999999999  0.6919599999999999  0.86167  1.0000
  C   C29       1.0  0.9800899999999996  0.76374  0.89969  1.0000
  C   C30       1.0  0.98142  0.81568  0.8754  1.0000
  C   C31       1.0  0.9990199999999999  0.79533  0.81167  1.0000
  C   C32       1.0  0.9959899999999998  0.6358499999999999  0.88585  1.0000
  C   C33       1.0  0.5563899999999999  0.49083999999999994  0.09425999999999997  1.0000
  C   C34       1.0  0.54193  0.45400999999999997  0.13528  1.0000
  C   C35       1.0  0.53631  0.4979399999999999  0.20445  1.0000
  C   C36       1.0  0.51645  0.46321999999999997  0.24107  1.0000
  C   C37       1.0  0.50266  0.38457  0.20891999999999994  1.0000
  C   C38       1.0  0.50909  0.34105  0.14033  1.0000
  C   C39       1.0  0.52897  0.37541  0.10370999999999998  1.0000
  C   C40       1.0  0.52891  0.4692699999999999  0.37688  1.0000
  C   C41       1.0  0.39  0.5339599999999999  0.31366  1.0000
  C   C42       1.0  0.31636  0.47985999999999995  0.25610999999999995  1.0000
  C   C43       1.0  0.11899999999999993  0.23065999999999998  0.62709  1.0000
  C   C44       1.0  0.20524000000000003  0.25432  0.63326  1.0000
  C   C45       1.0  0.28062999999999994  0.26162999999999986  0.6916999999999999  1.0000
  C   C46       1.0  0.26956999999999987  0.24429999999999985  0.7430199999999998  1.0000
  C   C47       1.0  0.21416  0.27167  0.57672  1.0000
  C   C48       1.0  0.25701  0.18301  0.40486  1.0000
  C   C49       1.0  0.27165  0.10867999999999998  0.35197  1.0000
  C   C50       1.0  0.19956  0.050499999999999996  0.29902  1.0000
  C   C51       1.0  0.21624  0.9817599999999997  0.2512  1.0000
  C   C52       1.0  0.10478999999999988  0.9247199999999997  0.5613099999999998  1.0000
  C   C53       1.0  0.04279999999999994  0.04360999999999998  0.60789  1.0000
  C   C54       1.0  0.026719999999999963  0.9650199999999999  0.5730999999999999  1.0000
  C   C55       1.0  0.9401299999999999  0.9272899999999995  0.5512299999999998  1.0000
  C   C56       1.0  0.8705200000000001  0.9678899999999999  0.56409  1.0000
  C   C57       1.0  0.88538  0.04610999999999998  0.59732  1.0000
  C   C58       1.0  0.39799  0.8910899999999999  0.45164999999999994  1.0000
  C   C59       1.0  0.47305999999999987  0.9076899999999999  0.4303899999999999  1.0000
  C   C60       1.0  0.55863  0.88782  0.44839  1.0000
  C   C61       1.0  0.45485  0.9479  0.39228  1.0000
  C   C62       1.0  0.52167  0.97023  0.37393  1.0000
  C   C63       1.0  0.60867  0.9525  0.39384999999999987  1.0000
  C   C64       1.0  0.62549  0.9102499999999999  0.42995  1.0000
  C   C65       1.0  0.36002  0.09775  0.35675  1.0000
  C   C66       1.0  0.37659  0.029359999999999994  0.30809  1.0000
  C   C67       1.0  0.30444  0.97103  0.255  1.0000
  C   C68       1.0  0.50368  0.9583599999999997  0.23538999999999996  1.0000
  C   C69       1.0  0.50097  0.88112  0.20921  1.0000
  C   C70       1.0  0.51714  0.83704  0.14450999999999997  1.0000
  C   C71       1.0  0.53422  0.87015  0.10554  1.0000
  C   C72       1.0  0.53377  0.9468199999999998  0.13051999999999997  1.0000
  C   C73       1.0  0.51959  0.9912699999999999  0.19573999999999997  1.0000
  C   C74       1.0  0.51884  0.75605  0.11911  1.0000
  C   C75       1.0  0.9470299999999998  0.3923799999999999  0.9017199999999999  1.0000
  C   C76       1.0  0.96029  0.3136699999999999  0.86019  1.0000
  C   C77       1.0  0.9667699999999998  0.2878899999999998  0.7913099999999998  1.0000
  C   C78       1.0  0.9848  0.21533999999999998  0.75393  1.0000
  C   C79       1.0  0.99577  0.16818999999999998  0.7852  1.0000
  C   C80       1.0  0.98864  0.19389  0.85357  1.0000
  C   C81       1.0  0.9706  0.26598999999999984  0.8908599999999999  1.0000
  C   C82       1.0  0.97253  0.08409999999999998  0.61939  1.0000
  C   C83       1.0  0.10792999999999994  0.21474  0.6794  1.0000
  C   C84       1.0  0.1835099999999999  0.22137999999999994  0.7375799999999999  1.0000
  C   C85       1.0  0.62037  0.39691999999999994  0.6364599999999998  1.0000
  C   C86       1.0  0.7073199999999998  0.3800999999999999  0.6414899999999999  1.0000
  C   C87       1.0  0.78257  0.43322  0.69836  1.0000
  C   C88       1.0  0.77027  0.50222  0.74913  1.0000
  C   C89       1.0  0.7170899999999998  0.30676999999999993  0.58638  1.0000
  C   C90       1.0  0.74708  0.23885999999999988  0.41121999999999986  1.0000
  C   C91       1.0  0.75864  0.2574699999999999  0.35620999999999997  1.0000
  C   C92       1.0  0.68495  0.26157  0.30302  1.0000
  C   C93       1.0  0.6987599999999996  0.27788999999999997  0.25194  1.0000
  C   C94       1.0  0.61298  0.62395  0.56431  1.0000
  C   C95       1.0  0.54436  0.55928  0.61213  1.0000
  C   C96       1.0  0.5315999999999997  0.60125  0.57574  1.0000
  C   C97       1.0  0.44666  0.62016  0.55321  1.0000
  C   C98       1.0  0.37539  0.59675  0.56689  1.0000
  C   C99       1.0  0.38697  0.5532  0.60153  1.0000
  C   C100      1.0  0.90839  0.5740799999999998  0.44628  1.0000
  C   C101      1.0  0.98001  0.52692  0.43005  1.0000
  C   C102      1.0  0.07142999999999997  0.5563799999999999  0.45544999999999997  1.0000
  C   C103      1.0  0.9514099999999999  0.44925999999999977  0.3863799999999999  1.0000
  C   C104      1.0  0.013309999999999983  0.40122  0.36841  1.0000
  C   C105      1.0  0.10489  0.43087  0.3922  1.0000
  C   C106      1.0  0.13279  0.5084399999999999  0.4354  1.0000
  C   C107      1.0  0.84576  0.26944  0.35725  1.0000
  C   C108      1.0  0.85931  0.28465  0.30524  1.0000
  C   C109      1.0  0.78575  0.28906999999999994  0.25231  1.0000
  C   C110      1.0  0.98481  0.27373  0.22760999999999998  1.0000
  C   C111      1.0  0.9820099999999998  0.32465  0.20135  1.0000
  C   C112      1.0  0.001529999999999996  0.30423999999999995  0.13812  1.0000
  C   C113      1.0  0.021690000000000008  0.23251  0.10044  1.0000
  C   C114      1.0  0.02099000000000001  0.18089999999999995  0.12516  1.0000
  C   C115      1.0  0.003680000000000009  0.20152999999999993  0.18906  1.0000
  C   C116      1.0  0.004270000000000002  0.3597399999999999  0.11298  1.0000
  C   C117      1.0  0.44456999999999997  0.5123899999999999  0.9060399999999998  1.0000
  C   C118      1.0  0.45803  0.54955  0.86504  1.0000
  C   C119      1.0  0.46370999999999996  0.5057899999999999  0.7959699999999998  1.0000
  C   C120      1.0  0.48356  0.5406399999999999  0.75948  1.0000
  C   C121      1.0  0.49705999999999995  0.61924  0.79144  1.0000
  C   C122      1.0  0.49048999999999987  0.66264  0.85999  1.0000
  C   C123      1.0  0.47071999999999997  0.6281699999999999  0.8965499999999998  1.0000
  C   C124      1.0  0.4728499999999999  0.5346299999999999  0.6245099999999999  1.0000
  C   C125      1.0  0.60863  0.46597  0.68761  1.0000
  C   C126      1.0  0.6836599999999998  0.51909  0.74446  1.0000
  C   C127      1.0  0.88817  0.75922  0.37035  1.0000
  C   C128      1.0  0.8012099999999998  0.7355899999999999  0.36279  1.0000
  C   C129      1.0  0.72719  0.7272  0.30289  1.0000
  C   C130      1.0  0.74084  0.74283  0.25131  1.0000
  C   C131      1.0  0.79083  0.7206299999999998  0.42036  1.0000
  C   C132      1.0  0.74698  0.81624  0.59166  1.0000
  C   C133      1.0  0.73517  0.8928099999999998  0.64295  1.0000
  C   C134      1.0  0.8088999999999997  0.9493799999999998  0.69612  1.0000
  C   C135      1.0  0.7945499999999998  0.020050000000000037  0.74243  1.0000
  C   C136      1.0  0.88567  0.05335999999999995  0.4459099999999999  1.0000
  C   C137      1.0  0.9585699999999998  0.94291  0.39597  1.0000
  C   C138      1.0  0.9662599999999999  0.021099999999999956  0.42907  1.0000
  C   C139      1.0  0.047360000000000006  0.06423  0.44671  1.0000
  C   C140      1.0  0.12085999999999994  0.029229999999999944  0.43397999999999987  1.0000
  C   C141      1.0  0.11491999999999994  0.95134  0.4033599999999999  1.0000
  C   C142      1.0  0.58699  0.13405  0.54839  1.0000
  C   C143      1.0  0.51646  0.10486999999999995  0.56607  1.0000
  C   C144      1.0  0.42673  0.11599999999999999  0.54641  1.0000
  C   C145      1.0  0.54395  0.06593999999999996  0.6052  1.0000
  C   C146      1.0  0.48201999999999995  0.03715000000000002  0.62345  1.0000
  C   C147      1.0  0.3918  0.048789999999999986  0.60414  1.0000
  C   C148      1.0  0.36542  0.08873  0.56626  1.0000
  C   C149      1.0  0.6475300000000002  0.9071099999999997  0.6372399999999998  1.0000
  C   C150      1.0  0.63333  0.9772899999999998  0.68501  1.0000
  C   C151      1.0  0.7070599999999998  0.03429999999999998  0.73759  1.0000
  C   C152      1.0  0.5081299999999999  0.04638999999999987  0.7617599999999998  1.0000
  C   C153      1.0  0.51091  0.12388999999999996  0.78961  1.0000
  C   C154      1.0  0.49226999999999976  0.16609999999999986  0.8535199999999997  1.0000
  C   C155      1.0  0.4730599999999999  0.1309199999999999  0.8901599999999998  1.0000
  C   C156      1.0  0.4738199999999999  0.054130000000000046  0.86378  1.0000
  C   C157      1.0  0.49006999999999984  0.01148999999999989  0.7991299999999999  1.0000
  C   C158      1.0  0.48952  0.24724000000000002  0.8804  1.0000
  C   C159      1.0  0.05474  0.6028899999999999  0.09533  1.0000
  C   C160      1.0  0.04499  0.6821799999999999  0.13891  1.0000
  C   C161      1.0  0.03987  0.70699  0.20799  1.0000
  C   C162      1.0  0.025179999999999984  0.78021  0.24750999999999998  1.0000
  C   C163      1.0  0.01591  0.8289999999999997  0.21816  1.0000
  C   C164      1.0  0.021719999999999972  0.8042399999999998  0.14947999999999995  1.0000
  C   C165      1.0  0.036379999999999996  0.73142  0.10998999999999998  1.0000
  C   C166      1.0  0.03181999999999997  0.9080299999999999  0.38273999999999997  1.0000
  C   C167      1.0  0.9018999999999999  0.77371  0.31808999999999993  1.0000
  C   C168      1.0  0.82778  0.7655999999999997  0.25825999999999993  1.0000
  O   O1        1.0  0.3463999999999999  0.7259399999999999  0.47681999999999997  1.0000
  O   O2        1.0  0.19454999999999995  0.69443  0.4144199999999999  1.0000
  O   O3        1.0  0.7692799999999995  0.64399  0.51815  1.0000
  O   O4        1.0  0.17699999999999994  0.76841  0.5460399999999999  1.0000
  O   O5        1.0  0.32544999999999996  0.8169599999999998  0.6128599999999997  1.0000
  O   O6        1.0  0.56577  0.59771  0.36624999999999996  1.0000
  O   O7        1.0  0.41208  0.36676  0.49505999999999994  1.0000
  O   O8        1.0  0.06649  0.35913  0.49348  1.0000
  O   O9        1.0  0.1785199999999999  0.44759  0.5963299999999998  1.0000
  O   O10       1.0  0.97195  0.74117  0.65409  1.0000
  O   O11       1.0  0.31629  0.3863699999999999  0.4049799999999999  1.0000
  O   O12       1.0  0.95002  0.6430399999999997  0.9266499999999999  1.0000
  O   O13       1.0  0.03716000000000001  0.57941  0.86602  1.0000
  O   O14       1.0  0.56047  0.45148999999999995  0.0307  1.0000
  O   O15       1.0  0.56276  0.56261  0.12485999999999997  1.0000
  O   O16       1.0  0.14762  0.24572999999999998  0.51712  1.0000
  O   O17       1.0  0.28855  0.31153  0.59385  1.0000
  O   O18       1.0  0.72068  0.13573  0.47101  1.0000
  O   O19       1.0  0.32293  0.22355  0.46283  1.0000
  O   O20       1.0  0.17713  0.19814999999999997  0.38522  1.0000
  O   O21       1.0  0.9302899999999998  0.22194  0.62795  1.0000
  O   O22       1.0  0.07878  0.8567299999999998  0.50375  1.0000
  O   O23       1.0  0.42438  0.8667299999999999  0.49955  1.0000
  O   O24       1.0  0.32177  0.9029499999999998  0.42653  1.0000
  O   O25       1.0  0.55006  0.09503999999999997  0.35282  1.0000
  O   O26       1.0  0.18291  0.95614  0.60226  1.0000
  O   O27       1.0  0.55932  0.71987  0.07420999999999998  1.0000
  O   O28       1.0  0.48073  0.72108  0.14153  1.0000
  O   O29       1.0  0.93835  0.41569999999999996  0.9636299999999999  1.0000
  O   O30       1.0  0.9461999999999999  0.43495  0.8733499999999998  1.0000
  O   O31       1.0  0.64625  0.26909  0.52936  1.0000
  O   O32       1.0  0.7933099999999998  0.2845999999999999  0.5972799999999998  1.0000
  O   O33       1.0  0.2326199999999999  0.35059999999999997  0.47859999999999997  1.0000
  O   O34       1.0  0.81665  0.24727  0.4640099999999999  1.0000
  O   O35       1.0  0.66524  0.21395  0.39824  1.0000
  O   O36       1.0  0.43268  0.40626999999999996  0.63532  1.0000
  O   O37       1.0  0.5920399999999998  0.6361299999999998  0.50793  1.0000
  O   O38       1.0  0.93927  0.6368599999999999  0.50975  1.0000
  O   O39       1.0  0.83016  0.5520699999999998  0.40242  1.0000
  O   O40       1.0  0.028310000000000002  0.25462  0.34641  1.0000
  O   O41       1.0  0.68887  0.6279099999999999  0.60544  1.0000
  O   O42       1.0  0.0504  0.35264  0.0723  1.0000
  O   O43       1.0  0.9619899999999998  0.41555  0.13175  1.0000
  O   O44       1.0  0.44186  0.5518999999999998  0.97001  1.0000
  O   O45       1.0  0.43801  0.44058999999999987  0.8753699999999999  1.0000
  O   O46       1.0  0.8574  0.7463099999999998  0.47995999999999994  1.0000
  O   O47       1.0  0.71509  0.68326  0.40412  1.0000
  O   O48       1.0  0.24830999999999998  0.8468299999999997  0.49315999999999993  1.0000
  O   O49       1.0  0.6803299999999998  0.7761399999999999  0.5340599999999999  1.0000
  O   O50       1.0  0.8251399999999999  0.7986599999999999  0.61206  1.0000
  O   O51       1.0  0.08196  0.7691299999999998  0.37  1.0000
  O   O52       1.0  0.90065  0.12722999999999998  0.48548  1.0000
  O   O53       1.0  0.5540199999999998  0.1383399999999999  0.4876699999999999  1.0000
  O   O54       1.0  0.66693  0.14973999999999996  0.58864  1.0000
  O   O55       1.0  0.4626399999999999  0.91034  0.64192  1.0000
  O   O56       1.0  0.81526  0.010859999999999998  0.42487  1.0000
  O   O57       1.0  0.44544  0.28116  0.923  1.0000
  O   O58       1.0  0.52965  0.28443999999999986  0.8610699999999999  1.0000
  O   O59       1.0  0.06232  0.5806999999999999  0.03325999999999999  1.0000
  O   O60       1.0  0.05396999999999997  0.55908  0.12215999999999999  1.0000
