data_image0
_chemical_formula_structural       Cu12Mo4H80C100S12I4N20
_chemical_formula_sum              "Cu12 Mo4 H80 C100 S12 I4 N20"
_cell_length_a       14.91933
_cell_length_b       14.91959
_cell_length_c       17.90321
_cell_angle_alpha    94.20951
_cell_angle_beta     94.18403
_cell_angle_gamma    90.40997999999999

_space_group_name_H-M_alt    "P 1"
_space_group_IT_number       1

loop_
  _space_group_symop_operation_xyz
  'x, y, z'

loop_
  _atom_site_type_symbol
  _atom_site_label
  _atom_site_symmetry_multiplicity
  _atom_site_fract_x
  _atom_site_fract_y
  _atom_site_fract_z
  _atom_site_occupancy
  Cu  Cu1       1.0  0.19571  0.38120999999999994  0.51629  1.0000
  Cu  Cu2       1.0  0.28577  0.19012999999999997  0.63812  1.0000
  Cu  Cu3       1.0  0.40764  0.22625999999999993  0.47319  1.0000
  Cu  Cu4       1.0  0.61879  0.8046399999999999  0.98338  1.0000
  Cu  Cu5       1.0  0.8096599999999998  0.71422  0.86189  1.0000
  Cu  Cu6       1.0  0.7735999999999997  0.5921  0.02693  1.0000
  Cu  Cu7       1.0  0.8045399999999998  0.6187099999999998  0.48342  1.0000
  Cu  Cu8       1.0  0.71418  0.80979  0.36188  1.0000
  Cu  Cu9       1.0  0.59235  0.7736199999999998  0.52693  1.0000
  Cu  Cu10      1.0  0.3812299999999999  0.19561999999999993  0.01652  1.0000
  Cu  Cu11      1.0  0.19019999999999995  0.28583  0.13805  1.0000
  Cu  Cu12      1.0  0.22638  0.40767  0.9729399999999999  1.0000
  Mo  Mo1       1.0  0.23261  0.20151999999999995  0.49490000000000006  1.0000
  Mo  Mo2       1.0  0.79834  0.7672  0.00513  1.0000
  Mo  Mo3       1.0  0.76736  0.7983699999999998  0.50507  1.0000
  Mo  Mo4       1.0  0.20150999999999997  0.23270999999999994  0.9949100000000001  1.0000
  H   H1        1.0  0.061999999999999986  0.27624  0.40822  1.0000
  H   H2        1.0  0.9640099999999999  0.30716999999999994  0.29365  1.0000
  H   H3        1.0  0.9930299999999997  0.5898  0.36413  1.0000
  H   H4        1.0  0.09236  0.5463999999999998  0.47419000000000006  1.0000
  H   H5        1.0  0.8990099999999998  0.43662  0.05907  1.0000
  H   H6        1.0  0.9804  0.37932  0.17106  1.0000
  H   H7        1.0  0.8471799999999998  0.58183  0.30711  1.0000
  H   H8        1.0  0.7714699999999998  0.6314299999999998  0.18858  1.0000
  H   H9        1.0  0.21202999999999994  0.01229  0.58908  1.0000
  H   H10       1.0  0.09539999999999997  0.9070499999999998  0.62673  1.0000
  H   H11       1.0  0.10222  0.06363  0.84069  1.0000
  H   H12       1.0  0.21645999999999999  0.16276  0.79367  1.0000
  H   H13       1.0  0.4175599999999998  0.14407  0.76012  1.0000
  H   H14       1.0  0.5226899999999998  0.22442  0.8562300000000002  1.0000
  H   H15       1.0  0.4260699999999999  0.4734699999999999  0.77186  1.0000
  H   H16       1.0  0.32552  0.38329  0.67901  1.0000
  H   H17       1.0  0.58613  0.61252  0.97036  1.0000
  H   H18       1.0  0.4699899999999999  0.52921  0.88992  1.0000
  H   H19       1.0  0.65189  0.30424  0.87842  1.0000
  H   H20       1.0  0.762  0.3984999999999999  0.9600800000000002  1.0000
  H   H21       1.0  0.7237199999999998  0.93785  0.09182  1.0000
  H   H22       1.0  0.69279  0.0358  0.20642  1.0000
  H   H23       1.0  0.41029  0.00718  0.13584  1.0000
  H   H24       1.0  0.4536099999999999  0.90782  0.02574  1.0000
  H   H25       1.0  0.56326  0.1009  0.44102  1.0000
  H   H26       1.0  0.6207899999999997  0.01967  0.32894  1.0000
  H   H27       1.0  0.41793999999999987  0.15278  0.19288  1.0000
  H   H28       1.0  0.3682299999999999  0.22836999999999993  0.31148  1.0000
  H   H29       1.0  0.9877500000000001  0.788  0.9110499999999999  1.0000
  H   H30       1.0  0.09287999999999998  0.9048  0.87355  1.0000
  H   H31       1.0  0.9365799999999997  0.89788  0.65953  1.0000
  H   H32       1.0  0.8375099999999998  0.78351  0.70644  1.0000
  H   H33       1.0  0.856  0.58242  0.73977  1.0000
  H   H34       1.0  0.7756999999999997  0.4772  0.64376  1.0000
  H   H35       1.0  0.5267799999999998  0.57357  0.72804  1.0000
  H   H36       1.0  0.6167099999999998  0.6742899999999997  0.82086  1.0000
  H   H37       1.0  0.3873  0.41398  0.52986  1.0000
  H   H38       1.0  0.4709199999999999  0.53006  0.61027  1.0000
  H   H39       1.0  0.6959199999999998  0.3476999999999999  0.62121  1.0000
  H   H40       1.0  0.6011799999999998  0.23762999999999998  0.53975  1.0000
  H   H41       1.0  0.9378299999999998  0.72375  0.59187  1.0000
  H   H42       1.0  0.035739999999999994  0.69277  0.70644  1.0000
  H   H43       1.0  0.006980000000000003  0.41020999999999996  0.63579  1.0000
  H   H44       1.0  0.9077199999999997  0.45361  0.52568  1.0000
  H   H45       1.0  0.10101999999999997  0.56328  0.9409  1.0000
  H   H46       1.0  0.0197  0.62072  0.82891  1.0000
  H   H47       1.0  0.15264999999999995  0.41796999999999995  0.69281  1.0000
  H   H48       1.0  0.22827999999999993  0.3682299999999998  0.81133  1.0000
  H   H49       1.0  0.7879899999999997  0.9876  0.4109900000000001  1.0000
  H   H50       1.0  0.90472  0.0928  0.3735  1.0000
  H   H51       1.0  0.8978499999999998  0.9365899999999998  0.15943  1.0000
  H   H52       1.0  0.78353  0.83744  0.20631  1.0000
  H   H53       1.0  0.58243  0.85598  0.23970000000000002  1.0000
  H   H54       1.0  0.4771799999999999  0.77563  0.14374  1.0000
  H   H55       1.0  0.5736899999999998  0.52671  0.22808999999999996  1.0000
  H   H56       1.0  0.6743499999999998  0.6167999999999998  0.32084  1.0000
  H   H57       1.0  0.4139299999999999  0.3874399999999999  0.02973  1.0000
  H   H58       1.0  0.5298999999999998  0.47098  0.11017  1.0000
  H   H59       1.0  0.34775  0.69569  0.12134  1.0000
  H   H60       1.0  0.23778999999999995  0.6011899999999998  0.03977  1.0000
  H   H61       1.0  0.27624  0.062159999999999986  0.9082599999999998  1.0000
  H   H62       1.0  0.3071399999999999  0.96413  0.7937  1.0000
  H   H63       1.0  0.5897  0.9930199999999998  0.86412  1.0000
  H   H64       1.0  0.5463599999999997  0.09239999999999997  0.97422  1.0000
  H   H65       1.0  0.4367499999999999  0.8990099999999999  0.55905  1.0000
  H   H66       1.0  0.3792799999999999  0.98033  0.67106  1.0000
  H   H67       1.0  0.5818599999999998  0.8471999999999997  0.80716  1.0000
  H   H68       1.0  0.6315499999999998  0.77152  0.6886  1.0000
  H   H69       1.0  0.012329999999999997  0.21208  0.08912  1.0000
  H   H70       1.0  0.9071299999999998  0.09536999999999997  0.12665  1.0000
  H   H71       1.0  0.06352  0.10205  0.34062  1.0000
  H   H72       1.0  0.16265999999999994  0.21637  0.29371  1.0000
  H   H73       1.0  0.14409999999999998  0.41748  0.26025  1.0000
  H   H74       1.0  0.22440999999999997  0.52271  0.35625  1.0000
  H   H75       1.0  0.4733499999999999  0.42622  0.27196  1.0000
  H   H76       1.0  0.3833399999999999  0.3255599999999999  0.17914  1.0000
  H   H77       1.0  0.6125299999999998  0.58608  0.4702700000000001  1.0000
  H   H78       1.0  0.5290599999999999  0.4700399999999999  0.38983  1.0000
  H   H79       1.0  0.3042499999999999  0.65213  0.37862  1.0000
  H   H80       1.0  0.3986899999999999  0.76215  0.46023000000000003  1.0000
  C   C1        1.0  0.04528999999999999  0.34483  0.39554  1.0000
  C   C2        1.0  0.9913699999999998  0.36239  0.33178  1.0000
  C   C3        1.0  0.9726799999999998  0.45187  0.31779  1.0000
  C   C4        1.0  0.007180000000000007  0.51935  0.3712  1.0000
  C   C5        1.0  0.06166  0.4959599999999999  0.43276  1.0000
  C   C6        1.0  0.88786  0.4660799999999999  0.11500000000000002  1.0000
  C   C7        1.0  0.9333599999999996  0.43422  0.17822  1.0000
  C   C8        1.0  0.92116  0.4766899999999999  0.24928  1.0000
  C   C9        1.0  0.8608899999999999  0.54837  0.25312  1.0000
  C   C10       1.0  0.81782  0.57547  0.18755  1.0000
  C   C11       1.0  0.18456999999999996  0.021480000000000003  0.6439  1.0000
  C   C12       1.0  0.11954999999999998  0.96354  0.66508  1.0000
  C   C13       1.0  0.08844  0.97584  0.73737  1.0000
  C   C14       1.0  0.12437  0.04926  0.78444  1.0000
  C   C15       1.0  0.18809999999999993  0.10530000000000002  0.75832  1.0000
  C   C16       1.0  0.4224099999999999  0.21708999999999995  0.76413  1.0000
  C   C17       1.0  0.48203999999999997  0.2625  0.81708  1.0000
  C   C18       1.0  0.4861299999999998  0.35697  0.82156  1.0000
  C   C19       1.0  0.42705999999999994  0.4005299999999999  0.77162  1.0000
  C   C20       1.0  0.3698599999999999  0.3505199999999999  0.71959  1.0000
  C   C21       1.0  0.5987499999999998  0.54394  0.9489500000000001  1.0000
  C   C22       1.0  0.53346  0.4961899999999999  0.90284  1.0000
  C   C23       1.0  0.5505899999999998  0.40815  0.87478  1.0000
  C   C24       1.0  0.63421  0.3721899999999999  0.89758  1.0000
  C   C25       1.0  0.6963099999999998  0.42459  0.9433000000000001  1.0000
  C   C26       1.0  0.6551399999999997  0.9546599999999997  0.10444  1.0000
  C   C27       1.0  0.63758  0.0086  0.16823  1.0000
  C   C28       1.0  0.5481299999999998  0.02736  0.18223  1.0000
  C   C29       1.0  0.4806999999999999  0.99299  0.12875  1.0000
  C   C30       1.0  0.5040499999999998  0.93848  0.06715  1.0000
  C   C31       1.0  0.53383  0.11212999999999998  0.38507  1.0000
  C   C32       1.0  0.5657899999999999  0.06666  0.32182  1.0000
  C   C33       1.0  0.52325  0.07889  0.25077  1.0000
  C   C34       1.0  0.4514799999999999  0.13909  0.24688  1.0000
  C   C35       1.0  0.42426  0.18205  0.31251  1.0000
  C   C36       1.0  0.9785799999999998  0.8154799999999995  0.85626  1.0000
  C   C37       1.0  0.03645999999999998  0.88061  0.83517  1.0000
  C   C38       1.0  0.02427  0.91167  0.76287  1.0000
  C   C39       1.0  0.9509099999999998  0.87572  0.71577  1.0000
  C   C40       1.0  0.8948899999999997  0.81197  0.74183  1.0000
  C   C41       1.0  0.783  0.57753  0.73583  1.0000
  C   C42       1.0  0.73763  0.51785  0.68289  1.0000
  C   C43       1.0  0.64319  0.5136  0.67834  1.0000
  C   C44       1.0  0.5996799999999998  0.57267  0.72833  1.0000
  C   C45       1.0  0.64958  0.62997  0.78032  1.0000
  C   C46       1.0  0.4558899999999999  0.4012199999999999  0.55121  1.0000
  C   C47       1.0  0.50385  0.4664999999999999  0.59726  1.0000
  C   C48       1.0  0.5919499999999998  0.44914999999999994  0.62514  1.0000
  C   C49       1.0  0.6278799999999999  0.36547  0.60224  1.0000
  C   C50       1.0  0.57524  0.30342  0.55661  1.0000
  C   C51       1.0  0.9546099999999997  0.65515  0.60446  1.0000
  C   C52       1.0  0.008519999999999998  0.63757  0.66824  1.0000
  C   C53       1.0  0.027259999999999993  0.5480899999999997  0.68219  1.0000
  C   C54       1.0  0.9928399999999997  0.4806499999999999  0.62872  1.0000
  C   C55       1.0  0.9383899999999997  0.50404  0.56713  1.0000
  C   C56       1.0  0.11215  0.53382  0.88496  1.0000
  C   C57       1.0  0.06667999999999999  0.56574  0.82176  1.0000
  C   C58       1.0  0.07879  0.52322  0.75069  1.0000
  C   C59       1.0  0.13899  0.45147  0.74681  1.0000
  C   C60       1.0  0.18201999999999993  0.4242799999999999  0.81237  1.0000
  C   C61       1.0  0.8154399999999999  0.97852  0.35617  1.0000
  C   C62       1.0  0.88054  0.03643  0.33507  1.0000
  C   C63       1.0  0.91165  0.024209999999999992  0.26278  1.0000
  C   C64       1.0  0.87565  0.9508899999999999  0.21567  1.0000
  C   C65       1.0  0.8119199999999998  0.89483  0.24172  1.0000
  C   C66       1.0  0.57749  0.78298  0.23579  1.0000
  C   C67       1.0  0.5178099999999998  0.7375699999999997  0.18289  1.0000
  C   C68       1.0  0.51365  0.64313  0.17839  1.0000
  C   C69       1.0  0.5727  0.59962  0.22837000000000002  1.0000
  C   C70       1.0  0.62999  0.6496  0.28031  1.0000
  C   C71       1.0  0.4011899999999999  0.4559999999999999  0.05111  1.0000
  C   C72       1.0  0.46637999999999996  0.50388  0.09721  1.0000
  C   C73       1.0  0.44918999999999987  0.59191  0.12522  1.0000
  C   C74       1.0  0.36554  0.6277399999999997  0.10232  1.0000
  C   C75       1.0  0.30351  0.5752099999999999  0.05663  1.0000
  C   C76       1.0  0.3448099999999999  0.0454  0.89559  1.0000
  C   C77       1.0  0.3623699999999999  0.9914299999999998  0.83182  1.0000
  C   C78       1.0  0.45182999999999995  0.97268  0.81781  1.0000
  C   C79       1.0  0.5192699999999998  0.007189999999999999  0.87122  1.0000
  C   C80       1.0  0.49591  0.06171999999999999  0.9328  1.0000
  C   C81       1.0  0.4661499999999999  0.8878299999999998  0.615  1.0000
  C   C82       1.0  0.4342099999999999  0.9333199999999998  0.67822  1.0000
  C   C83       1.0  0.47669999999999996  0.9211399999999997  0.74929  1.0000
  C   C84       1.0  0.5483999999999998  0.86088  0.75316  1.0000
  C   C85       1.0  0.5755599999999997  0.8178399999999998  0.68756  1.0000
  C   C86       1.0  0.02147  0.18461  0.14393  1.0000
  C   C87       1.0  0.9635299999999998  0.11955  0.16505  1.0000
  C   C88       1.0  0.97581  0.08838  0.2373  1.0000
  C   C89       1.0  0.049169999999999985  0.12429  0.28441  1.0000
  C   C90       1.0  0.10519999999999997  0.18804  0.25833  1.0000
  C   C91       1.0  0.21708999999999995  0.4224  0.26419  1.0000
  C   C92       1.0  0.26248  0.48206999999999994  0.31712  1.0000
  C   C93       1.0  0.3569299999999999  0.48628999999999994  0.3216  1.0000
  C   C94       1.0  0.40044999999999986  0.42717  0.27166  1.0000
  C   C95       1.0  0.3504899999999999  0.3699  0.21968  1.0000
  C   C96       1.0  0.54397  0.59879  0.44889  1.0000
  C   C97       1.0  0.4961299999999999  0.53354  0.40281  1.0000
  C   C98       1.0  0.4080999999999999  0.55075  0.37478  1.0000
  C   C99       1.0  0.3722  0.63439  0.39767  1.0000
  C   C100      1.0  0.4247  0.69643  0.44337  1.0000
  S   S1        1.0  0.16053999999999996  0.26669  0.58967  1.0000
  S   S2        1.0  0.34932999999999986  0.11527999999999997  0.53859  1.0000
  S   S3        1.0  0.28211  0.3061  0.42556  1.0000
  S   S4        1.0  0.73352  0.8397399999999998  0.9103600000000001  1.0000
  S   S5        1.0  0.8845499999999997  0.6505299999999998  0.9613499999999999  1.0000
  S   S6        1.0  0.69362  0.7178299999999997  0.07428  1.0000
  S   S7        1.0  0.8396099999999997  0.73333  0.41019  1.0000
  S   S8        1.0  0.65063  0.8846699999999997  0.46142000000000005  1.0000
  S   S9        1.0  0.71796  0.69375  0.57437  1.0000
  S   S10       1.0  0.26659  0.16046  0.08971  1.0000
  S   S11       1.0  0.11530999999999998  0.3495  0.03864  1.0000
  S   S12       1.0  0.30609999999999987  0.2819899999999999  0.9255299999999999  1.0000
  I   I1        1.0  0.25038999999999995  0.53797  0.57793  1.0000
  I   I2        1.0  0.4619899999999999  0.7496999999999998  0.9217999999999998  1.0000
  I   I3        1.0  0.74965  0.4619  0.42181  1.0000
  I   I4        1.0  0.5380999999999998  0.25043  0.07811  1.0000
  N   N1        1.0  0.08236999999999997  0.4099999999999999  0.44461  1.0000
  N   N2        1.0  0.83086  0.53606  0.11880000000000002  1.0000
  N   N3        1.0  0.21912  0.09185  0.68934  1.0000
  N   N4        1.0  0.3669899999999999  0.25952  0.71521  1.0000
  N   N5        1.0  0.6801399999999999  0.51017  0.96871  1.0000
  N   N6        1.0  0.59  0.9176399999999999  0.05534  1.0000
  N   N7        1.0  0.46373999999999993  0.169  0.38125  1.0000
  N   N8        1.0  0.9082999999999998  0.78087  0.81077  1.0000
  N   N9        1.0  0.7405499999999998  0.633  0.78471  1.0000
  N   N10       1.0  0.4896099999999999  0.31976  0.53141  1.0000
  N   N11       1.0  0.91762  0.5899999999999997  0.55532  1.0000
  N   N12       1.0  0.16902999999999996  0.4637299999999999  0.8811300000000001  1.0000
  N   N13       1.0  0.7808899999999998  0.9081999999999998  0.3107  1.0000
  N   N14       1.0  0.63299  0.7405799999999998  0.28465  1.0000
  N   N15       1.0  0.31976  0.48964  0.03129  1.0000
  N   N16       1.0  0.40996999999999995  0.08246  0.94468  1.0000
  N   N17       1.0  0.53618  0.8309  0.6188  1.0000
  N   N18       1.0  0.09181999999999998  0.2191  0.18938  1.0000
  N   N19       1.0  0.25951  0.36695  0.21527  1.0000
  N   N20       1.0  0.5102799999999997  0.68022  0.46868000000000004  1.0000
