data_image0
_chemical_formula_structural       Zn4Ag4H72C128N24
_chemical_formula_sum              "Zn4 Ag4 H72 C128 N24"
_cell_length_a       11.06158
_cell_length_b       17.094610000000003
_cell_length_c       23.10845
_cell_angle_alpha    107.7891
_cell_angle_beta     89.61930000000001
_cell_angle_gamma    110.11615

_space_group_name_H-M_alt    "P 1"
_space_group_IT_number       1

loop_
  _space_group_symop_operation_xyz
  'x, y, z'

loop_
  _atom_site_type_symbol
  _atom_site_label
  _atom_site_symmetry_multiplicity
  _atom_site_fract_x
  _atom_site_fract_y
  _atom_site_fract_z
  _atom_site_occupancy
  Zn  Zn1       1.0  0.39295  0.0006899999999999979  0.25056  1.0000
  Zn  Zn2       1.0  0.10401999999999995  0.9983  0.24952  1.0000
  Zn  Zn3       1.0  0.6070399999999999  0.9993099999999999  0.7494400000000001  1.0000
  Zn  Zn4       1.0  0.89597  0.00170000000000002  0.75048  1.0000
  Ag  Ag1       1.0  0.7243100000000001  0.67666  0.70224  1.0000
  Ag  Ag2       1.0  0.05423000000000001  0.32541  0.79737  1.0000
  Ag  Ag3       1.0  0.2756799999999999  0.3233399999999999  0.29776  1.0000
  Ag  Ag4       1.0  0.94576  0.67458  0.20263  1.0000
  H   H1        1.0  0.7166200000000001  0.36533999999999994  0.56188  1.0000
  H   H2        1.0  0.40302999999999994  0.42487  0.49826000000000004  1.0000
  H   H3        1.0  0.6626800000000002  0.23235000000000003  0.47020000000000006  1.0000
  H   H4        1.0  0.35122  0.29239  0.40735  1.0000
  H   H5        1.0  0.47258  0.10874000000000003  0.48182  1.0000
  H   H6        1.0  0.53499  0.32989  0.3336  1.0000
  H   H7        1.0  0.47541  0.94408  0.4456  1.0000
  H   H8        1.0  0.47511  0.89637  0.32148  1.0000
  H   H9        1.0  0.43405999999999995  0.2829899999999999  0.21560000000000004  1.0000
  H   H10       1.0  0.02972999999999994  0.29515999999999987  0.30483000000000005  1.0000
  H   H11       1.0  0.09833999999999994  0.2849399999999999  0.41403  1.0000
  H   H12       1.0  0.033880000000000014  0.14469  0.21815  1.0000
  H   H13       1.0  0.31394  0.15157  0.09676  1.0000
  H   H14       1.0  0.12541  0.004739999999999999  0.02796  1.0000
  H   H15       1.0  0.94292  0.18346  0.45428  1.0000
  H   H16       1.0  0.29098000000000007  0.14345000000000005  0.4947600000000001  1.0000
  H   H17       1.0  0.9525000000000001  0.2699699999999999  0.56294  1.0000
  H   H18       1.0  0.2987700000000001  0.22654  0.60411  1.0000
  H   H19       1.0  0.35906  0.64091  0.94109  1.0000
  H   H20       1.0  0.97593  0.5734900000000002  0.9991100000000002  1.0000
  H   H21       1.0  0.43556999999999996  0.77382  0.03291  1.0000
  H   H22       1.0  0.05404000000000002  0.70565  0.0905  1.0000
  H   H23       1.0  0.36669  0.89476  0.01974  1.0000
  H   H24       1.0  0.19989  0.67193  0.16730000000000003  1.0000
  H   H25       1.0  0.53997  0.060730000000000006  0.056080000000000005  1.0000
  H   H26       1.0  0.58617  0.10876999999999998  0.18006  1.0000
  H   H27       1.0  0.14502  0.71742  0.28499  1.0000
  H   H28       1.0  0.7255500000000001  0.69763  0.19356000000000004  1.0000
  H   H29       1.0  0.8063799999999999  0.7097899999999998  0.08461  1.0000
  H   H30       1.0  0.88438  0.84893  0.28077  1.0000
  H   H31       1.0  0.15826999999999994  0.85018  0.40468000000000004  1.0000
  H   H32       1.0  0.11666000000000007  0.99503  0.47265  1.0000
  H   H33       1.0  0.75572  0.8120999999999998  0.04582  1.0000
  H   H34       1.0  0.14711000000000007  0.85577  0.00438  1.0000
  H   H35       1.0  0.6762599999999998  0.7274499999999998  0.93685  1.0000
  H   H36       1.0  0.06947000000000007  0.7742  0.89485  1.0000
  H   H37       1.0  0.28335  0.63464  0.43812  1.0000
  H   H38       1.0  0.5969399999999999  0.5751199999999997  0.50175  1.0000
  H   H39       1.0  0.33731  0.76764  0.52979  1.0000
  H   H40       1.0  0.64877  0.7075999999999998  0.59265  1.0000
  H   H41       1.0  0.52741  0.8912499999999999  0.5181800000000001  1.0000
  H   H42       1.0  0.46501  0.6701  0.6664  1.0000
  H   H43       1.0  0.52458  0.05592000000000005  0.5544  1.0000
  H   H44       1.0  0.52488  0.10363000000000001  0.6785200000000001  1.0000
  H   H45       1.0  0.56593  0.717  0.7844  1.0000
  H   H46       1.0  0.97027  0.70484  0.69517  1.0000
  H   H47       1.0  0.90165  0.71505  0.58596  1.0000
  H   H48       1.0  0.96612  0.8552999999999997  0.78184  1.0000
  H   H49       1.0  0.68605  0.8484299999999998  0.90323  1.0000
  H   H50       1.0  0.87458  0.9952500000000001  0.9720300000000001  1.0000
  H   H51       1.0  0.0570699999999998  0.8165299999999996  0.54572  1.0000
  H   H52       1.0  0.7090099999999999  0.8565399999999997  0.50524  1.0000
  H   H53       1.0  0.047489999999999824  0.7300299999999997  0.43706000000000006  1.0000
  H   H54       1.0  0.7012199999999997  0.7734599999999997  0.39588  1.0000
  H   H55       1.0  0.6409299999999999  0.35908  0.05891  1.0000
  H   H56       1.0  0.02405999999999992  0.4264999999999999  0.00089  1.0000
  H   H57       1.0  0.56442  0.22617000000000004  0.9670900000000001  1.0000
  H   H58       1.0  0.94595  0.29434  0.90949  1.0000
  H   H59       1.0  0.6333  0.10523000000000003  0.9802600000000001  1.0000
  H   H60       1.0  0.8001000000000001  0.32806  0.83269  1.0000
  H   H61       1.0  0.46002000000000004  0.93926  0.9439200000000001  1.0000
  H   H62       1.0  0.41382000000000013  0.8912300000000002  0.8199400000000002  1.0000
  H   H63       1.0  0.85497  0.2825699999999999  0.71501  1.0000
  H   H64       1.0  0.27443000000000006  0.3023600000000001  0.8064300000000001  1.0000
  H   H65       1.0  0.1936099999999999  0.29020999999999986  0.9153900000000001  1.0000
  H   H66       1.0  0.11561000000000002  0.15106  0.71923  1.0000
  H   H67       1.0  0.8417199999999998  0.14980999999999994  0.5953200000000001  1.0000
  H   H68       1.0  0.88333  0.004960000000000003  0.52735  1.0000
  H   H69       1.0  0.24427  0.18788999999999997  0.9541800000000001  1.0000
  H   H70       1.0  0.85288  0.14422  0.99562  1.0000
  H   H71       1.0  0.32374  0.27254  0.06315  1.0000
  H   H72       1.0  0.93052  0.22578999999999994  0.10515  1.0000
  C   C1        1.0  0.59582  0.48053  0.58835  1.0000
  C   C2        1.0  0.56422  0.4044499999999999  0.53637  1.0000
  C   C3        1.0  0.63624  0.34838  0.52806  1.0000
  C   C4        1.0  0.46074  0.38336  0.49189  1.0000
  C   C5        1.0  0.60601  0.2742999999999999  0.47689  1.0000
  C   C6        1.0  0.43268  0.30945  0.44073000000000007  1.0000
  C   C7        1.0  0.50442  0.25303  0.43138  1.0000
  C   C8        1.0  0.4717  0.17532999999999996  0.37686  1.0000
  C   C9        1.0  0.47503  0.09494000000000005  0.38200000000000006  1.0000
  C   C10       1.0  0.43668  0.18545000000000003  0.32088  1.0000
  C   C11       1.0  0.47692  0.0699  0.43558  1.0000
  C   C12       1.0  0.47172  0.26503  0.30511  1.0000
  C   C13       1.0  0.47729999999999984  0.9842499999999997  0.41699  1.0000
  C   C14       1.0  0.4758699999999999  0.9585999999999998  0.35286  1.0000
  C   C15       1.0  0.41902  0.2412  0.24421  1.0000
  C   C16       1.0  0.35018  0.14813  0.22473000000000004  1.0000
  C   C17       1.0  0.061359999999999984  0.24510999999999997  0.3123000000000001  1.0000
  C   C18       1.0  0.26419  0.09054999999999998  0.17084  1.0000
  C   C19       1.0  0.08682999999999998  0.23591999999999994  0.36959  1.0000
  C   C20       1.0  0.05239  0.16418  0.2675  1.0000
  C   C21       1.0  0.25392999999999993  0.09758999999999997  0.11119000000000001  1.0000
  C   C22       1.0  0.0922  0.15055  0.35743  1.0000
  C   C23       1.0  0.15877  0.021089999999999994  0.07558000000000001  1.0000
  C   C24       1.0  0.10867999999999985  0.9674499999999998  0.11419  1.0000
  C   C25       1.0  0.11608  0.1109  0.40080000000000005  1.0000
  C   C26       1.0  0.11729  0.158  0.46610000000000007  1.0000
  C   C27       1.0  0.02218  0.19477000000000003  0.48688000000000003  1.0000
  C   C28       1.0  0.21623  0.17032  0.50993  1.0000
  C   C29       1.0  0.027040000000000036  0.24278000000000005  0.5477000000000001  1.0000
  C   C30       1.0  0.22144000000000005  0.21720000000000006  0.5711400000000001  1.0000
  C   C31       1.0  0.12706  0.25484  0.59078  1.0000
  C   C32       1.0  0.13040999999999994  0.3033599999999999  0.65299  1.0000
  C   C33       1.0  0.12072  0.52154  0.9116400000000002  1.0000
  C   C34       1.0  0.16267  0.59757  0.96372  1.0000
  C   C35       1.0  0.2928999999999999  0.6560399999999997  0.9738000000000002  1.0000
  C   C36       1.0  0.07687  0.61657  0.00679  1.0000
  C   C37       1.0  0.3353  0.73011  0.02514  1.0000
  C   C38       1.0  0.12126  0.69049  0.05828  1.0000
  C   C39       1.0  0.25151  0.74934  0.06929  1.0000
  C   C40       1.0  0.2956200000000001  0.82708  0.12406  1.0000
  C   C41       1.0  0.3823499999999999  0.9084599999999998  0.11941000000000003  1.0000
  C   C42       1.0  0.24806  0.8159  0.1798  1.0000
  C   C43       1.0  0.4109999999999999  0.9338899999999998  0.06595000000000001  1.0000
  C   C44       1.0  0.20146  0.73615  0.19551  1.0000
  C   C45       1.0  0.4995200000000001  0.0203  0.08464  1.0000
  C   C46       1.0  0.52333  0.045970000000000004  0.14876  1.0000
  C   C47       1.0  0.17199000000000003  0.75934  0.2564  1.0000
  C   C48       1.0  0.1974899999999999  0.8519699999999998  0.27599  1.0000
  C   C49       1.0  0.80939  0.74863  0.18622  1.0000
  C   C50       1.0  0.1689  0.90892  0.32965  1.0000
  C   C51       1.0  0.84538  0.75873  0.12907  1.0000
  C   C52       1.0  0.88363  0.82974  0.23135000000000003  1.0000
  C   C53       1.0  0.1517300000000001  0.90268  0.38965000000000005  1.0000
  C   C54       1.0  0.93922  0.84478  0.14153000000000002  1.0000
  C   C55       1.0  0.1332899999999999  0.9781099999999998  0.42484  1.0000
  C   C56       1.0  0.13720000000000002  0.030460000000000025  0.38560000000000005  1.0000
  C   C57       1.0  0.004869999999999922  0.8859999999999999  0.09867  1.0000
  C   C58       1.0  0.9576000000000001  0.83973  0.0335  1.0000
  C   C59       1.0  0.8239400000000001  0.80241  0.01294  1.0000
  C   C60       1.0  0.04430000000000001  0.82874  0.98936  1.0000
  C   C61       1.0  0.7794000000000001  0.75545  0.95198  1.0000
  C   C62       1.0  0.0014000000000000702  0.78276  0.92804  1.0000
  C   C63       1.0  0.86762  0.74501  0.90853  1.0000
  C   C64       1.0  0.8209599999999999  0.6978699999999998  0.84616  1.0000
  C   C65       1.0  0.40422  0.51963  0.41177  1.0000
  C   C66       1.0  0.43574  0.59552  0.46361  1.0000
  C   C67       1.0  0.36373999999999984  0.6516099999999998  0.4719300000000001  1.0000
  C   C68       1.0  0.5392299999999999  0.6166199999999997  0.5081  1.0000
  C   C69       1.0  0.3939799999999999  0.7256899999999997  0.52311  1.0000
  C   C70       1.0  0.5673  0.69054  0.55927  1.0000
  C   C71       1.0  0.49556  0.74695  0.56862  1.0000
  C   C72       1.0  0.52829  0.82467  0.6231400000000001  1.0000
  C   C73       1.0  0.52496  0.90505  0.618  1.0000
  C   C74       1.0  0.5633099999999998  0.8145399999999998  0.6791100000000001  1.0000
  C   C75       1.0  0.52307  0.9301  0.5644200000000001  1.0000
  C   C76       1.0  0.52827  0.73496  0.6948900000000001  1.0000
  C   C77       1.0  0.5226899999999999  0.01574999999999996  0.583  1.0000
  C   C78       1.0  0.5241200000000001  0.04140000000000004  0.64714  1.0000
  C   C79       1.0  0.58097  0.7587999999999998  0.75578  1.0000
  C   C80       1.0  0.64981  0.85187  0.77527  1.0000
  C   C81       1.0  0.93863  0.75489  0.6877  1.0000
  C   C82       1.0  0.7358  0.9094399999999998  0.82915  1.0000
  C   C83       1.0  0.91317  0.7640699999999999  0.6304100000000001  1.0000
  C   C84       1.0  0.9476099999999998  0.8358199999999998  0.7325  1.0000
  C   C85       1.0  0.74606  0.9024  0.8888000000000003  1.0000
  C   C86       1.0  0.90779  0.8494399999999999  0.6425700000000001  1.0000
  C   C87       1.0  0.84122  0.97891  0.92442  1.0000
  C   C88       1.0  0.89131  0.032540000000000006  0.88581  1.0000
  C   C89       1.0  0.88391  0.88909  0.59919  1.0000
  C   C90       1.0  0.8826999999999999  0.8419899999999998  0.5339  1.0000
  C   C91       1.0  0.9778100000000001  0.8052199999999999  0.51312  1.0000
  C   C92       1.0  0.7837599999999998  0.8296799999999999  0.49006000000000005  1.0000
  C   C93       1.0  0.97295  0.75721  0.45230000000000004  1.0000
  C   C94       1.0  0.77855  0.78279  0.42885  1.0000
  C   C95       1.0  0.8729300000000001  0.74515  0.4092100000000001  1.0000
  C   C96       1.0  0.8695799999999998  0.6966499999999999  0.34703  1.0000
  C   C97       1.0  0.8792200000000001  0.4783599999999999  0.0883  1.0000
  C   C98       1.0  0.83733  0.40244  0.03629000000000001  1.0000
  C   C99       1.0  0.7071  0.3439599999999998  0.0262  1.0000
  C   C100      1.0  0.92312  0.38343000000000005  0.9932100000000003  1.0000
  C   C101      1.0  0.6646900000000001  0.2698800000000002  0.9748600000000002  1.0000
  C   C102      1.0  0.8787299999999997  0.3095  0.9417100000000003  1.0000
  C   C103      1.0  0.7484800000000001  0.25064999999999993  0.9307100000000001  1.0000
  C   C104      1.0  0.70437  0.17291  0.8759300000000001  1.0000
  C   C105      1.0  0.61763  0.09153000000000006  0.8805900000000001  1.0000
  C   C106      1.0  0.7519300000000001  0.18409999999999996  0.8202  1.0000
  C   C107      1.0  0.58899  0.06610000000000005  0.9340500000000002  1.0000
  C   C108      1.0  0.79853  0.26385  0.80449  1.0000
  C   C109      1.0  0.50047  0.97969  0.9153600000000001  1.0000
  C   C110      1.0  0.47665999999999986  0.95402  0.85123  1.0000
  C   C111      1.0  0.82799  0.24064999999999995  0.74359  1.0000
  C   C112      1.0  0.8025  0.14802  0.72401  1.0000
  C   C113      1.0  0.19060000000000005  0.25136000000000003  0.8137800000000002  1.0000
  C   C114      1.0  0.83109  0.09107  0.67035  1.0000
  C   C115      1.0  0.15460999999999994  0.2412599999999999  0.87093  1.0000
  C   C116      1.0  0.11636  0.17026000000000002  0.7686500000000002  1.0000
  C   C117      1.0  0.8482599999999999  0.09731000000000001  0.6103500000000001  1.0000
  C   C118      1.0  0.060770000000000025  0.15521000000000004  0.8584700000000001  1.0000
  C   C119      1.0  0.8667  0.021880000000000052  0.57516  1.0000
  C   C120      1.0  0.86279  0.96953  0.6144  1.0000
  C   C121      1.0  0.99512  0.11399000000000002  0.90133  1.0000
  C   C122      1.0  0.04239  0.16026  0.9665  1.0000
  C   C123      1.0  0.17605000000000004  0.19758000000000003  0.9870600000000002  1.0000
  C   C124      1.0  0.9556900000000002  0.17126  0.01064  1.0000
  C   C125      1.0  0.22059  0.24453999999999992  0.04802000000000001  1.0000
  C   C126      1.0  0.9986000000000002  0.21723  0.07195  1.0000
  C   C127      1.0  0.13238  0.25498  0.09147000000000001  1.0000
  C   C128      1.0  0.17901  0.30211  0.15382000000000004  1.0000
  N   N1        1.0  0.62292  0.54362  0.63139  1.0000
  N   N2        1.0  0.4749  0.02413  0.33165  1.0000
  N   N3        1.0  0.36540000000000006  0.11589999999999998  0.27047  1.0000
  N   N4        1.0  0.17543  0.01284000000000001  0.17224  1.0000
  N   N5        1.0  0.07061  0.1085  0.29414000000000007  1.0000
  N   N6        1.0  0.08688999999999987  0.4581999999999998  0.86837  1.0000
  N   N7        1.0  0.45450999999999986  0.9797699999999998  0.16995000000000002  1.0000
  N   N8        1.0  0.24661999999999987  0.8846299999999998  0.2302  1.0000
  N   N9        1.0  0.15798999999999996  0.98514  0.32757  1.0000
  N   N10       1.0  0.96017  0.88614  0.20472000000000007  1.0000
  N   N11       1.0  0.77881  0.6583099999999997  0.79506  1.0000
  N   N12       1.0  0.12989  0.3439599999999999  0.70398  1.0000
  N   N13       1.0  0.22119000000000003  0.3417  0.20496  1.0000
  N   N14       1.0  0.8701  0.65602  0.296  1.0000
  N   N15       1.0  0.37708  0.45623  0.3685  1.0000
  N   N16       1.0  0.5250899999999998  0.9758599999999998  0.66835  1.0000
  N   N17       1.0  0.63459  0.88409  0.72953  1.0000
  N   N18       1.0  0.82456  0.98715  0.82776  1.0000
  N   N19       1.0  0.9293799999999999  0.8914899999999999  0.70586  1.0000
  N   N20       1.0  0.9131299999999999  0.54186  0.13167  1.0000
  N   N21       1.0  0.54548  0.02022000000000005  0.8300400000000001  1.0000
  N   N22       1.0  0.7533700000000001  0.11536000000000002  0.7698  1.0000
  N   N23       1.0  0.8419999999999999  0.014850000000000014  0.67243  1.0000
  N   N24       1.0  0.039820000000000036  0.11385000000000005  0.7952700000000001  1.0000
