data_image0
_chemical_formula_structural       Zn16H72C152N16O64
_chemical_formula_sum              "Zn16 H72 C152 N16 O64"
_cell_length_a       17.96318
_cell_length_b       17.96318
_cell_length_c       28.52048
_cell_angle_alpha    90.0
_cell_angle_beta     90.0
_cell_angle_gamma    90.0

_space_group_name_H-M_alt    "P 1"
_space_group_IT_number       1

loop_
  _space_group_symop_operation_xyz
  'x, y, z'

loop_
  _atom_site_type_symbol
  _atom_site_label
  _atom_site_symmetry_multiplicity
  _atom_site_fract_x
  _atom_site_fract_y
  _atom_site_fract_z
  _atom_site_occupancy
  Zn  Zn1       1.0  0.53785  0.03785  0.9706100000000002  1.0000
  Zn  Zn2       1.0  0.96215  0.46215  0.9706100000000002  1.0000
  Zn  Zn3       1.0  0.46215  0.53785  0.47061  1.0000
  Zn  Zn4       1.0  0.03785  0.96215  0.47061  1.0000
  Zn  Zn5       1.0  0.96215  0.03785  0.52939  1.0000
  Zn  Zn6       1.0  0.53785  0.46215  0.52939  1.0000
  Zn  Zn7       1.0  0.03785  0.53785  0.02939  1.0000
  Zn  Zn8       1.0  0.46215  0.96215  0.02939  1.0000
  Zn  Zn9       1.0  0.25  0.17965  0.25  1.0000
  Zn  Zn10      1.0  0.25  0.32035  0.25  1.0000
  Zn  Zn11      1.0  0.32035  0.25  0.7500000000000001  1.0000
  Zn  Zn12      1.0  0.17965  0.25  0.7500000000000001  1.0000
  Zn  Zn13      1.0  0.75  0.82035  0.7500000000000001  1.0000
  Zn  Zn14      1.0  0.75  0.67965  0.7500000000000001  1.0000
  Zn  Zn15      1.0  0.67965  0.75  0.25  1.0000
  Zn  Zn16      1.0  0.82035  0.75  0.25  1.0000
  H   H1        1.0  0.384  0.13563  0.12773  1.0000
  H   H2        1.0  0.43682  0.36625  0.15381  1.0000
  H   H3        1.0  0.54194  0.24847  0.03891  1.0000
  H   H4        1.0  0.49528  0.39455  0.01172  1.0000
  H   H5        1.0  0.116  0.36437  0.12773  1.0000
  H   H6        1.0  0.06318  0.13375  0.15381  1.0000
  H   H7        1.0  0.9580600000000001  0.25153  0.03891  1.0000
  H   H8        1.0  0.00471  0.10545  0.01172  1.0000
  H   H9        1.0  0.36437  0.384  0.62773  1.0000
  H   H10       1.0  0.13375  0.43682  0.65381  1.0000
  H   H11       1.0  0.25153  0.54194  0.53891  1.0000
  H   H12       1.0  0.10545  0.49528  0.51171  1.0000
  H   H13       1.0  0.13563  0.116  0.62773  1.0000
  H   H14       1.0  0.36625  0.06318  0.65381  1.0000
  H   H15       1.0  0.24847  0.9580600000000001  0.53891  1.0000
  H   H16       1.0  0.39455  0.00471  0.51171  1.0000
  H   H17       1.0  0.116  0.13563  0.37227  1.0000
  H   H18       1.0  0.06318  0.36625  0.34619  1.0000
  H   H19       1.0  0.9580600000000001  0.24847  0.46109  1.0000
  H   H20       1.0  0.00471  0.39455  0.48828  1.0000
  H   H21       1.0  0.384  0.36437  0.37227  1.0000
  H   H22       1.0  0.43682  0.13375  0.34619  1.0000
  H   H23       1.0  0.54194  0.25153  0.46109  1.0000
  H   H24       1.0  0.49528  0.10545  0.48828  1.0000
  H   H25       1.0  0.13563  0.384  0.87227  1.0000
  H   H26       1.0  0.36625  0.43682  0.84619  1.0000
  H   H27       1.0  0.24847  0.54194  0.96108  1.0000
  H   H28       1.0  0.39455  0.49528  0.98828  1.0000
  H   H29       1.0  0.36437  0.116  0.87227  1.0000
  H   H30       1.0  0.13375  0.06318  0.84619  1.0000
  H   H31       1.0  0.25153  0.9580600000000001  0.96108  1.0000
  H   H32       1.0  0.10545  0.00471  0.98828  1.0000
  H   H33       1.0  0.6160000000000001  0.8643700000000001  0.87227  1.0000
  H   H34       1.0  0.56318  0.63374  0.84619  1.0000
  H   H35       1.0  0.45806  0.7515200000000001  0.96108  1.0000
  H   H36       1.0  0.5047100000000001  0.60544  0.98828  1.0000
  H   H37       1.0  0.884  0.63563  0.87227  1.0000
  H   H38       1.0  0.9368200000000001  0.86625  0.84619  1.0000
  H   H39       1.0  0.04194  0.74847  0.96108  1.0000
  H   H40       1.0  0.9952900000000001  0.8945500000000001  0.98828  1.0000
  H   H41       1.0  0.63563  0.6160000000000001  0.37227  1.0000
  H   H42       1.0  0.86625  0.56318  0.34619  1.0000
  H   H43       1.0  0.74847  0.45806  0.46109  1.0000
  H   H44       1.0  0.8945500000000001  0.5047100000000001  0.48828  1.0000
  H   H45       1.0  0.8643700000000001  0.884  0.37227  1.0000
  H   H46       1.0  0.63374  0.9368200000000001  0.34619  1.0000
  H   H47       1.0  0.7515200000000001  0.04194  0.46109  1.0000
  H   H48       1.0  0.60544  0.9952900000000001  0.48828  1.0000
  H   H49       1.0  0.884  0.8643700000000001  0.62773  1.0000
  H   H50       1.0  0.9368200000000001  0.63374  0.65381  1.0000
  H   H51       1.0  0.04194  0.7515200000000001  0.53891  1.0000
  H   H52       1.0  0.9952900000000001  0.60544  0.51171  1.0000
  H   H53       1.0  0.6160000000000001  0.63563  0.62773  1.0000
  H   H54       1.0  0.56318  0.86625  0.65381  1.0000
  H   H55       1.0  0.45806  0.74847  0.53891  1.0000
  H   H56       1.0  0.5047100000000001  0.8945500000000001  0.51171  1.0000
  H   H57       1.0  0.8643700000000001  0.6160000000000001  0.12773  1.0000
  H   H58       1.0  0.63374  0.56318  0.15381  1.0000
  H   H59       1.0  0.7515200000000001  0.45806  0.03891  1.0000
  H   H60       1.0  0.60544  0.5047100000000001  0.01172  1.0000
  H   H61       1.0  0.63563  0.884  0.12773  1.0000
  H   H62       1.0  0.86625  0.9368200000000001  0.15381  1.0000
  H   H63       1.0  0.74847  0.04194  0.03891  1.0000
  H   H64       1.0  0.8945500000000001  0.9952900000000001  0.01172  1.0000
  H   H65       1.0  0.60851  0.39149  0.14246  1.0000
  H   H66       1.0  0.89149  0.10851000000000002  0.14246  1.0000
  H   H67       1.0  0.10851000000000002  0.60851  0.64246  1.0000
  H   H68       1.0  0.39149  0.89149  0.64246  1.0000
  H   H69       1.0  0.89149  0.39149  0.35753  1.0000
  H   H70       1.0  0.60851  0.10851000000000002  0.35753  1.0000
  H   H71       1.0  0.39149  0.60851  0.85753  1.0000
  H   H72       1.0  0.10851000000000002  0.89149  0.85753  1.0000
  C   C1        1.0  0.46281  0.18471000000000004  0.08007  1.0000
  C   C2        1.0  0.41490000000000005  0.18556000000000003  0.11859  1.0000
  C   C3        1.0  0.44532  0.31557000000000013  0.13371  1.0000
  C   C4        1.0  0.49342  0.31334  0.09548  1.0000
  C   C5        1.0  0.50333  0.24953  0.06818  1.0000
  C   C6        1.0  0.5342  0.41208  0.03845  1.0000
  C   C7        1.0  0.3509200000000001  0.25139  0.18468  1.0000
  C   C8        1.0  0.4729300000000001  0.11607999999999999  0.05176  1.0000
  C   C9        1.0  0.4050300000000001  0.25051  0.14545  1.0000
  C   C10       1.0  0.03719  0.31529  0.08007  1.0000
  C   C11       1.0  0.0851  0.31444  0.11859  1.0000
  C   C12       1.0  0.05468000000000001  0.18443  0.13371  1.0000
  C   C13       1.0  0.00658  0.18666  0.09548  1.0000
  C   C14       1.0  0.99666  0.25047  0.06818  1.0000
  C   C15       1.0  0.9658  0.08792  0.03844  1.0000
  C   C16       1.0  0.14908  0.24861000000000003  0.18468  1.0000
  C   C17       1.0  0.02707  0.38392  0.05176  1.0000
  C   C18       1.0  0.09497000000000001  0.24949  0.14545  1.0000
  C   C19       1.0  0.31529  0.46281  0.5800700000000001  1.0000
  C   C20       1.0  0.31444  0.41490000000000005  0.61859  1.0000
  C   C21       1.0  0.18443  0.44532  0.6337100000000001  1.0000
  C   C22       1.0  0.18666  0.49342  0.59548  1.0000
  C   C23       1.0  0.25047  0.50333  0.5681800000000001  1.0000
  C   C24       1.0  0.08792  0.5342  0.53844  1.0000
  C   C25       1.0  0.24861000000000003  0.3509200000000001  0.68468  1.0000
  C   C26       1.0  0.38392  0.4729300000000001  0.55176  1.0000
  C   C27       1.0  0.24949  0.4050300000000001  0.64544  1.0000
  C   C28       1.0  0.18471000000000004  0.03719  0.5800700000000001  1.0000
  C   C29       1.0  0.18556000000000003  0.0851  0.61859  1.0000
  C   C30       1.0  0.31557000000000013  0.05468000000000001  0.6337100000000001  1.0000
  C   C31       1.0  0.31334  0.00658  0.59548  1.0000
  C   C32       1.0  0.24953  0.99666  0.5681800000000001  1.0000
  C   C33       1.0  0.41208  0.9658  0.53844  1.0000
  C   C34       1.0  0.25139  0.14908  0.68468  1.0000
  C   C35       1.0  0.11607999999999999  0.02707  0.55176  1.0000
  C   C36       1.0  0.25051  0.09497000000000001  0.64544  1.0000
  C   C37       1.0  0.03719  0.18471000000000004  0.41993  1.0000
  C   C38       1.0  0.0851  0.18556000000000003  0.3814100000000001  1.0000
  C   C39       1.0  0.05468000000000001  0.31557000000000013  0.36629  1.0000
  C   C40       1.0  0.00658  0.31334  0.40452  1.0000
  C   C41       1.0  0.99666  0.24953  0.43182  1.0000
  C   C42       1.0  0.9658  0.41208  0.4615500000000001  1.0000
  C   C43       1.0  0.14908  0.25139  0.31532  1.0000
  C   C44       1.0  0.02707  0.11607999999999999  0.44824  1.0000
  C   C45       1.0  0.09497000000000001  0.25051  0.35455  1.0000
  C   C46       1.0  0.46281  0.31529  0.41993  1.0000
  C   C47       1.0  0.41490000000000005  0.31444  0.3814100000000001  1.0000
  C   C48       1.0  0.44532  0.18443  0.36629  1.0000
  C   C49       1.0  0.49342  0.18666  0.40452  1.0000
  C   C50       1.0  0.50333  0.25047  0.43182  1.0000
  C   C51       1.0  0.5342  0.08792  0.4615500000000001  1.0000
  C   C52       1.0  0.3509200000000001  0.24861000000000003  0.31532  1.0000
  C   C53       1.0  0.4729300000000001  0.38392  0.44824  1.0000
  C   C54       1.0  0.4050300000000001  0.24949  0.35455  1.0000
  C   C55       1.0  0.18471000000000004  0.46281  0.91993  1.0000
  C   C56       1.0  0.18556000000000003  0.41490000000000005  0.88141  1.0000
  C   C57       1.0  0.31557000000000013  0.44532  0.86628  1.0000
  C   C58       1.0  0.31334  0.49342  0.9045200000000002  1.0000
  C   C59       1.0  0.24953  0.50333  0.93182  1.0000
  C   C60       1.0  0.41208  0.5342  0.96155  1.0000
  C   C61       1.0  0.25139  0.3509200000000001  0.81532  1.0000
  C   C62       1.0  0.11607999999999999  0.4729300000000001  0.94824  1.0000
  C   C63       1.0  0.25051  0.4050300000000001  0.85455  1.0000
  C   C64       1.0  0.31529  0.03719  0.91993  1.0000
  C   C65       1.0  0.31444  0.0851  0.88141  1.0000
  C   C66       1.0  0.18443  0.05468000000000001  0.86628  1.0000
  C   C67       1.0  0.18666  0.00658  0.9045200000000002  1.0000
  C   C68       1.0  0.25047  0.99666  0.93182  1.0000
  C   C69       1.0  0.08792  0.9658  0.96155  1.0000
  C   C70       1.0  0.24861000000000003  0.14908  0.81532  1.0000
  C   C71       1.0  0.38392  0.02707  0.94824  1.0000
  C   C72       1.0  0.24949  0.09497000000000001  0.85455  1.0000
  C   C73       1.0  0.53719  0.81529  0.91993  1.0000
  C   C74       1.0  0.5851  0.81444  0.88141  1.0000
  C   C75       1.0  0.55468  0.68443  0.86628  1.0000
  C   C76       1.0  0.50658  0.68666  0.9045200000000002  1.0000
  C   C77       1.0  0.49667000000000006  0.75047  0.93182  1.0000
  C   C78       1.0  0.4658  0.58792  0.96155  1.0000
  C   C79       1.0  0.64908  0.74861  0.81532  1.0000
  C   C80       1.0  0.52707  0.88392  0.94824  1.0000
  C   C81       1.0  0.59497  0.7494900000000001  0.85455  1.0000
  C   C82       1.0  0.96281  0.68471  0.91993  1.0000
  C   C83       1.0  0.9149  0.68556  0.88141  1.0000
  C   C84       1.0  0.94532  0.81557  0.86628  1.0000
  C   C85       1.0  0.99342  0.8133400000000001  0.9045200000000002  1.0000
  C   C86       1.0  0.00333  0.74952  0.93182  1.0000
  C   C87       1.0  0.0342  0.9120800000000001  0.96155  1.0000
  C   C88       1.0  0.85092  0.75139  0.81532  1.0000
  C   C89       1.0  0.9729300000000001  0.61608  0.94824  1.0000
  C   C90       1.0  0.90503  0.75051  0.85455  1.0000
  C   C91       1.0  0.68471  0.53719  0.41993  1.0000
  C   C92       1.0  0.68556  0.5851  0.3814100000000001  1.0000
  C   C93       1.0  0.81557  0.55468  0.36629  1.0000
  C   C94       1.0  0.8133400000000001  0.50658  0.40452  1.0000
  C   C95       1.0  0.74952  0.49667000000000006  0.43182  1.0000
  C   C96       1.0  0.9120800000000001  0.4658  0.4615500000000001  1.0000
  C   C97       1.0  0.75139  0.64908  0.31532  1.0000
  C   C98       1.0  0.61608  0.52707  0.44824  1.0000
  C   C99       1.0  0.75051  0.59497  0.35455  1.0000
  C   C100      1.0  0.81529  0.96281  0.41993  1.0000
  C   C101      1.0  0.81444  0.9149  0.3814100000000001  1.0000
  C   C102      1.0  0.68443  0.94532  0.36629  1.0000
  C   C103      1.0  0.68666  0.99342  0.40452  1.0000
  C   C104      1.0  0.75047  0.00333  0.43182  1.0000
  C   C105      1.0  0.58792  0.0342  0.4615500000000001  1.0000
  C   C106      1.0  0.74861  0.85092  0.31532  1.0000
  C   C107      1.0  0.88392  0.9729300000000001  0.44824  1.0000
  C   C108      1.0  0.7494900000000001  0.90503  0.35455  1.0000
  C   C109      1.0  0.96281  0.81529  0.5800700000000001  1.0000
  C   C110      1.0  0.9149  0.81444  0.61859  1.0000
  C   C111      1.0  0.94532  0.68443  0.6337100000000001  1.0000
  C   C112      1.0  0.99342  0.68666  0.59548  1.0000
  C   C113      1.0  0.00333  0.75047  0.5681800000000001  1.0000
  C   C114      1.0  0.0342  0.58792  0.53844  1.0000
  C   C115      1.0  0.85092  0.74861  0.68468  1.0000
  C   C116      1.0  0.9729300000000001  0.88392  0.55176  1.0000
  C   C117      1.0  0.90503  0.7494900000000001  0.64544  1.0000
  C   C118      1.0  0.53719  0.68471  0.5800700000000001  1.0000
  C   C119      1.0  0.5851  0.68556  0.61859  1.0000
  C   C120      1.0  0.55468  0.81557  0.6337100000000001  1.0000
  C   C121      1.0  0.50658  0.8133400000000001  0.59548  1.0000
  C   C122      1.0  0.49667000000000006  0.74952  0.5681800000000001  1.0000
  C   C123      1.0  0.4658  0.9120800000000001  0.53844  1.0000
  C   C124      1.0  0.64908  0.75139  0.68468  1.0000
  C   C125      1.0  0.52707  0.61608  0.55176  1.0000
  C   C126      1.0  0.59497  0.75051  0.64544  1.0000
  C   C127      1.0  0.81529  0.53719  0.08007  1.0000
  C   C128      1.0  0.81444  0.5851  0.11859  1.0000
  C   C129      1.0  0.68443  0.55468  0.13371  1.0000
  C   C130      1.0  0.68666  0.50658  0.09548  1.0000
  C   C131      1.0  0.75047  0.49667000000000006  0.06818  1.0000
  C   C132      1.0  0.58792  0.4658  0.03845  1.0000
  C   C133      1.0  0.74861  0.64908  0.18468  1.0000
  C   C134      1.0  0.88392  0.52707  0.05176  1.0000
  C   C135      1.0  0.7494900000000001  0.59497  0.14545  1.0000
  C   C136      1.0  0.68471  0.96281  0.08007  1.0000
  C   C137      1.0  0.68556  0.9149  0.11859  1.0000
  C   C138      1.0  0.81557  0.94532  0.13371  1.0000
  C   C139      1.0  0.8133400000000001  0.99342  0.09548  1.0000
  C   C140      1.0  0.74952  0.00333  0.06818  1.0000
  C   C141      1.0  0.9120800000000001  0.0342  0.03844  1.0000
  C   C142      1.0  0.75139  0.85092  0.18468  1.0000
  C   C143      1.0  0.61608  0.9729300000000001  0.05176  1.0000
  C   C144      1.0  0.75051  0.90503  0.14545  1.0000
  C   C145      1.0  0.58921  0.41079000000000004  0.10877000000000003  1.0000
  C   C146      1.0  0.91079  0.08921  0.10877000000000003  1.0000
  C   C147      1.0  0.08921  0.58921  0.60877  1.0000
  C   C148      1.0  0.41079000000000004  0.91079  0.60877  1.0000
  C   C149      1.0  0.91079  0.41079000000000004  0.3912300000000001  1.0000
  C   C150      1.0  0.58921  0.08921  0.3912300000000001  1.0000
  C   C151      1.0  0.41079000000000004  0.58921  0.89123  1.0000
  C   C152      1.0  0.08921  0.91079  0.89123  1.0000
  N   N1        1.0  0.53427  0.379  0.08257  1.0000
  N   N2        1.0  0.96572  0.12100000000000001  0.08257  1.0000
  N   N3        1.0  0.12100000000000001  0.53427  0.58257  1.0000
  N   N4        1.0  0.379  0.96572  0.58257  1.0000
  N   N5        1.0  0.96572  0.379  0.41743  1.0000
  N   N6        1.0  0.53427  0.12100000000000001  0.41743  1.0000
  N   N7        1.0  0.379  0.53427  0.91743  1.0000
  N   N8        1.0  0.12100000000000001  0.96572  0.91743  1.0000
  N   N9        1.0  0.4657200000000001  0.621  0.91743  1.0000
  N   N10       1.0  0.03427  0.8789900000000003  0.91743  1.0000
  N   N11       1.0  0.8789900000000003  0.4657200000000001  0.41743  1.0000
  N   N12       1.0  0.621  0.03427  0.41743  1.0000
  N   N13       1.0  0.03427  0.621  0.58257  1.0000
  N   N14       1.0  0.4657200000000001  0.8789900000000003  0.58257  1.0000
  N   N15       1.0  0.621  0.4657200000000001  0.08257  1.0000
  N   N16       1.0  0.8789900000000003  0.03427  0.08257  1.0000
  O   O1        1.0  0.5113  0.12267000000000002  0.013900000000000001  1.0000
  O   O2        1.0  0.44388  0.05556  0.06706  1.0000
  O   O3        1.0  0.31841  0.18933  0.19448  1.0000
  O   O4        1.0  0.33987  0.31366  0.20586  1.0000
  O   O5        1.0  0.9887000000000001  0.37733000000000005  0.013900000000000001  1.0000
  O   O6        1.0  0.056119999999999996  0.44444000000000006  0.06706  1.0000
  O   O7        1.0  0.18159  0.31067  0.19448  1.0000
  O   O8        1.0  0.16013  0.18634000000000006  0.20586  1.0000
  O   O9        1.0  0.37733000000000005  0.5113  0.5139  1.0000
  O   O10       1.0  0.44444000000000006  0.44388  0.5670600000000001  1.0000
  O   O11       1.0  0.31067  0.31841  0.69448  1.0000
  O   O12       1.0  0.18634000000000006  0.33987  0.70586  1.0000
  O   O13       1.0  0.12267000000000002  0.9887000000000001  0.5139  1.0000
  O   O14       1.0  0.05556  0.056119999999999996  0.5670600000000001  1.0000
  O   O15       1.0  0.18933  0.18159  0.69448  1.0000
  O   O16       1.0  0.31366  0.16013  0.70586  1.0000
  O   O17       1.0  0.9887000000000001  0.12267000000000002  0.48610000000000003  1.0000
  O   O18       1.0  0.056119999999999996  0.05556  0.43294  1.0000
  O   O19       1.0  0.18159  0.18933  0.30552  1.0000
  O   O20       1.0  0.16013  0.31366  0.29413  1.0000
  O   O21       1.0  0.5113  0.37733000000000005  0.48610000000000003  1.0000
  O   O22       1.0  0.44388  0.44444000000000006  0.43294  1.0000
  O   O23       1.0  0.31841  0.31067  0.30552  1.0000
  O   O24       1.0  0.33987  0.18634000000000006  0.29413  1.0000
  O   O25       1.0  0.12267000000000002  0.5113  0.9861  1.0000
  O   O26       1.0  0.05556  0.44388  0.93294  1.0000
  O   O27       1.0  0.18933  0.31841  0.8055200000000002  1.0000
  O   O28       1.0  0.31366  0.33987  0.7941300000000002  1.0000
  O   O29       1.0  0.37733000000000005  0.9887000000000001  0.9861  1.0000
  O   O30       1.0  0.44444000000000006  0.056119999999999996  0.93294  1.0000
  O   O31       1.0  0.31067  0.18159  0.8055200000000002  1.0000
  O   O32       1.0  0.18634000000000006  0.16013  0.7941300000000002  1.0000
  O   O33       1.0  0.4887000000000001  0.87733  0.9861  1.0000
  O   O34       1.0  0.55612  0.94444  0.93294  1.0000
  O   O35       1.0  0.68159  0.81067  0.8055200000000002  1.0000
  O   O36       1.0  0.66013  0.68634  0.7941300000000002  1.0000
  O   O37       1.0  0.0113  0.62267  0.9861  1.0000
  O   O38       1.0  0.94388  0.55556  0.93294  1.0000
  O   O39       1.0  0.81841  0.68933  0.8055200000000002  1.0000
  O   O40       1.0  0.83987  0.81366  0.7941300000000002  1.0000
  O   O41       1.0  0.62267  0.4887000000000001  0.48610000000000003  1.0000
  O   O42       1.0  0.55556  0.55612  0.43294  1.0000
  O   O43       1.0  0.68933  0.68159  0.30552  1.0000
  O   O44       1.0  0.81366  0.66013  0.29413  1.0000
  O   O45       1.0  0.87733  0.0113  0.48610000000000003  1.0000
  O   O46       1.0  0.94444  0.94388  0.43294  1.0000
  O   O47       1.0  0.81067  0.81841  0.30552  1.0000
  O   O48       1.0  0.68634  0.83987  0.29413  1.0000
  O   O49       1.0  0.0113  0.87733  0.5139  1.0000
  O   O50       1.0  0.94388  0.94444  0.5670600000000001  1.0000
  O   O51       1.0  0.81841  0.81067  0.69448  1.0000
  O   O52       1.0  0.83987  0.68634  0.70586  1.0000
  O   O53       1.0  0.4887000000000001  0.62267  0.5139  1.0000
  O   O54       1.0  0.55612  0.55556  0.5670600000000001  1.0000
  O   O55       1.0  0.68159  0.68933  0.69448  1.0000
  O   O56       1.0  0.66013  0.81366  0.70586  1.0000
  O   O57       1.0  0.87733  0.4887000000000001  0.013900000000000001  1.0000
  O   O58       1.0  0.94444  0.55612  0.06706  1.0000
  O   O59       1.0  0.81067  0.68159  0.19448  1.0000
  O   O60       1.0  0.68634  0.66013  0.20586  1.0000
  O   O61       1.0  0.62267  0.0113  0.013900000000000001  1.0000
  O   O62       1.0  0.55556  0.94388  0.06706  1.0000
  O   O63       1.0  0.68933  0.81841  0.19448  1.0000
  O   O64       1.0  0.81366  0.83987  0.20586  1.0000
