data_image0
_chemical_formula_structural       Cd12H72C168O48
_chemical_formula_sum              "Cd12 H72 C168 O48"
_cell_length_a       20.36094
_cell_length_b       20.36094
_cell_length_c       20.36095
_cell_angle_alpha    89.96283000000001
_cell_angle_beta     89.96285000000002
_cell_angle_gamma    89.96285000000002

_space_group_name_H-M_alt    "P 1"
_space_group_IT_number       1

loop_
  _space_group_symop_operation_xyz
  'x, y, z'

loop_
  _atom_site_type_symbol
  _atom_site_label
  _atom_site_symmetry_multiplicity
  _atom_site_fract_x
  _atom_site_fract_y
  _atom_site_fract_z
  _atom_site_occupancy
  Cd  Cd1       1.0  0.12497  0.62494  0.87498  1.0000
  Cd  Cd2       1.0  0.37505  0.37505  0.37505  1.0000
  Cd  Cd3       1.0  0.8749800000000001  0.12497  0.62494  1.0000
  Cd  Cd4       1.0  0.6249400000000002  0.87498  0.12497000000000001  1.0000
  Cd  Cd5       1.0  0.030820000000000004  0.53049  0.97007  1.0000
  Cd  Cd6       1.0  0.46932000000000007  0.46932  0.46932  1.0000
  Cd  Cd7       1.0  0.9700700000000001  0.030820000000000004  0.53049  1.0000
  Cd  Cd8       1.0  0.53049  0.97007  0.030819999999999997  1.0000
  Cd  Cd9       1.0  0.2806  0.2806  0.2806  1.0000
  Cd  Cd10      1.0  0.22016000000000002  0.71901  0.7806  1.0000
  Cd  Cd11      1.0  0.7806  0.22016000000000002  0.71901  1.0000
  Cd  Cd12      1.0  0.7190100000000001  0.7806  0.22015999999999997  1.0000
  H   H1        1.0  0.06802000000000001  0.35874  0.8089  1.0000
  H   H2        1.0  0.27027  0.46199  0.72174  1.0000
  H   H3        1.0  0.21663000000000002  0.5069  0.81903  1.0000
  H   H4        1.0  0.43106  0.64178  0.30862  1.0000
  H   H5        1.0  0.22933  0.53827  0.22117000000000003  1.0000
  H   H6        1.0  0.2825  0.49329  0.31854  1.0000
  H   H7        1.0  0.93199  0.85835  0.69154  1.0000
  H   H8        1.0  0.7298400000000002  0.96242  0.77807  1.0000
  H   H9        1.0  0.78357  0.006960000000000002  0.68076  1.0000
  H   H10       1.0  0.56909  0.14114  0.19125  1.0000
  H   H11       1.0  0.77106  0.0375  0.27848  1.0000
  H   H12       1.0  0.71764  0.99262  0.18117  1.0000
  H   H13       1.0  0.8089000000000001  0.06802  0.35874  1.0000
  H   H14       1.0  0.72174  0.27026  0.46199000000000007  1.0000
  H   H15       1.0  0.8190300000000001  0.21663000000000002  0.5069  1.0000
  H   H16       1.0  0.30862  0.43106000000000005  0.64178  1.0000
  H   H17       1.0  0.22117000000000003  0.22933000000000003  0.53827  1.0000
  H   H18       1.0  0.31854  0.2825  0.49329  1.0000
  H   H19       1.0  0.6915400000000002  0.9319900000000001  0.85835  1.0000
  H   H20       1.0  0.77807  0.72984  0.9624200000000002  1.0000
  H   H21       1.0  0.68076  0.78357  0.00696  1.0000
  H   H22       1.0  0.19125  0.56909  0.14114  1.0000
  H   H23       1.0  0.27848  0.77106  0.0375  1.0000
  H   H24       1.0  0.18117  0.71764  0.99262  1.0000
  H   H25       1.0  0.35874000000000006  0.8089  0.06802  1.0000
  H   H26       1.0  0.46199  0.72174  0.27026  1.0000
  H   H27       1.0  0.5069  0.81903  0.21663  1.0000
  H   H28       1.0  0.64178  0.30862  0.43106  1.0000
  H   H29       1.0  0.53827  0.22117000000000003  0.22933  1.0000
  H   H30       1.0  0.49329  0.31854  0.2825  1.0000
  H   H31       1.0  0.8583600000000001  0.69154  0.93199  1.0000
  H   H32       1.0  0.9624200000000002  0.7780700000000002  0.72984  1.0000
  H   H33       1.0  0.00696  0.68076  0.78357  1.0000
  H   H34       1.0  0.14114000000000002  0.19125  0.56909  1.0000
  H   H35       1.0  0.037500000000000006  0.27848  0.77106  1.0000
  H   H36       1.0  0.9926200000000001  0.18117  0.71764  1.0000
  H   H37       1.0  0.10901  0.3193  0.44109  1.0000
  H   H38       1.0  0.21241000000000002  0.52111  0.52845  1.0000
  H   H39       1.0  0.25728  0.46794  0.43102  1.0000
  H   H40       1.0  0.39158  0.68119  0.9414000000000001  1.0000
  H   H41       1.0  0.28847  0.47915  0.02902  1.0000
  H   H42       1.0  0.24323000000000003  0.5326  0.93177  1.0000
  H   H43       1.0  0.60907  0.18183  0.55878  1.0000
  H   H44       1.0  0.7122300000000001  0.9796500000000001  0.47146  1.0000
  H   H45       1.0  0.75725  0.03286  0.56872  1.0000
  H   H46       1.0  0.89189  0.8183400000000001  0.05873  1.0000
  H   H47       1.0  0.78775  0.02031  0.97195  1.0000
  H   H48       1.0  0.7431  0.96665  0.06923  1.0000
  H   H49       1.0  0.8183400000000001  0.05873  0.89189  1.0000
  H   H50       1.0  0.020310000000000005  0.9719500000000001  0.7877499999999998  1.0000
  H   H51       1.0  0.96665  0.06923  0.7431  1.0000
  H   H52       1.0  0.18183  0.55878  0.60907  1.0000
  H   H53       1.0  0.97965  0.47146  0.71223  1.0000
  H   H54       1.0  0.03286  0.5687200000000001  0.75725  1.0000
  H   H55       1.0  0.68119  0.9414  0.39158  1.0000
  H   H56       1.0  0.4791500000000001  0.02902  0.28847  1.0000
  H   H57       1.0  0.5326  0.9317700000000001  0.24322  1.0000
  H   H58       1.0  0.31930000000000003  0.44109  0.10901  1.0000
  H   H59       1.0  0.52111  0.52845  0.21241  1.0000
  H   H60       1.0  0.46794  0.43102000000000007  0.25728  1.0000
  H   H61       1.0  0.5587900000000001  0.60907  0.18183  1.0000
  H   H62       1.0  0.47146000000000005  0.7122300000000001  0.97965  1.0000
  H   H63       1.0  0.56872  0.75725  0.03286  1.0000
  H   H64       1.0  0.058730000000000004  0.8918900000000001  0.81834  1.0000
  H   H65       1.0  0.9719500000000001  0.78775  0.02031  1.0000
  H   H66       1.0  0.06923000000000001  0.7431000000000001  0.96665  1.0000
  H   H67       1.0  0.44109000000000004  0.10901  0.3193  1.0000
  H   H68       1.0  0.5284500000000001  0.21241  0.52111  1.0000
  H   H69       1.0  0.43102000000000007  0.25728  0.46794  1.0000
  H   H70       1.0  0.9414  0.39158000000000004  0.68119  1.0000
  H   H71       1.0  0.02902  0.28847  0.4791500000000001  1.0000
  H   H72       1.0  0.9317700000000002  0.24322  0.5326  1.0000
  C   C1        1.0  0.10549  0.46514000000000005  0.87725  1.0000
  C   C2        1.0  0.13865  0.43462  0.8199  1.0000
  C   C3        1.0  0.11306  0.37932  0.78906  1.0000
  C   C4        1.0  0.14376  0.35145  0.73346  1.0000
  C   C5        1.0  0.20124  0.38204  0.70761  1.0000
  C   C6        1.0  0.22642  0.43788000000000005  0.74011  1.0000
  C   C7        1.0  0.19642000000000004  0.46364  0.79519  1.0000
  C   C8        1.0  0.39412  0.5351599999999999  0.37703  1.0000
  C   C9        1.0  0.36054  0.56583  0.31985  1.0000
  C   C10       1.0  0.38610000000000005  0.6211300000000001  0.28881  1.0000
  C   C11       1.0  0.35568  0.64887  0.23296  1.0000
  C   C12       1.0  0.29837  0.6182000000000001  0.20707  1.0000
  C   C13       1.0  0.27313  0.56235  0.23965000000000003  1.0000
  C   C14       1.0  0.30289  0.53667  0.29494  1.0000
  C   C15       1.0  0.8948100000000002  0.9651500000000001  0.62285  1.0000
  C   C16       1.0  0.86149  0.9344500000000001  0.68012  1.0000
  C   C17       1.0  0.88693  0.8791200000000001  0.71122  1.0000
  C   C18       1.0  0.8561700000000002  0.85145  0.76693  1.0000
  C   C19       1.0  0.79874  0.8823  0.7926400000000001  1.0000
  C   C20       1.0  0.77368  0.9381200000000001  0.75988  1.0000
  C   C21       1.0  0.8037100000000001  0.9636500000000001  0.70471  1.0000
  C   C22       1.0  0.6059600000000002  0.03504  0.12296999999999998  1.0000
  C   C23       1.0  0.6396500000000002  0.06529  0.18014  1.0000
  C   C24       1.0  0.6141  0.12055  0.21114  1.0000
  C   C25       1.0  0.6445900000000001  0.14826  0.26684  1.0000
  C   C26       1.0  0.70198  0.11749  0.29263  1.0000
  C   C27       1.0  0.7272300000000002  0.06165  0.26005  1.0000
  C   C28       1.0  0.69737  0.036  0.20486  1.0000
  C   C29       1.0  0.8772500000000001  0.10549  0.46514  1.0000
  C   C30       1.0  0.8199000000000001  0.13865  0.43462  1.0000
  C   C31       1.0  0.7890600000000001  0.11306  0.37932  1.0000
  C   C32       1.0  0.73346  0.14376  0.35145  1.0000
  C   C33       1.0  0.7076100000000001  0.20124  0.38204  1.0000
  C   C34       1.0  0.7401100000000002  0.22642000000000004  0.43788  1.0000
  C   C35       1.0  0.79519  0.19642  0.46364  1.0000
  C   C36       1.0  0.37703000000000003  0.3941200000000001  0.53516  1.0000
  C   C37       1.0  0.31985  0.3605400000000001  0.56583  1.0000
  C   C38       1.0  0.28881  0.3861  0.62113  1.0000
  C   C39       1.0  0.23296000000000003  0.35568  0.64887  1.0000
  C   C40       1.0  0.20707  0.29837  0.6182  1.0000
  C   C41       1.0  0.23965000000000003  0.27313  0.56235  1.0000
  C   C42       1.0  0.29494  0.30289  0.53667  1.0000
  C   C43       1.0  0.62286  0.89481  0.9651499999999998  1.0000
  C   C44       1.0  0.68012  0.86148  0.93445  1.0000
  C   C45       1.0  0.7112200000000001  0.8869300000000001  0.87912  1.0000
  C   C46       1.0  0.76693  0.85617  0.85145  1.0000
  C   C47       1.0  0.79264  0.79874  0.8823  1.0000
  C   C48       1.0  0.7598800000000001  0.77368  0.93812  1.0000
  C   C49       1.0  0.7047100000000001  0.8037000000000001  0.9636500000000001  1.0000
  C   C50       1.0  0.12297  0.60596  0.03504  1.0000
  C   C51       1.0  0.18014  0.63965  0.06529  1.0000
  C   C52       1.0  0.21114000000000002  0.61409  0.12054999999999999  1.0000
  C   C53       1.0  0.26684  0.64458  0.14826  1.0000
  C   C54       1.0  0.29263000000000006  0.7019800000000002  0.11749000000000001  1.0000
  C   C55       1.0  0.26005  0.72723  0.06165  1.0000
  C   C56       1.0  0.20486  0.69737  0.036  1.0000
  C   C57       1.0  0.46514  0.8772500000000001  0.10549  1.0000
  C   C58       1.0  0.43462  0.8199  0.13865  1.0000
  C   C59       1.0  0.37932  0.7890600000000001  0.11306  1.0000
  C   C60       1.0  0.35145  0.7334600000000001  0.14376  1.0000
  C   C61       1.0  0.38204000000000005  0.70761  0.20124  1.0000
  C   C62       1.0  0.43788  0.74011  0.22642  1.0000
  C   C63       1.0  0.46364  0.7951900000000001  0.19642  1.0000
  C   C64       1.0  0.53516  0.37703  0.39412  1.0000
  C   C65       1.0  0.5658300000000002  0.31985  0.36054  1.0000
  C   C66       1.0  0.62113  0.28881  0.3861  1.0000
  C   C67       1.0  0.6488700000000001  0.23296  0.35568  1.0000
  C   C68       1.0  0.6182000000000001  0.20707000000000003  0.29837  1.0000
  C   C69       1.0  0.56235  0.23965  0.27313  1.0000
  C   C70       1.0  0.53667  0.29494  0.30288  1.0000
  C   C71       1.0  0.9651500000000001  0.62285  0.89481  1.0000
  C   C72       1.0  0.93445  0.68012  0.86148  1.0000
  C   C73       1.0  0.87912  0.7112200000000001  0.88693  1.0000
  C   C74       1.0  0.8514600000000001  0.7669300000000001  0.85617  1.0000
  C   C75       1.0  0.8823  0.79264  0.7987399999999999  1.0000
  C   C76       1.0  0.9381200000000001  0.7598800000000001  0.77368  1.0000
  C   C77       1.0  0.96365  0.70471  0.8037  1.0000
  C   C78       1.0  0.03504  0.12297  0.60596  1.0000
  C   C79       1.0  0.06529  0.18014  0.63965  1.0000
  C   C80       1.0  0.12055000000000002  0.21114  0.61409  1.0000
  C   C81       1.0  0.14826000000000003  0.26684  0.64458  1.0000
  C   C82       1.0  0.11749  0.29263  0.70198  1.0000
  C   C83       1.0  0.06166  0.26005  0.72723  1.0000
  C   C84       1.0  0.036  0.20486  0.69737  1.0000
  C   C85       1.0  0.21505  0.35606  0.37275  1.0000
  C   C86       1.0  0.18485000000000001  0.38978000000000007  0.43002999999999997  1.0000
  C   C87       1.0  0.12958  0.36423000000000005  0.4610600000000001  1.0000
  C   C88       1.0  0.10181  0.39466  0.5168  1.0000
  C   C89       1.0  0.1325  0.45199000000000006  0.54269  1.0000
  C   C90       1.0  0.18831  0.47729  0.51005  1.0000
  C   C91       1.0  0.21400000000000002  0.4475000000000001  0.45478  1.0000
  C   C92       1.0  0.28529  0.64411  0.8731600000000002  1.0000
  C   C93       1.0  0.31574  0.61065  0.93049  1.0000
  C   C94       1.0  0.37103  0.6362000000000001  0.9613900000000001  1.0000
  C   C95       1.0  0.39885000000000004  0.60576  0.01715  1.0000
  C   C96       1.0  0.36824  0.54834  0.04303  1.0000
  C   C97       1.0  0.31242  0.52307  0.01053  1.0000
  C   C98       1.0  0.2866000000000001  0.55292  0.95538  1.0000
  C   C99       1.0  0.71538  0.14445  0.62699  1.0000
  C   C100      1.0  0.68477  0.111  0.56989  1.0000
  C   C101      1.0  0.62949  0.13668000000000002  0.539  1.0000
  C   C102      1.0  0.6015600000000001  0.10617  0.48343  1.0000
  C   C103      1.0  0.63216  0.04872  0.45757  1.0000
  C   C104      1.0  0.68808  0.02344  0.48997  1.0000
  C   C105      1.0  0.71386  0.05322000000000001  0.54511  1.0000
  C   C106      1.0  0.78443  0.85479  0.12702  1.0000
  C   C107      1.0  0.81548  0.8884500000000001  0.07002  1.0000
  C   C108      1.0  0.87102  0.8633200000000001  0.03904  1.0000
  C   C109      1.0  0.8988  0.89416  0.9833799999999999  1.0000
  C   C110      1.0  0.86797  0.95158  0.95763  1.0000
  C   C111      1.0  0.81207  0.9765300000000001  0.99033  1.0000
  C   C112      1.0  0.7864400000000001  0.9463800000000001  0.04545  1.0000
  C   C113      1.0  0.8547900000000002  0.12702  0.78443  1.0000
  C   C114      1.0  0.8884500000000001  0.07002  0.81548  1.0000
  C   C115      1.0  0.86332  0.03904  0.8710199999999999  1.0000
  C   C116      1.0  0.89416  0.98338  0.8987999999999999  1.0000
  C   C117      1.0  0.9515800000000001  0.9576300000000002  0.8679699999999999  1.0000
  C   C118      1.0  0.97653  0.9903300000000002  0.8120700000000001  1.0000
  C   C119      1.0  0.94638  0.045450000000000004  0.7864399999999999  1.0000
  C   C120      1.0  0.14445  0.6269900000000002  0.71538  1.0000
  C   C121      1.0  0.11100000000000003  0.56989  0.68477  1.0000
  C   C122      1.0  0.13668  0.539  0.62949  1.0000
  C   C123      1.0  0.10617000000000003  0.48343  0.60156  1.0000
  C   C124      1.0  0.04872  0.45757  0.63216  1.0000
  C   C125      1.0  0.023440000000000003  0.48997000000000007  0.68808  1.0000
  C   C126      1.0  0.05322  0.54511  0.71386  1.0000
  C   C127      1.0  0.6441100000000001  0.87316  0.28529  1.0000
  C   C128      1.0  0.6106500000000001  0.9304900000000002  0.31574  1.0000
  C   C129      1.0  0.6362  0.96139  0.37103  1.0000
  C   C130      1.0  0.60576  0.01715  0.3988499999999999  1.0000
  C   C131      1.0  0.5483400000000002  0.04303  0.36824  1.0000
  C   C132      1.0  0.52307  0.01054  0.31242  1.0000
  C   C133      1.0  0.55292  0.9553800000000001  0.2866  1.0000
  C   C134      1.0  0.35606000000000004  0.37275  0.21505  1.0000
  C   C135      1.0  0.38978  0.4300300000000001  0.18485  1.0000
  C   C136      1.0  0.36423000000000005  0.46106  0.12958  1.0000
  C   C137      1.0  0.3946600000000001  0.5168  0.10181000000000001  1.0000
  C   C138      1.0  0.45199000000000006  0.54269  0.1325  1.0000
  C   C139      1.0  0.47729  0.5100500000000001  0.18831  1.0000
  C   C140      1.0  0.4475  0.4547800000000001  0.21399  1.0000
  C   C141      1.0  0.6269900000000002  0.71538  0.14445  1.0000
  C   C142      1.0  0.56989  0.6847700000000001  0.111  1.0000
  C   C143      1.0  0.539  0.6294900000000001  0.13668  1.0000
  C   C144      1.0  0.48343  0.60156  0.10617000000000001  1.0000
  C   C145      1.0  0.45757  0.63216  0.04872  1.0000
  C   C146      1.0  0.48997  0.68808  0.02344  1.0000
  C   C147      1.0  0.54511  0.71386  0.05322  1.0000
  C   C148      1.0  0.12702  0.78443  0.85479  1.0000
  C   C149      1.0  0.07002  0.81548  0.88845  1.0000
  C   C150      1.0  0.039040000000000005  0.87102  0.86332  1.0000
  C   C151      1.0  0.9833800000000001  0.8988000000000002  0.8941600000000001  1.0000
  C   C152      1.0  0.9576300000000001  0.8679700000000001  0.9515800000000001  1.0000
  C   C153      1.0  0.9903300000000003  0.81207  0.97653  1.0000
  C   C154      1.0  0.04545  0.78644  0.9463800000000001  1.0000
  C   C155      1.0  0.37275  0.21505000000000002  0.35606  1.0000
  C   C156      1.0  0.4300300000000001  0.18485  0.38978  1.0000
  C   C157      1.0  0.46106  0.12958000000000003  0.36423  1.0000
  C   C158      1.0  0.5168  0.10181  0.39466  1.0000
  C   C159      1.0  0.54269  0.1325  0.45199  1.0000
  C   C160      1.0  0.51005  0.18831  0.47729  1.0000
  C   C161      1.0  0.45478  0.21399000000000004  0.4475  1.0000
  C   C162      1.0  0.87316  0.28529  0.64411  1.0000
  C   C163      1.0  0.93049  0.31574  0.61065  1.0000
  C   C164      1.0  0.96139  0.37103  0.6362  1.0000
  C   C165      1.0  0.01715  0.39885  0.60576  1.0000
  C   C166      1.0  0.043030000000000006  0.36824  0.54834  1.0000
  C   C167      1.0  0.010540000000000002  0.31242  0.52307  1.0000
  C   C168      1.0  0.9553800000000001  0.2866  0.55292  1.0000
  O   O1        1.0  0.05183  0.44211000000000006  0.90013  1.0000
  O   O2        1.0  0.1329  0.51612  0.9032900000000001  1.0000
  O   O3        1.0  0.44794000000000006  0.55806  0.39973  1.0000
  O   O4        1.0  0.36704000000000003  0.48395  0.4030099999999999  1.0000
  O   O5        1.0  0.9487200000000001  0.9424000000000001  0.60024  1.0000
  O   O6        1.0  0.8673100000000001  0.01608  0.59673  1.0000
  O   O7        1.0  0.55225  0.05834  0.10029  1.0000
  O   O8        1.0  0.6328700000000002  0.98378  0.0969  1.0000
  O   O9        1.0  0.90013  0.05183  0.44211999999999996  1.0000
  O   O10       1.0  0.90329  0.1329  0.51612  1.0000
  O   O11       1.0  0.39973  0.44794  0.55806  1.0000
  O   O12       1.0  0.40301  0.36704  0.48395  1.0000
  O   O13       1.0  0.60024  0.94872  0.9424  1.0000
  O   O14       1.0  0.59673  0.86731  0.01608  1.0000
  O   O15       1.0  0.10029000000000002  0.55225  0.05834  1.0000
  O   O16       1.0  0.0969  0.63287  0.98378  1.0000
  O   O17       1.0  0.44212  0.9001300000000001  0.05183  1.0000
  O   O18       1.0  0.51612  0.90329  0.1329  1.0000
  O   O19       1.0  0.55806  0.39973  0.44794  1.0000
  O   O20       1.0  0.48395  0.40301  0.36704  1.0000
  O   O21       1.0  0.9424  0.60024  0.9487200000000001  1.0000
  O   O22       1.0  0.01608  0.59673  0.86731  1.0000
  O   O23       1.0  0.05834  0.10029  0.55225  1.0000
  O   O24       1.0  0.98378  0.0969  0.63287  1.0000
  O   O25       1.0  0.19178  0.3023600000000001  0.35019  1.0000
  O   O26       1.0  0.26625  0.38295  0.34655  1.0000
  O   O27       1.0  0.30852  0.69768  0.8501499999999999  1.0000
  O   O28       1.0  0.234  0.61716  0.8472400000000001  1.0000
  O   O29       1.0  0.6923200000000002  0.19824000000000003  0.64969  1.0000
  O   O30       1.0  0.76642  0.11721000000000001  0.65297  1.0000
  O   O31       1.0  0.80626  0.8004  0.14946  1.0000
  O   O32       1.0  0.7338  0.88276  0.15324  1.0000
  O   O33       1.0  0.8004  0.14946  0.80626  1.0000
  O   O34       1.0  0.8827600000000001  0.15324  0.7338  1.0000
  O   O35       1.0  0.19824  0.64969  0.69232  1.0000
  O   O36       1.0  0.11721000000000001  0.65297  0.76642  1.0000
  O   O37       1.0  0.69768  0.85015  0.30851  1.0000
  O   O38       1.0  0.6171600000000002  0.8472400000000001  0.234  1.0000
  O   O39       1.0  0.30236  0.35019  0.19177  1.0000
  O   O40       1.0  0.38295  0.34655  0.26625  1.0000
  O   O41       1.0  0.6496900000000001  0.69232  0.19824  1.0000
  O   O42       1.0  0.6529700000000002  0.76642  0.11721  1.0000
  O   O43       1.0  0.14946000000000004  0.80626  0.8004000000000001  1.0000
  O   O44       1.0  0.15324  0.7338000000000001  0.8827599999999999  1.0000
  O   O45       1.0  0.35019  0.19177000000000002  0.30236  1.0000
  O   O46       1.0  0.3465500000000001  0.26625  0.38295  1.0000
  O   O47       1.0  0.85015  0.30852  0.69768  1.0000
  O   O48       1.0  0.8472400000000002  0.234  0.61716  1.0000
