data_image0
_chemical_formula_structural       Ag8H120C168S24
_chemical_formula_sum              "Ag8 H120 C168 S24"
_cell_length_a       18.48399
_cell_length_b       18.42259
_cell_length_c       18.48623
_cell_angle_alpha    89.76248
_cell_angle_beta     120.20218
_cell_angle_gamma    120.08912

_space_group_name_H-M_alt    "P 1"
_space_group_IT_number       1

loop_
  _space_group_symop_operation_xyz
  'x, y, z'

loop_
  _atom_site_type_symbol
  _atom_site_label
  _atom_site_symmetry_multiplicity
  _atom_site_fract_x
  _atom_site_fract_y
  _atom_site_fract_z
  _atom_site_occupancy
  Ag  Ag1       1.0  0.9999500000000001  0.22849000000000005  0.00749  1.0000
  Ag  Ag2       1.0  0.7736899999999999  0.2671899999999999  0.7686699999999997  1.0000
  Ag  Ag3       1.0  0.50839  0.010739999999999918  0.7361299999999997  1.0000
  Ag  Ag4       1.0  0.72363  0.9984200000000001  0.9850599999999998  1.0000
  Ag  Ag5       1.0  0.27950999999999987  0.27254000000000006  0.7707799999999998  1.0000
  Ag  Ag6       1.0  0.000549999999999784  0.2327399999999999  0.5069699999999998  1.0000
  Ag  Ag7       1.0  0.22443999999999995  0.4885300000000001  0.4980199999999999  1.0000
  Ag  Ag8       1.0  0.4889199999999999  0.50194  0.7250299999999997  1.0000
  H   H1        1.0  0.23312000000000002  0.20434000000000005  0.10174999999999997  1.0000
  H   H2        1.0  0.21122  0.05969  0.10386  1.0000
  H   H3        1.0  0.07139999999999984  0.9263900000000002  0.9666199999999998  1.0000
  H   H4        1.0  0.9511700000000001  0.93742  0.8304  1.0000
  H   H5        1.0  0.9679699999999999  0.08122999999999991  0.8309599999999998  1.0000
  H   H6        1.0  0.13059999999999983  0.42599  0.8907599999999998  1.0000
  H   H7        1.0  0.2702999999999999  0.58166  0.9948099999999998  1.0000
  H   H8        1.0  0.26688  0.64134  0.11308999999999997  1.0000
  H   H9        1.0  0.11828000000000008  0.5474800000000002  0.12135999999999997  1.0000
  H   H10       1.0  0.97423  0.39685  0.011779999999999997  1.0000
  H   H11       1.0  0.010470000000000071  0.4337600000000001  0.76179  1.0000
  H   H12       1.0  0.04420999999999998  0.5805600000000001  0.7479699999999998  1.0000
  H   H13       1.0  0.9022400000000003  0.5877000000000002  0.63024  1.0000
  H   H14       1.0  0.72765  0.44791000000000003  0.5273599999999998  1.0000
  H   H15       1.0  0.6947400000000001  0.30185  0.54065  1.0000
  H   H16       1.0  0.7662400000000001  0.9701500000000002  0.3680099999999999  1.0000
  H   H17       1.0  0.7862400000000002  0.8464100000000002  0.39148999999999995  1.0000
  H   H18       1.0  0.9265600000000002  0.8523500000000003  0.39660999999999996  1.0000
  H   H19       1.0  0.04844000000000016  0.9837100000000002  0.3817899999999999  1.0000
  H   H20       1.0  0.027850000000000024  0.10756000000000004  0.35761  1.0000
  H   H21       1.0  0.89374  0.9899500000000001  0.9618099999999998  1.0000
  H   H22       1.0  0.92999  0.8771100000000001  0.9972499999999997  1.0000
  H   H23       1.0  0.027670000000000222  0.8837800000000002  0.15427999999999994  1.0000
  H   H24       1.0  0.0840599999999999  0.0016999999999999641  0.2750999999999999  1.0000
  H   H25       1.0  0.03593999999999998  0.10836000000000001  0.23736999999999994  1.0000
  H   H26       1.0  0.25627  0.45324  0.14557999999999993  1.0000
  H   H27       1.0  0.4135600000000001  0.4658100000000001  0.18975  1.0000
  H   H28       1.0  0.45348  0.3655100000000001  0.26509999999999995  1.0000
  H   H29       1.0  0.33176  0.25041000000000013  0.29365  1.0000
  H   H30       1.0  0.17508999999999997  0.23910000000000006  0.2515199999999999  1.0000
  H   H31       1.0  0.25957  0.8632800000000002  0.47055999999999987  1.0000
  H   H32       1.0  0.2740600000000002  0.8865800000000003  0.34445  1.0000
  H   H33       1.0  0.41336000000000006  0.8932700000000001  0.3464799999999999  1.0000
  H   H34       1.0  0.53686  0.8770000000000002  0.4745799999999999  1.0000
  H   H35       1.0  0.5248799999999999  0.8575600000000001  0.6025799999999998  1.0000
  H   H36       1.0  0.36905999999999994  0.75742  0.8007999999999997  1.0000
  H   H37       1.0  0.22424999999999995  0.7187000000000002  0.8098299999999998  1.0000
  H   H38       1.0  0.22494000000000022  0.8390000000000004  0.87224  1.0000
  H   H39       1.0  0.37389999999999995  0.9969300000000001  0.9311799999999998  1.0000
  H   H40       1.0  0.5212599999999998  0.03411999999999992  0.9289799999999998  1.0000
  H   H41       1.0  0.49086999999999986  0.75126  0.9152899999999998  1.0000
  H   H42       1.0  0.4556  0.7065  0.026719999999999994  1.0000
  H   H43       1.0  0.59688  0.73491  0.17877999999999994  1.0000
  H   H44       1.0  0.77398  0.81167  0.21834999999999993  1.0000
  H   H45       1.0  0.80924  0.8563500000000001  0.10694999999999998  1.0000
  H   H46       1.0  0.7376599999999999  0.5989800000000002  0.7085799999999999  1.0000
  H   H47       1.0  0.72052  0.6046800000000002  0.5664999999999998  1.0000
  H   H48       1.0  0.57754  0.47154  0.42968  1.0000
  H   H49       1.0  0.45177  0.33461000000000013  0.4353599999999999  1.0000
  H   H50       1.0  0.46668999999999994  0.32999000000000006  0.5769899999999999  1.0000
  H   H51       1.0  0.61191  0.07158  0.60264  1.0000
  H   H52       1.0  0.57495  0.06705999999999998  0.4533099999999999  1.0000
  H   H53       1.0  0.47553  0.12386000000000003  0.35917  1.0000
  H   H54       1.0  0.41230000000000006  0.18438000000000004  0.41505  1.0000
  H   H55       1.0  0.45719999999999983  0.19557999999999995  0.5686999999999998  1.0000
  H   H56       1.0  0.24630999999999997  0.8945400000000001  0.7082599999999998  1.0000
  H   H57       1.0  0.08864999999999994  0.78356  0.5618299999999999  1.0000
  H   H58       1.0  0.05399999999999992  0.82069  0.42342  1.0000
  H   H59       1.0  0.1810400000000002  0.9709500000000002  0.43322  1.0000
  H   H60       1.0  0.3388599999999999  0.08190999999999993  0.5795999999999998  1.0000
  H   H61       1.0  0.3963100000000001  0.29488  0.028209999999999992  1.0000
  H   H62       1.0  0.54269  0.43858  0.15145  1.0000
  H   H63       1.0  0.5394900000000001  0.5725800000000002  0.14589  1.0000
  H   H64       1.0  0.39328000000000024  0.5629000000000002  0.014799999999999999  1.0000
  H   H65       1.0  0.2505499999999999  0.42019  0.8871599999999997  1.0000
  H   H66       1.0  0.96619  0.07529000000000001  0.70542  1.0000
  H   H67       1.0  0.9142100000000001  0.9194900000000003  0.6899799999999998  1.0000
  H   H68       1.0  0.9697100000000003  0.8580600000000003  0.62458  1.0000
  H   H69       1.0  0.07112000000000024  0.9510800000000003  0.56897  1.0000
  H   H70       1.0  0.11373999999999987  0.10240999999999996  0.5761499999999998  1.0000
  H   H71       1.0  0.82542  0.06375999999999996  0.5764499999999998  1.0000
  H   H72       1.0  0.6651600000000002  0.9177300000000003  0.46253  1.0000
  H   H73       1.0  0.5424600000000002  0.9119300000000002  0.31323  1.0000
  H   H74       1.0  0.58092  0.052629999999999975  0.2791799999999999  1.0000
  H   H75       1.0  0.7396699999999999  0.19787000000000002  0.3933099999999999  1.0000
  H   H76       1.0  0.89575  0.5299  0.7951399999999997  1.0000
  H   H77       1.0  0.04523999999999991  0.6520000000000001  0.9388899999999998  1.0000
  H   H78       1.0  0.04645000000000002  0.6461  0.07437  1.0000
  H   H79       1.0  0.8982100000000001  0.5176200000000002  0.06488999999999998  1.0000
  H   H80       1.0  0.75009  0.39354000000000006  0.9213999999999998  1.0000
  H   H81       1.0  0.47356  0.5117900000000001  0.9050299999999998  1.0000
  H   H82       1.0  0.6209700000000001  0.62345  0.05416999999999999  1.0000
  H   H83       1.0  0.77191  0.6174500000000003  0.14428  1.0000
  H   H84       1.0  0.77435  0.4988400000000001  0.08319999999999997  1.0000
  H   H85       1.0  0.62952  0.39151000000000014  0.92928  1.0000
  H   H86       1.0  0.1928099999999999  0.04768999999999996  0.8023399999999998  1.0000
  H   H87       1.0  0.22460999999999987  0.03727999999999994  0.9478699999999998  1.0000
  H   H88       1.0  0.40064000000000005  0.13680000000000006  0.08719  1.0000
  H   H89       1.0  0.54415  0.2500100000000001  0.07930999999999998  1.0000
  H   H90       1.0  0.5121999999999999  0.2606200000000001  0.9333699999999998  1.0000
  H   H91       1.0  0.1066600000000001  0.6377500000000003  0.3955899999999999  1.0000
  H   H92       1.0  0.9573600000000002  0.6141400000000002  0.38721  1.0000
  H   H93       1.0  0.9526  0.6068200000000002  0.51968  1.0000
  H   H94       1.0  0.09758000000000011  0.6239400000000003  0.65961  1.0000
  H   H95       1.0  0.2449200000000001  0.6436300000000003  0.66669  1.0000
  H   H96       1.0  0.54228  0.7415300000000002  0.6117299999999998  1.0000
  H   H97       1.0  0.59229  0.7810000000000002  0.50699  1.0000
  H   H98       1.0  0.5339  0.661  0.3869399999999999  1.0000
  H   H99       1.0  0.43409000000000003  0.50278  0.37717  1.0000
  H   H100      1.0  0.39435999999999993  0.46517000000000003  0.4872399999999999  1.0000
  H   H101      1.0  0.6635500000000002  0.7485700000000002  0.73951  1.0000
  H   H102      1.0  0.8190900000000001  0.7929700000000002  0.7481099999999999  1.0000
  H   H103      1.0  0.9423800000000001  0.7635400000000002  0.8599999999999998  1.0000
  H   H104      1.0  0.9064900000000001  0.6878200000000002  0.9615699999999998  1.0000
  H   H105      1.0  0.7506399999999999  0.6430299999999999  0.9525599999999999  1.0000
  H   H106      1.0  0.60899  0.90072  0.13809  1.0000
  H   H107      1.0  0.46131000000000016  0.8956200000000002  0.11438  1.0000
  H   H108      1.0  0.45846  0.029600000000000015  0.10464  1.0000
  H   H109      1.0  0.60251  0.16673000000000004  0.11774999999999997  1.0000
  H   H110      1.0  0.74801  0.17031000000000002  0.13699999999999996  1.0000
  H   H111      1.0  0.02925000000000006  0.4257200000000001  0.54138  1.0000
  H   H112      1.0  0.88676  0.4345100000000001  0.50738  1.0000
  H   H113      1.0  0.7368000000000001  0.3783100000000001  0.35098  1.0000
  H   H114      1.0  0.73092  0.31343  0.22837999999999994  1.0000
  H   H115      1.0  0.8739800000000001  0.30292  0.26315  1.0000
  H   H116      1.0  0.31175000000000014  0.6032000000000002  0.35003  1.0000
  H   H117      1.0  0.2785700000000001  0.7163700000000002  0.30556  1.0000
  H   H118      1.0  0.10409000000000009  0.6810300000000002  0.23487999999999995  1.0000
  H   H119      1.0  0.96223  0.5306000000000002  0.20954999999999993  1.0000
  H   H120      1.0  0.9958800000000001  0.41802000000000006  0.25540999999999997  1.0000
  C   C1        1.0  0.06349999999999996  0.25521000000000005  0.8584599999999998  1.0000
  C   C2        1.0  0.9808199999999998  0.2632499999999999  0.8143099999999998  1.0000
  C   C3        1.0  0.93044  0.25728000000000006  0.7243999999999998  1.0000
  C   C4        1.0  0.10153999999999992  0.15052999999999997  0.9659399999999998  1.0000
  C   C5        1.0  0.17118000000000003  0.14538000000000006  0.04285  1.0000
  C   C6        1.0  0.15938  0.06451  0.04329  1.0000
  C   C7        1.0  0.08091  0.9896200000000002  0.9663799999999998  1.0000
  C   C8        1.0  0.012869999999999833  0.99581  0.8896999999999998  1.0000
  C   C9        1.0  0.021800000000000003  0.07570000000000002  0.88931  1.0000
  C   C10       1.0  0.04451000000000008  0.4025200000000001  0.94529  1.0000
  C   C11       1.0  0.12719000000000008  0.45412000000000013  0.93956  1.0000
  C   C12       1.0  0.20614000000000013  0.5409100000000002  0.9993499999999998  1.0000
  C   C13       1.0  0.20395000000000005  0.5747200000000002  0.06532  1.0000
  C   C14       1.0  0.12059000000000014  0.5225300000000003  0.06992  1.0000
  C   C15       1.0  0.03964000000000003  0.4369500000000001  0.00874  1.0000
  C   C16       1.0  0.8514  0.35984  0.65186  1.0000
  C   C17       1.0  0.94984  0.43775000000000003  0.7096599999999997  1.0000
  C   C18       1.0  0.9679899999999999  0.5196700000000002  0.7014999999999998  1.0000
  C   C19       1.0  0.8884  0.52383  0.6357999999999998  1.0000
  C   C20       1.0  0.7902599999999999  0.4452400000000001  0.5777299999999997  1.0000
  C   C21       1.0  0.7713599999999999  0.3630799999999999  0.5851899999999998  1.0000
  C   C22       1.0  0.8951900000000002  0.1455  0.2047  1.0000
  C   C23       1.0  0.9424  0.18661000000000003  0.15899  1.0000
  C   C24       1.0  0.8956999999999999  0.04544999999999996  0.3606299999999999  1.0000
  C   C25       1.0  0.82715  0.97214  0.37014999999999987  1.0000
  C   C26       1.0  0.8386600000000002  0.9029000000000003  0.3831599999999999  1.0000
  C   C27       1.0  0.91719  0.9060200000000003  0.3859899999999999  1.0000
  C   C28       1.0  0.9855400000000001  0.9798400000000003  0.37708999999999987  1.0000
  C   C29       1.0  0.9753600000000001  0.049690000000000026  0.3646  1.0000
  C   C30       1.0  0.963  0.055490000000000005  0.09798999999999997  1.0000
  C   C31       1.0  0.93413  0.9916200000000002  0.030249999999999992  1.0000
  C   C32       1.0  0.9559899999999999  0.9289000000000002  0.05049999999999999  1.0000
  C   C33       1.0  0.0101500000000001  0.9323600000000002  0.13864999999999997  1.0000
  C   C34       1.0  0.041479999999999996  0.9983800000000002  0.20637  1.0000
  C   C35       1.0  0.016399999999999984  0.059219999999999995  0.18605999999999995  1.0000
  C   C36       1.0  0.036959999999999965  0.27855  0.21006999999999995  1.0000
  C   C37       1.0  0.20636  0.34579000000000004  0.19672999999999993  1.0000
  C   C38       1.0  0.2741  0.41017000000000003  0.17979999999999993  1.0000
  C   C39       1.0  0.36289  0.4172500000000001  0.20504  1.0000
  C   C40       1.0  0.38496  0.3606300000000001  0.24696999999999994  1.0000
  C   C41       1.0  0.31702000000000014  0.2966600000000001  0.26353999999999994  1.0000
  C   C42       1.0  0.22819000000000003  0.2893700000000001  0.23933999999999994  1.0000
  C   C43       1.0  0.43686000000000014  0.7929000000000003  0.6873999999999999  1.0000
  C   C44       1.0  0.5263  0.8404900000000002  0.7811999999999998  1.0000
  C   C45       1.0  0.56927  0.7914100000000002  0.8231099999999998  1.0000
  C   C46       1.0  0.3912400000000001  0.8585700000000003  0.5434  1.0000
  C   C47       1.0  0.3199300000000001  0.8662400000000002  0.47077999999999987  1.0000
  C   C48       1.0  0.32821999999999996  0.8789499999999999  0.4000499999999999  1.0000
  C   C49       1.0  0.40563  0.8820200000000001  0.4007499999999999  1.0000
  C   C50       1.0  0.4756900000000001  0.8733500000000002  0.4732099999999999  1.0000
  C   C51       1.0  0.4697800000000002  0.8627200000000005  0.54515  1.0000
  C   C52       1.0  0.45362  0.89767  0.86479  1.0000
  C   C53       1.0  0.3703900000000001  0.8089400000000002  0.83121  1.0000
  C   C54       1.0  0.28891000000000006  0.7878600000000001  0.8354199999999998  1.0000
  C   C55       1.0  0.28940999999999995  0.8552300000000002  0.8708399999999997  1.0000
  C   C56       1.0  0.3731100000000001  0.9439400000000002  0.90421  1.0000
  C   C57       1.0  0.45584  0.9650600000000001  0.9022499999999998  1.0000
  C   C58       1.0  0.6518800000000001  0.8065100000000002  0.004239999999999998  1.0000
  C   C59       1.0  0.55212  0.7634  0.98133  1.0000
  C   C60       1.0  0.5328500000000003  0.7378900000000003  0.04432999999999999  1.0000
  C   C61       1.0  0.61206  0.7543900000000002  0.1297  1.0000
  C   C62       1.0  0.71141  0.7969500000000003  0.15179  1.0000
  C   C63       1.0  0.73174  0.82272  0.08948  1.0000
  C   C64       1.0  0.6036099999999999  0.3117799999999999  0.7490699999999998  1.0000
  C   C65       1.0  0.55756  0.21723000000000006  0.74546  1.0000
  C   C66       1.0  0.60353  0.46373  0.6506399999999998  1.0000
  C   C67       1.0  0.67555  0.54137  0.64849  1.0000
  C   C68       1.0  0.6656400000000002  0.5440100000000002  0.56865  1.0000
  C   C69       1.0  0.58598  0.4693900000000001  0.4921199999999999  1.0000
  C   C70       1.0  0.51491  0.39208  0.4952699999999999  1.0000
  C   C71       1.0  0.52249  0.3890700000000001  0.5740199999999998  1.0000
  C   C72       1.0  0.53645  0.13386999999999996  0.5939999999999998  1.0000
  C   C73       1.0  0.56865  0.09674999999999996  0.5616599999999998  1.0000
  C   C74       1.0  0.5472399999999998  0.09364  0.47737999999999997  1.0000
  C   C75       1.0  0.49135999999999996  0.12564999999999998  0.4245699999999999  1.0000
  C   C76       1.0  0.45667  0.16030000000000003  0.4563599999999999  1.0000
  C   C77       1.0  0.48020999999999997  0.16559000000000001  0.5417899999999999  1.0000
  C   C78       1.0  0.46955999999999987  0.17630000000000004  0.7492499999999999  1.0000
  C   C79       1.0  0.30199  0.99539  0.65267  1.0000
  C   C80       1.0  0.2310499999999999  0.9114000000000001  0.6479899999999997  1.0000
  C   C81       1.0  0.14209999999999995  0.84924  0.56535  1.0000
  C   C82       1.0  0.1228000000000001  0.8700600000000002  0.4876299999999999  1.0000
  C   C83       1.0  0.19359  0.9543100000000002  0.4931599999999999  1.0000
  C   C84       1.0  0.28297  0.01712  0.57532  1.0000
  C   C85       1.0  0.10365999999999986  0.24569999999999997  0.8082799999999998  1.0000
  C   C86       1.0  0.050980000000000004  0.23678  0.71768  1.0000
  C   C87       1.0  0.9657200000000001  0.24136  0.67293  1.0000
  C   C88       1.0  0.31512000000000007  0.34966000000000014  0.95087  1.0000
  C   C89       1.0  0.39661  0.35406  0.025509999999999994  1.0000
  C   C90       1.0  0.47783  0.43449000000000004  0.09490999999999997  1.0000
  C   C91       1.0  0.47622000000000003  0.50971  0.09182  1.0000
  C   C92       1.0  0.39391999999999994  0.50428  0.017739999999999992  1.0000
  C   C93       1.0  0.3137699999999999  0.42486  0.94639  1.0000
  C   C94       1.0  0.04285000000000002  0.09774000000000005  0.6418  1.0000
  C   C95       1.0  0.9860599999999999  0.046579999999999996  0.67345  1.0000
  C   C96       1.0  0.9585100000000003  0.9596000000000002  0.6655599999999999  1.0000
  C   C97       1.0  0.98925  0.9249600000000001  0.6285399999999998  1.0000
  C   C98       1.0  0.045590000000000054  0.9767100000000002  0.59683  1.0000
  C   C99       1.0  0.07086999999999984  0.0626799999999999  0.6018099999999997  1.0000
  C   C100      1.0  0.79106  0.13876000000000002  0.49159999999999987  1.0000
  C   C101      1.0  0.7701699999999999  0.06046999999999991  0.5117799999999998  1.0000
  C   C102      1.0  0.6803000000000002  0.9789500000000002  0.4475  1.0000
  C   C103      1.0  0.61156  0.9755400000000001  0.3636399999999999  1.0000
  C   C104      1.0  0.63289  0.05454999999999996  0.3444899999999999  1.0000
  C   C105      1.0  0.72221  0.13627  0.4082899999999999  1.0000
  C   C106      1.0  0.5594499999999999  0.35428  0.7497699999999998  1.0000
  C   C107      1.0  0.47264000000000006  0.3134700000000001  0.7561299999999997  1.0000
  C   C108      1.0  0.8143700000000001  0.45465000000000005  0.8503799999999998  1.0000
  C   C109      1.0  0.89686  0.5276400000000002  0.8544899999999997  1.0000
  C   C110      1.0  0.9802700000000001  0.59627  0.9352499999999998  1.0000
  C   C111      1.0  0.9808500000000003  0.5934600000000002  0.01108  1.0000
  C   C112      1.0  0.8975899999999999  0.52075  0.005899999999999998  1.0000
  C   C113      1.0  0.8147000000000001  0.45093  0.9261199999999998  1.0000
  C   C114      1.0  0.54354  0.4452  0.9087599999999998  1.0000
  C   C115      1.0  0.5398299999999999  0.50938  0.9436099999999997  1.0000
  C   C116      1.0  0.6225700000000001  0.5718400000000002  0.02815  1.0000
  C   C117      1.0  0.7073500000000001  0.5684600000000002  0.07863999999999997  1.0000
  C   C118      1.0  0.7089700000000001  0.50224  0.04410999999999999  1.0000
  C   C119      1.0  0.6276599999999999  0.44115  0.9585599999999997  1.0000
  C   C120      1.0  0.43141  0.22143000000000004  0.75805  1.0000
  C   C121      1.0  0.35083000000000003  0.15478  0.85925  1.0000
  C   C122      1.0  0.26986  0.09100999999999995  0.8631999999999997  1.0000
  C   C123      1.0  0.2883300000000001  0.08490000000000006  0.94518  1.0000
  C   C124      1.0  0.3871  0.14129000000000003  0.023389999999999994  1.0000
  C   C125      1.0  0.4675  0.20427  0.01872  1.0000
  C   C126      1.0  0.45005999999999985  0.2110999999999999  0.9369499999999997  1.0000
  C   C127      1.0  0.3935399999999999  0.70608  0.6438399999999997  1.0000
  C   C128      1.0  0.43990999999999986  0.6584599999999999  0.6855699999999998  1.0000
  C   C129      1.0  0.5312  0.7076200000000002  0.7774099999999998  1.0000
  C   C130      1.0  0.18425999999999984  0.6419499999999999  0.5319599999999998  1.0000
  C   C131      1.0  0.10406  0.63453  0.45308  1.0000
  C   C132      1.0  0.020650000000000057  0.6216900000000002  0.4488799999999999  1.0000
  C   C133      1.0  0.018219999999999882  0.61836  0.5231699999999999  1.0000
  C   C134      1.0  0.09955999999999995  0.6273500000000002  0.6019199999999998  1.0000
  C   C135      1.0  0.18204000000000012  0.6380900000000003  0.60642  1.0000
  C   C136      1.0  0.46598000000000017  0.6014100000000002  0.55573  1.0000
  C   C137      1.0  0.5214999999999997  0.6902499999999998  0.5615899999999998  1.0000
  C   C138      1.0  0.5476800000000002  0.7116900000000005  0.50179  1.0000
  C   C139      1.0  0.5156700000000001  0.6444700000000002  0.43478  1.0000
  C   C140      1.0  0.45992999999999995  0.5556000000000002  0.4293599999999999  1.0000
  C   C141      1.0  0.43651000000000006  0.5342300000000002  0.49074  1.0000
  C   C142      1.0  0.6977000000000001  0.6932400000000002  0.84526  1.0000
  C   C143      1.0  0.71761  0.73645  0.7884999999999998  1.0000
  C   C144      1.0  0.80575  0.7617  0.79424  1.0000
  C   C145      1.0  0.8745599999999998  0.7448999999999999  0.8566299999999998  1.0000
  C   C146      1.0  0.8545699999999999  0.7025599999999999  0.9137799999999998  1.0000
  C   C147      1.0  0.76675  0.6769100000000002  0.9087399999999998  1.0000
  C   C148      1.0  0.9363100000000001  0.18744  0.29137999999999986  1.0000
  C   C149      1.0  0.027079999999999896  0.2822299999999999  0.3396699999999999  1.0000
  C   C150      1.0  0.68689  0.036060000000000016  0.13907  1.0000
  C   C151      1.0  0.6068200000000001  0.9585600000000002  0.13331999999999994  1.0000
  C   C152      1.0  0.5243900000000002  0.9563200000000002  0.12046999999999997  1.0000
  C   C153      1.0  0.52293  0.03129  0.11550999999999997  1.0000
  C   C154      1.0  0.60403  0.10868000000000001  0.12258999999999998  1.0000
  C   C155      1.0  0.68558  0.11119  0.13320999999999994  1.0000
  C   C156      1.0  0.96014  0.36484  0.40373  1.0000
  C   C157      1.0  0.9644800000000001  0.4020800000000001  0.47266  1.0000
  C   C158      1.0  0.88403  0.40686  0.4535  1.0000
  C   C159      1.0  0.7996700000000001  0.3749600000000001  0.3655299999999999  1.0000
  C   C160      1.0  0.7965500000000001  0.3387600000000001  0.29684  1.0000
  C   C161      1.0  0.87669  0.33318000000000003  0.31569999999999987  1.0000
  C   C162      1.0  0.07237999999999994  0.3231  0.29322999999999994  1.0000
  C   C163      1.0  0.15561999999999998  0.50384  0.30561  1.0000
  C   C164      1.0  0.23529000000000014  0.5875800000000002  0.31873999999999997  1.0000
  C   C165      1.0  0.21605000000000005  0.6507500000000003  0.29300999999999994  1.0000
  C   C166      1.0  0.11797000000000005  0.6308500000000001  0.2532999999999999  1.0000
  C   C167      1.0  0.038590000000000006  0.54658  0.23902  1.0000
  C   C168      1.0  0.05685  0.48286  0.26487  1.0000
  S   S1        1.0  0.12439999999999983  0.2581599999999999  0.9682899999999998  1.0000
  S   S2        1.0  0.9426399999999998  0.2882100000000001  0.8771499999999998  1.0000
  S   S3        1.0  0.81864  0.25198  0.66291  1.0000
  S   S4        1.0  0.7859  0.031989999999999984  0.14961999999999995  1.0000
  S   S5        1.0  0.9123200000000001  0.12371000000000001  0.06720999999999998  1.0000
  S   S6        1.0  0.09402000000000005  0.34189000000000014  0.15918999999999994  1.0000
  S   S7        1.0  0.37803000000000014  0.8471200000000003  0.63262  1.0000
  S   S8        1.0  0.5520300000000002  0.9298400000000002  0.8435  1.0000
  S   S9        1.0  0.6863100000000002  0.8450900000000001  0.9307099999999998  1.0000
  S   S10       1.0  0.7118999999999999  0.36860000000000004  0.7451799999999997  1.0000
  S   S11       1.0  0.5880399999999999  0.15594999999999995  0.7130699999999998  1.0000
  S   S12       1.0  0.41667999999999994  0.06850999999999992  0.7597099999999999  1.0000
  S   S13       1.0  0.21057999999999993  0.24255  0.86578  1.0000
  S   S14       1.0  0.08929999999999988  0.21222999999999997  0.6546599999999998  1.0000
  S   S15       1.0  0.90926  0.24662999999999996  0.5667199999999998  1.0000
  S   S16       1.0  0.6181299999999997  0.4677  0.7536699999999997  1.0000
  S   S17       1.0  0.4449  0.3770400000000001  0.7896799999999998  1.0000
  S   S18       1.0  0.3166099999999999  0.15801999999999997  0.75082  1.0000
  S   S19       1.0  0.2847800000000001  0.6522400000000003  0.53067  1.0000
  S   S20       1.0  0.41267  0.5689600000000002  0.6219699999999998  1.0000
  S   S21       1.0  0.58539  0.6540300000000002  0.84082  1.0000
  S   S22       1.0  0.8755599999999998  0.13098000000000004  0.3428099999999999  1.0000
  S   S23       1.0  0.057090000000000064  0.3429600000000001  0.43247  1.0000
  S   S24       1.0  0.19003000000000003  0.4311200000000001  0.34821999999999986  1.0000
