data_image0
_chemical_formula_structural       Cd4H84C120N18O6
_chemical_formula_sum              "Cd4 H84 C120 N18 O6"
_cell_length_a       12.151
_cell_length_b       18.39072
_cell_length_c       18.3894
_cell_angle_alpha    115.37114999999999
_cell_angle_beta     102.72821
_cell_angle_gamma    102.69428

_symmetry_space_group_name_H-M    'P 1'
_symmetry_Int_Tables_number       1

loop_
  _symmetry_equiv_pos_as_xyz
  'x,y,z'

loop_
  _atom_site_type_symbol
  _atom_site_label
  _atom_site_symmetry_multiplicity
  _atom_site_fract_x
  _atom_site_fract_y
  _atom_site_fract_z
  _atom_site_occupancy
  Cd  Cd1       1.0  0.0  0.5  0.0  1.0000
  Cd  Cd2       1.0  0.0  0.0  0.0  1.0000
  Cd  Cd3       1.0  0.5  0.5  0.5  1.0000
  Cd  Cd4       1.0  0.0  0.0  0.5  1.0000
  H   H1        1.0  0.6188400000000001  0.48771000000000014  0.7606100000000002  1.0000
  H   H2        1.0  0.24791  0.12292999999999994  0.50468  1.0000
  H   H3        1.0  0.71541  0.91494  0.98494  1.0000
  H   H4        1.0  0.07029000000000005  0.39337000000000005  0.06551000000000003  1.0000
  H   H5        1.0  0.7399699999999999  0.6126  0.20654  1.0000
  H   H6        1.0  0.35989  0.9043  0.12729  1.0000
  H   H7        1.0  0.6243999999999998  0.21991  0.35363  1.0000
  H   H8        1.0  0.23273000000000002  0.8727300000000001  0.77715  1.0000
  H   H9        1.0  0.16694  0.29157  0.37799  1.0000
  H   H10       1.0  0.08281  0.08229  0.33006  1.0000
  H   H11       1.0  0.47054  0.65126  0.87876  1.0000
  H   H12       1.0  0.9991800000000001  0.75243  0.08222  1.0000
  H   H13       1.0  0.10192999999999998  0.025070000000000002  0.18682  1.0000
  H   H14       1.0  0.87533  0.08661000000000013  0.7082700000000002  1.0000
  H   H15       1.0  0.24674999999999994  0.32993  0.24732  1.0000
  H   H16       1.0  0.7890199999999999  0.6218400000000001  0.91361  1.0000
  H   H17       1.0  0.25714  0.23594000000000004  0.40139  1.0000
  H   H18       1.0  0.9148999999999999  0.81334  0.8384  1.0000
  H   H19       1.0  0.59198  0.1216  0.77271  1.0000
  H   H20       1.0  0.40803  0.8784  0.22729  1.0000
  H   H21       1.0  0.83307  0.70844  0.62202  1.0000
  H   H22       1.0  0.0008200000000000604  0.24757000000000012  0.91778  1.0000
  H   H23       1.0  0.50142  0.33491  0.70566  1.0000
  H   H24       1.0  0.18034  0.77256  0.65086  1.0000
  H   H25       1.0  0.25688  0.50454  0.3815400000000001  1.0000
  H   H26       1.0  0.8722799999999999  0.40618  0.61273  1.0000
  H   H27       1.0  0.80839  0.95263  0.32080000000000003  1.0000
  H   H28       1.0  0.8581  0.23977000000000004  0.72734  1.0000
  H   H29       1.0  0.53384  0.79377  0.40619  1.0000
  H   H30       1.0  0.9233  0.83828  0.02489  1.0000
  H   H31       1.0  0.3756  0.7801  0.64637  1.0000
  H   H32       1.0  0.52947  0.34874  0.12125000000000002  1.0000
  H   H33       1.0  0.85561  0.59819  0.83444  1.0000
  H   H34       1.0  0.021119999999999993  0.16587  0.76404  1.0000
  H   H35       1.0  0.6771100000000001  0.67233  0.6067900000000003  1.0000
  H   H36       1.0  0.85564  0.36789  0.0472  1.0000
  H   H37       1.0  0.51242  0.32063  0.36791  1.0000
  H   H38       1.0  0.9297199999999999  0.60663  0.93449  1.0000
  H   H39       1.0  0.12467999999999999  0.9133999999999999  0.29173  1.0000
  H   H40       1.0  0.1419  0.76024  0.27266  1.0000
  H   H41       1.0  0.54493  0.7775000000000001  0.90483  1.0000
  H   H42       1.0  0.73052  0.015519999999999945  0.92988  1.0000
  H   H43       1.0  0.83344  0.62947  0.33512  1.0000
  H   H44       1.0  0.49859  0.66509  0.29435  1.0000
  H   H45       1.0  0.0851  0.18666  0.16161  1.0000
  H   H46       1.0  0.004829999999999998  0.93424  0.32785  1.0000
  H   H47       1.0  0.21099  0.37816  0.08639  1.0000
  H   H48       1.0  0.89807  0.97493  0.81319  1.0000
  H   H49       1.0  0.86926  0.72756  0.4881  1.0000
  H   H50       1.0  0.26004  0.3874  0.79346  1.0000
  H   H51       1.0  0.14439999999999997  0.40181  0.16556000000000004  1.0000
  H   H52       1.0  0.19915000000000005  0.9297900000000001  0.9145800000000002  1.0000
  H   H53       1.0  0.7520999999999999  0.87707  0.49533  1.0000
  H   H54       1.0  0.27074  0.64632  0.86653  1.0000
  H   H55       1.0  0.9172  0.91772  0.66995  1.0000
  H   H56       1.0  0.7428699999999999  0.7640699999999999  0.59862  1.0000
  H   H57       1.0  0.64012  0.09569999999999997  0.87272  1.0000
  H   H58       1.0  0.12515  0.38175  0.87689  1.0000
  H   H59       1.0  0.8748599999999999  0.61825  0.12311  1.0000
  H   H60       1.0  0.07671000000000003  0.16172000000000009  0.97512  1.0000
  H   H61       1.0  0.80086  0.07021  0.08543  1.0000
  H   H62       1.0  0.2846  0.08506  0.01507  1.0000
  H   H63       1.0  0.48758  0.67938  0.63209  1.0000
  H   H64       1.0  0.59578  0.86634  0.22021  1.0000
  H   H65       1.0  0.74312  0.49546  0.61847  1.0000
  H   H66       1.0  0.38117  0.51229  0.23939  1.0000
  H   H67       1.0  0.97888  0.83413  0.23597  1.0000
  H   H68       1.0  0.76728  0.12727  0.22285  1.0000
  H   H69       1.0  0.4042299999999999  0.13366000000000003  0.7798000000000002  1.0000
  H   H70       1.0  0.26949  0.98449  0.07012  1.0000
  H   H71       1.0  0.79594  0.29466000000000003  0.6295900000000001  1.0000
  H   H72       1.0  0.46616  0.20622999999999997  0.59381  1.0000
  H   H73       1.0  0.16656999999999994  0.37054  0.66488  1.0000
  H   H74       1.0  0.20407  0.70534  0.37041  1.0000
  H   H75       1.0  0.99517  0.06576  0.67215  1.0000
  H   H76       1.0  0.45506999999999986  0.2225  0.09517  1.0000
  H   H77       1.0  0.7292600000000004  0.35368  0.13347  1.0000
  H   H78       1.0  0.81967  0.22744  0.34915  1.0000
  H   H79       1.0  0.19162000000000004  0.04738000000000002  0.6792  1.0000
  H   H80       1.0  0.14435999999999996  0.63211  0.9528  1.0000
  H   H81       1.0  0.13075  0.27244  0.51191  1.0000
  H   H82       1.0  0.12772999999999995  0.59382  0.38727  1.0000
  H   H83       1.0  0.75325  0.67007  0.75268  1.0000
  H   H84       1.0  0.32289  0.32768  0.39321  1.0000
  C   C1        1.0  0.3553000000000001  0.68487  0.21902000000000005  1.0000
  C   C2        1.0  0.74232  0.69943  0.5841700000000001  1.0000
  C   C3        1.0  0.82744  0.31474  0.8777  1.0000
  C   C4        1.0  0.09254000000000001  0.8527100000000001  0.6248  1.0000
  C   C5        1.0  0.72018  0.8595100000000001  0.9321800000000002  1.0000
  C   C6        1.0  0.6705  0.53425  0.31519  1.0000
  C   C7        1.0  0.37470999999999993  0.21877  0.11232  1.0000
  C   C8        1.0  0.12472999999999992  0.78255  0.33279  1.0000
  C   C9        1.0  0.4061  0.48468  0.64137  1.0000
  C   C10       1.0  0.17412000000000008  0.7558  0.5283400000000003  1.0000
  C   C11       1.0  0.15599999999999997  0.8935599999999999  0.78096  1.0000
  C   C12       1.0  0.48747999999999997  0.43702  0.31462  1.0000
  C   C13       1.0  0.9803799999999999  0.1495500000000001  0.9524000000000002  1.0000
  C   C14       1.0  0.01795000000000005  0.08043000000000004  0.2776800000000001  1.0000
  C   C15       1.0  0.6316  0.7080400000000002  0.8199400000000002  1.0000
  C   C16       1.0  0.8418199999999997  0.58389  0.8847  1.0000
  C   C17       1.0  0.6454599999999997  0.47144  0.22726  1.0000
  C   C18       1.0  0.86366  0.21913000000000005  0.53436  1.0000
  C   C19       1.0  0.9570799999999999  0.11555  0.69937  1.0000
  C   C20       1.0  0.27983  0.14049  0.06782  1.0000
  C   C21       1.0  0.77085  0.61252  0.36424  1.0000
  C   C22       1.0  0.25958  0.27757  0.19695  1.0000
  C   C23       1.0  0.84401  0.10644  0.21904  1.0000
  C   C24       1.0  0.23445000000000002  0.44263  0.82571  1.0000
  C   C25       1.0  0.27733  0.51796  0.82153  1.0000
  C   C26       1.0  0.9718200000000001  0.9522799999999999  0.8027200000000002  1.0000
  C   C27       1.0  0.7604  0.22784000000000001  0.85269  1.0000
  C   C28       1.0  0.79158  0.38325  0.55752  1.0000
  C   C29       1.0  0.98206  0.9195699999999999  0.72232  1.0000
  C   C30       1.0  0.28472000000000003  0.35698  0.51036  1.0000
  C   C31       1.0  0.17140000000000005  0.57923  0.91598  1.0000
  C   C32       1.0  0.7648099999999998  0.35862  0.84341  1.0000
  C   C33       1.0  0.2407  0.69637  0.51788  1.0000
  C   C34       1.0  0.15330999999999995  0.79356  0.60493  1.0000
  C   C35       1.0  0.8118999999999998  0.18036999999999995  0.88831  1.0000
  C   C36       1.0  0.05061000000000004  0.87773  0.56296  1.0000
  C   C37       1.0  0.7593100000000002  0.30363000000000007  0.4821300000000001  1.0000
  C   C38       1.0  0.5326  0.62489  0.77246  1.0000
  C   C39       1.0  0.5921899999999999  0.33663  0.42077  1.0000
  C   C40       1.0  0.8609099999999998  0.07283  0.14083  1.0000
  C   C41       1.0  0.07662999999999995  0.88835  0.70796  1.0000
  C   C42       1.0  0.40781  0.66337  0.57924  1.0000
  C   C43       1.0  0.35964999999999997  0.81151  0.20639  1.0000
  C   C44       1.0  0.76555  0.55737  0.17429  1.0000
  C   C45       1.0  0.7744899999999998  0.48939  0.84654  1.0000
  C   C46       1.0  0.13635  0.78087  0.46564  1.0000
  C   C47       1.0  0.3295099999999999  0.46575999999999995  0.68481  1.0000
  C   C48       1.0  0.35454  0.52856  0.77275  1.0000
  C   C49       1.0  0.7569199999999999  0.41290999999999994  0.13132  1.0000
  C   C50       1.0  0.042929999999999996  0.88445  0.30063  1.0000
  C   C51       1.0  0.40843999999999997  0.17413999999999993  0.61683  1.0000
  C   C52       1.0  0.46740999999999994  0.37510999999999994  0.22754  1.0000
  C   C53       1.0  0.6252999999999999  0.78124  0.88768  1.0000
  C   C54       1.0  0.028189999999999996  0.04772  0.19729  1.0000
  C   C55       1.0  0.26235  0.8873  0.10645000000000003  1.0000
  C   C56       1.0  0.23960999999999996  0.77216  0.14731  1.0000
  C   C57       1.0  0.82588  0.2442  0.47167  1.0000
  C   C58       1.0  0.20804  0.33266  0.54992  1.0000
  C   C59       1.0  0.58183  0.22732000000000005  0.7559  1.0000
  C   C60       1.0  0.5939099999999998  0.51533  0.35863  1.0000
  C   C61       1.0  0.4519  0.6052  0.81176  1.0000
  C   C62       1.0  0.83886  0.56047  0.12642  1.0000
  C   C63       1.0  0.40676  0.63598  0.24828  1.0000
  C   C64       1.0  0.5442  0.8216  0.30361  1.0000
  C   C65       1.0  0.16115  0.43954  0.87358  1.0000
  C   C66       1.0  0.344  0.71858  0.58709  1.0000
  C   C67       1.0  0.27864000000000005  0.5657500000000001  0.4393900000000001  1.0000
  C   C68       1.0  0.64471  0.31513000000000013  0.7809800000000002  1.0000
  C   C69       1.0  0.8286000000000001  0.42077000000000003  0.08403000000000002  1.0000
  C   C70       1.0  0.79197  0.66734  0.45008  1.0000
  C   C71       1.0  0.062380000000000005  0.80286  0.08042  1.0000
  C   C72       1.0  0.71279  0.87366  0.43416000000000005  1.0000
  C   C73       1.0  0.34192  0.55024  0.21722  1.0000
  C   C74       1.0  0.71529  0.64302  0.48964  1.0000
  C   C75       1.0  0.25536  0.0842  0.66321  1.0000
  C   C76       1.0  0.15819  0.41611  0.11531  1.0000
  C   C77       1.0  0.18811  0.81963  0.11170000000000002  1.0000
  C   C78       1.0  0.65809  0.44976  0.78279  1.0000
  C   C79       1.0  0.9376300000000001  0.1971500000000001  0.91958  1.0000
  C   C80       1.0  0.87527  0.21745000000000006  0.6672200000000003  1.0000
  C   C81       1.0  0.36841  0.29196  0.18006000000000003  1.0000
  C   C82       1.0  0.73765  0.1127  0.89355  1.0000
  C   C83       1.0  0.45581  0.1784  0.69639  1.0000
  C   C84       1.0  0.51253  0.56298  0.68538  1.0000
  C   C85       1.0  0.83082  0.80289  0.85062  1.0000
  C   C86       1.0  0.24309  0.58709  0.86868  1.0000
  C   C87       1.0  0.72267  0.48204  0.17848  1.0000
  C   C88       1.0  0.59157  0.82587  0.38317  1.0000
  C   C89       1.0  0.23519  0.64138  0.15660000000000004  1.0000
  C   C90       1.0  0.54811  0.3948  0.18824  1.0000
  C   C91       1.0  0.22916  0.38748  0.63576  1.0000
  C   C92       1.0  0.22551000000000002  0.51061  0.15346  1.0000
  C   C93       1.0  0.6560099999999999  0.28142  0.41292  1.0000
  C   C94       1.0  0.59324  0.36402  0.75172  1.0000
  C   C95       1.0  0.41818  0.77269  0.24411  1.0000
  C   C96       1.0  0.78803  0.06821000000000005  0.92727  1.0000
  C   C97       1.0  0.16918  0.19711  0.14938  1.0000
  C   C98       1.0  0.25768  0.30057  0.41583  1.0000
  C   C99       1.0  0.94939  0.12227  0.43704  1.0000
  C   C100      1.0  0.17256  0.68526  0.12230000000000003  1.0000
  C   C101      1.0  0.64036  0.18849000000000005  0.79362  1.0000
  C   C102      1.0  0.8415299999999999  0.24849  0.61258  1.0000
  C   C103      1.0  0.019630000000000005  0.85046  0.04761  1.0000
  C   C104      1.0  0.13909999999999995  0.9271799999999999  0.85917  1.0000
  C   C105      1.0  0.20843  0.61675  0.44249  1.0000
  C   C106      1.0  0.8467  0.20644000000000007  0.3950700000000001  1.0000
  C   C107      1.0  0.15847000000000003  0.75151  0.3874300000000001  1.0000
  C   C108      1.0  0.07220999999999995  0.8464  0.35699  1.0000
  C   C109      1.0  0.9233799999999999  0.11164999999999999  0.29204  1.0000
  C   C110      1.0  0.74043  0.72243  0.80305  1.0000
  C   C111      1.0  0.07879000000000001  0.84337  0.48467  1.0000
  C   C112      1.0  0.9212200000000003  0.15663  0.51533  1.0000
  C   C113      1.0  0.28722000000000003  0.1263400000000001  0.5658500000000001  1.0000
  C   C114      1.0  0.62561  0.8685500000000002  0.28162  1.0000
  C   C115      1.0  0.7446399999999999  0.91581  0.33679  1.0000
  C   C116      1.0  0.21197999999999995  0.9317899999999999  0.07273  1.0000
  C   C117      1.0  0.9278  0.1536000000000001  0.6430100000000002  1.0000
  C   C118      1.0  0.90747  0.14729  0.3752  1.0000
  C   C119      1.0  0.37440000000000007  0.13146000000000008  0.7183800000000002  1.0000
  C   C120      1.0  0.72137  0.43425  0.56062  1.0000
  N   N1        1.0  0.09149999999999998  0.9143899999999999  0.04224  1.0000
  N   N2        1.0  0.8231099999999999  0.87243  0.91463  1.0000
  N   N3        1.0  0.9085  0.08561000000000009  0.95777  1.0000
  N   N4        1.0  0.9493100000000001  0.12449000000000005  0.5692  1.0000
  N   N5        1.0  0.17689999999999997  0.12758  0.08537  1.0000
  N   N6        1.0  0.21079999999999996  0.08147999999999998  0.58777  1.0000
  N   N7        1.0  0.61985  0.56931  0.44477  1.0000
  N   N8        1.0  0.62314  0.41216  0.4936  1.0000
  N   N9        1.0  0.37687  0.58784  0.5064  1.0000
  N   N10       1.0  0.7892000000000001  0.91852  0.4122300000000001  1.0000
  N   N11       1.0  0.04893999999999998  0.9575599999999999  0.87208  1.0000
  N   N12       1.0  0.3801599999999999  0.4307  0.55523  1.0000
  N   N13       1.0  0.8250899999999999  0.44467  0.87553  1.0000
  N   N14       1.0  0.12959  0.50644  0.91851  1.0000
  N   N15       1.0  0.95107  0.04244  0.12792  1.0000
  N   N16       1.0  0.17491  0.55533  0.12448000000000002  1.0000
  N   N17       1.0  0.05068999999999999  0.87551  0.43081  1.0000
  N   N18       1.0  0.87042  0.49357  0.08149  1.0000
  O   O1        1.0  0.06146999999999998  0.64615  0.0687  1.0000
  O   O2        1.0  0.9933499999999995  0.9314599999999998  0.57766  1.0000
  O   O3        1.0  0.006660000000000064  0.06854000000000007  0.4223400000000001  1.0000
  O   O4        1.0  0.9385399999999999  0.3538499999999999  0.93131  1.0000
  O   O5        1.0  0.41568  0.42249  0.35374  1.0000
  O   O6        1.0  0.58433  0.57752  0.64626  1.0000
