data_image0
_chemical_formula_structural       Cu12H64C64N96Cl8
_chemical_formula_sum              "Cu12 H64 C64 N96 Cl8"
_cell_length_a       14.89325
_cell_length_b       18.11237
_cell_length_c       18.11325
_cell_angle_alpha    89.76519000000002
_cell_angle_beta     89.74013
_cell_angle_gamma    89.74689

_space_group_name_H-M_alt    "P 1"
_space_group_IT_number       1

loop_
  _space_group_symop_operation_xyz
  'x, y, z'

loop_
  _atom_site_type_symbol
  _atom_site_label
  _atom_site_symmetry_multiplicity
  _atom_site_fract_x
  _atom_site_fract_y
  _atom_site_fract_z
  _atom_site_occupancy
  Cu  Cu1       1.0  0.27595  0.01072  0.48157999999999995  1.0000
  Cu  Cu2       1.0  0.27577  0.48157  0.011009999999999999  1.0000
  Cu  Cu3       1.0  0.78041  0.01717  0.01734  1.0000
  Cu  Cu4       1.0  0.77381  0.4861500000000001  0.48586999999999997  1.0000
  Cu  Cu5       1.0  0.22061  0.98275  0.98277  1.0000
  Cu  Cu6       1.0  0.23143999999999998  0.51325  0.5139899999999997  1.0000
  Cu  Cu7       1.0  0.7224899999999997  0.98892  0.51836  1.0000
  Cu  Cu8       1.0  0.7218999999999998  0.51838  0.98903  1.0000
  Cu  Cu9       1.0  0.49845  0.00073  0.49876  1.0000
  Cu  Cu10      1.0  0.49783  0.49863  0.00129  1.0000
  Cu  Cu11      1.0  0.0017900000000000001  0.9987199999999999  0.9989199999999999  1.0000
  Cu  Cu12      1.0  0.0027500000000000003  0.50136  0.50172  1.0000
  H   H1        1.0  0.51278  0.98396  0.68132  1.0000
  H   H2        1.0  0.22897  0.028359999999999996  0.67021  1.0000
  H   H3        1.0  0.4554799999999999  0.11125999999999998  0.7927599999999998  1.0000
  H   H4        1.0  0.26264  0.93974  0.81929  1.0000
  H   H5        1.0  0.50935  0.53755  0.82191  1.0000
  H   H6        1.0  0.22973  0.48839999999999995  0.83449  1.0000
  H   H7        1.0  0.4489  0.3919599999999999  0.71696  1.0000
  H   H8        1.0  0.26681  0.56575  0.67018  1.0000
  H   H9        1.0  0.01147  0.81717  0.9726  1.0000
  H   H10       1.0  0.7294799999999999  0.8336499999999999  0.02035  1.0000
  H   H11       1.0  0.9542499999999998  0.71373  0.10913999999999997  1.0000
  H   H12       1.0  0.76471  0.6753  0.9390799999999999  1.0000
  H   H13       1.0  0.00936  0.68325  0.5291699999999999  1.0000
  H   H14       1.0  0.72807  0.66807  0.48185  1.0000
  H   H15       1.0  0.9490499999999998  0.78675  0.39199  1.0000
  H   H16       1.0  0.76  0.8265599999999999  0.56313  1.0000
  H   H17       1.0  0.9882299999999998  0.02693  0.18166  1.0000
  H   H18       1.0  0.2707399999999999  0.97935  0.16728  1.0000
  H   H19       1.0  0.04522  0.89083  0.2866899999999999  1.0000
  H   H20       1.0  0.23476999999999995  0.06114  0.32429  1.0000
  H   H21       1.0  0.9903299999999998  0.47253  0.31896  1.0000
  H   H22       1.0  0.27285  0.51797  0.33023  1.0000
  H   H23       1.0  0.049989999999999986  0.60791  0.21287999999999999  1.0000
  H   H24       1.0  0.23967999999999995  0.43651  0.17428  1.0000
  H   H25       1.0  0.49020999999999987  0.17952  0.46209999999999996  1.0000
  H   H26       1.0  0.77003  0.16519  0.51191  1.0000
  H   H27       1.0  0.5510599999999999  0.28375  0.60815  1.0000
  H   H28       1.0  0.7340499999999998  0.32988  0.4344399999999999  1.0000
  H   H29       1.0  0.4871999999999999  0.31751  0.016399999999999998  1.0000
  H   H30       1.0  0.7707199999999997  0.33043  0.9718499999999999  1.0000
  H   H31       1.0  0.5446399999999999  0.20679  0.88884  1.0000
  H   H32       1.0  0.73781  0.18051  0.06011  1.0000
  H   H33       1.0  0.48746  0.01629  0.3177999999999999  1.0000
  H   H34       1.0  0.7709799999999999  0.9719499999999999  0.3303  1.0000
  H   H35       1.0  0.54477  0.88892  0.20716  1.0000
  H   H36       1.0  0.73785  0.06019  0.18041999999999994  1.0000
  H   H37       1.0  0.49047  0.46205  0.17996  1.0000
  H   H38       1.0  0.76991  0.51215  0.16530999999999996  1.0000
  H   H39       1.0  0.55138  0.6082  0.28336  1.0000
  H   H40       1.0  0.73363  0.43452  0.33018  1.0000
  H   H41       1.0  0.9884699999999997  0.18138  0.02675  1.0000
  H   H42       1.0  0.27081  0.16721  0.97987  1.0000
  H   H43       1.0  0.04548  0.2861  0.8908199999999998  1.0000
  H   H44       1.0  0.23461  0.32434  0.06118999999999999  1.0000
  H   H45       1.0  0.9907799999999998  0.31933  0.47135  1.0000
  H   H46       1.0  0.27289  0.33036  0.51679  1.0000
  H   H47       1.0  0.05048  0.21359  0.6078  1.0000
  H   H48       1.0  0.23919999999999994  0.17344999999999997  0.4365599999999999  1.0000
  H   H49       1.0  0.011749999999999991  0.9728499999999999  0.81705  1.0000
  H   H50       1.0  0.72968  0.02094  0.83359  1.0000
  H   H51       1.0  0.9545599999999997  0.1093  0.71329  1.0000
  H   H52       1.0  0.76489  0.93895  0.67555  1.0000
  H   H53       1.0  0.00946  0.52877  0.68367  1.0000
  H   H54       1.0  0.7278  0.48150999999999994  0.6683099999999998  1.0000
  H   H55       1.0  0.94914  0.39201  0.7873399999999998  1.0000
  H   H56       1.0  0.75955  0.56299  0.82643  1.0000
  H   H57       1.0  0.50947  0.82156  0.53781  1.0000
  H   H58       1.0  0.22987999999999997  0.83463  0.48869999999999997  1.0000
  H   H59       1.0  0.4486799999999999  0.7164099999999999  0.39175  1.0000
  H   H60       1.0  0.26665  0.66996  0.56554  1.0000
  H   H61       1.0  0.51267  0.68107  0.9839399999999999  1.0000
  H   H62       1.0  0.22892  0.6701799999999999  0.02782  1.0000
  H   H63       1.0  0.45566  0.79283  0.11107  1.0000
  H   H64       1.0  0.26263  0.8193  0.93974  1.0000
  C   C1        1.0  0.44519999999999993  0.9969099999999999  0.66328  1.0000
  C   C2        1.0  0.29892  0.01854  0.6564  1.0000
  C   C3        1.0  0.40477  0.07665  0.81911  1.0000
  C   C4        1.0  0.30841  0.98476  0.8320299999999999  1.0000
  C   C5        1.0  0.44463999999999987  0.51445  0.836  1.0000
  C   C6        1.0  0.30124  0.49249  0.84503  1.0000
  C   C7        1.0  0.3999499999999999  0.42574  0.6870699999999997  1.0000
  C   C8        1.0  0.30968999999999997  0.51789  0.6624599999999999  1.0000
  C   C9        1.0  0.94682  0.83426  0.9941399999999999  1.0000
  C   C10       1.0  0.8002699999999998  0.8448  0.01537  1.0000
  C   C11       1.0  0.90497  0.6846099999999999  0.07565999999999999  1.0000
  C   C12       1.0  0.81011  0.6651699999999999  0.9849599999999998  1.0000
  C   C13       1.0  0.9453999999999998  0.66647  0.50809  1.0000
  C   C14       1.0  0.79934  0.65663  0.48646  1.0000
  C   C15       1.0  0.8994999999999997  0.81578  0.4253399999999999  1.0000
  C   C16       1.0  0.80546  0.83546  0.517  1.0000
  C   C17       1.0  0.05342  0.00563  0.16481  1.0000
  C   C18       1.0  0.20021999999999995  0.9847099999999999  0.15580999999999998  1.0000
  C   C19       1.0  0.0942  0.9247400000000001  0.3155  1.0000
  C   C20       1.0  0.18852999999999995  0.01593  0.33488  1.0000
  C   C21       1.0  0.055239999999999984  0.4928  0.33507  1.0000
  C   C22       1.0  0.20189  0.5135  0.34279  1.0000
  C   C23       1.0  0.09943  0.57426  0.18433999999999995  1.0000
  C   C24       1.0  0.19365  0.48246999999999995  0.16510999999999995  1.0000
  C   C25       1.0  0.55459  0.16539  0.48567999999999995  1.0000
  C   C26       1.0  0.69842  0.15544  0.50778  1.0000
  C   C27       1.0  0.60026  0.3132  0.57405  1.0000
  C   C28       1.0  0.69077  0.33775  0.48171  1.0000
  C   C29       1.0  0.55444  0.33583  0.00325  1.0000
  C   C30       1.0  0.70059  0.34364  0.9816399999999998  1.0000
  C   C31       1.0  0.59563  0.18063  0.9233999999999999  1.0000
  C   C32       1.0  0.69193  0.16768999999999998  0.01514  1.0000
  C   C33       1.0  0.55468  0.0031600000000000005  0.33599  1.0000
  C   C34       1.0  0.70086  0.9815199999999998  0.34382  1.0000
  C   C35       1.0  0.59576  0.92325  0.18075  1.0000
  C   C36       1.0  0.6919799999999998  0.01511  0.16779999999999995  1.0000
  C   C37       1.0  0.55468  0.48543  0.16547999999999993  1.0000
  C   C38       1.0  0.6982399999999997  0.50783  0.15533  1.0000
  C   C39       1.0  0.60065  0.57453  0.31323  1.0000
  C   C40       1.0  0.6909999999999998  0.48215  0.33779  1.0000
  C   C41       1.0  0.05355999999999999  0.16468  0.00546  1.0000
  C   C42       1.0  0.20033  0.15544  0.9846799999999999  1.0000
  C   C43       1.0  0.09451  0.31527  0.9243599999999998  1.0000
  C   C44       1.0  0.18918  0.33456  0.01525  1.0000
  C   C45       1.0  0.05525999999999999  0.33482  0.49271999999999994  1.0000
  C   C46       1.0  0.20187  0.34271  0.51283  1.0000
  C   C47       1.0  0.09997999999999997  0.1848  0.57435  1.0000
  C   C48       1.0  0.19351999999999997  0.16447  0.48254  1.0000
  C   C49       1.0  0.94698  0.9940299999999999  0.83434  1.0000
  C   C50       1.0  0.8004699999999998  0.015599999999999998  0.84476  1.0000
  C   C51       1.0  0.9052299999999998  0.07562  0.6844799999999999  1.0000
  C   C52       1.0  0.81052  0.98464  0.66531  1.0000
  C   C53       1.0  0.9452199999999997  0.50802  0.66648  1.0000
  C   C54       1.0  0.79901  0.48645  0.65699  1.0000
  C   C55       1.0  0.8999499999999998  0.42577  0.8161899999999997  1.0000
  C   C56       1.0  0.8057499999999999  0.51737  0.8357299999999999  1.0000
  C   C57       1.0  0.4445199999999999  0.83601  0.515  1.0000
  C   C58       1.0  0.30139999999999995  0.84505  0.4933699999999999  1.0000
  C   C59       1.0  0.40022  0.68652  0.426  1.0000
  C   C60       1.0  0.31008999999999987  0.66188  0.5179799999999999  1.0000
  C   C61       1.0  0.4451499999999999  0.66314  0.9972799999999999  1.0000
  C   C62       1.0  0.29885  0.65649  0.01842  1.0000
  C   C63       1.0  0.40471999999999997  0.81909  0.0765  1.0000
  C   C64       1.0  0.30853999999999987  0.83212  0.98459  1.0000
  N   N1        1.0  0.42261  0.00533  0.59378  1.0000
  N   N2        1.0  0.33182  0.01658  0.58907  1.0000
  N   N3        1.0  0.36820999999999987  0.006060000000000001  0.70615  1.0000
  N   N4        1.0  0.37683  0.0766  0.88823  1.0000
  N   N5        1.0  0.31501  0.019220000000000004  0.89576  1.0000
  N   N6        1.0  0.36453  0.01869  0.78155  1.0000
  N   N7        1.0  0.42927  0.48108999999999996  0.9024199999999999  1.0000
  N   N8        1.0  0.3392699999999999  0.46857  0.9082799999999999  1.0000
  N   N9        1.0  0.3644200000000001  0.52541  0.79808  1.0000
  N   N10       1.0  0.3739499999999999  0.41721  0.61728  1.0000
  N   N11       1.0  0.31651  0.4766000000000001  0.60218  1.0000
  N   N12       1.0  0.36064  0.48667999999999995  0.7155299999999998  1.0000
  N   N13       1.0  0.92747  0.9039  0.01244  1.0000
  N   N14       1.0  0.83747  0.9104999999999999  0.02445  1.0000
  N   N15       1.0  0.86612  0.79314  0.9909899999999999  1.0000
  N   N16       1.0  0.8806  0.61464  0.07946  1.0000
  N   N17       1.0  0.81955  0.60262  0.02214  1.0000
  N   N18       1.0  0.86231  0.71844  0.01657  1.0000
  N   N19       1.0  0.9268699999999997  0.59725  0.48835  1.0000
  N   N20       1.0  0.83653  0.59126  0.47697999999999996  1.0000
  N   N21       1.0  0.86425  0.70762  0.5099299999999998  1.0000
  N   N22       1.0  0.8715599999999998  0.8847  0.41932  1.0000
  N   N23       1.0  0.8111399999999998  0.89686  0.47748999999999997  1.0000
  N   N24       1.0  0.8596299999999998  0.78248  0.48578  1.0000
  N   N25       1.0  0.0738  0.9869  0.09551999999999998  1.0000
  N   N26       1.0  0.16406  0.97525  0.08985  1.0000
  N   N27       1.0  0.13344  0.00818  0.20674999999999996  1.0000
  N   N28       1.0  0.11874  0.9209900000000001  0.38541  1.0000
  N   N29       1.0  0.1802  0.97797  0.3972  1.0000
  N   N30       1.0  0.13756  0.98334  0.28139  1.0000
  N   N31       1.0  0.07581  0.5115  0.40393  1.0000
  N   N32       1.0  0.16625999999999996  0.52209  0.40871  1.0000
  N   N33       1.0  0.13524  0.49208  0.29268  1.0000
  N   N34       1.0  0.12775  0.58004  0.11553  1.0000
  N   N35       1.0  0.18847  0.5221  0.10375999999999998  1.0000
  N   N36       1.0  0.13969  0.51417  0.21799999999999997  1.0000
  N   N37       1.0  0.5699699999999998  0.09845  0.51789  1.0000
  N   N38       1.0  0.65977  0.09219  0.53041  1.0000
  N   N39       1.0  0.63563  0.20348  0.47544999999999993  1.0000
  N   N40       1.0  0.6273  0.38245  0.58313  1.0000
  N   N41       1.0  0.68508  0.39778  0.52394  1.0000
  N   N42       1.0  0.64015  0.28418999999999994  0.51341  1.0000
  N   N43       1.0  0.57652  0.40551  0.99493  1.0000
  N   N44       1.0  0.66729  0.41073  0.98347  1.0000
  N   N45       1.0  0.63191  0.2934  0.9942  1.0000
  N   N46       1.0  0.62363  0.11164  0.9232199999999999  1.0000
  N   N47       1.0  0.68563  0.10403999999999998  0.9805  1.0000
  N   N48       1.0  0.63621  0.21821000000000002  0.9809699999999999  1.0000
  N   N49       1.0  0.5767999999999999  0.99493  0.40571  1.0000
  N   N50       1.0  0.66744  0.9835599999999999  0.41094999999999987  1.0000
  N   N51       1.0  0.6321099999999997  0.99419  0.29353999999999997  1.0000
  N   N52       1.0  0.6234799999999998  0.92334  0.11156999999999999  1.0000
  N   N53       1.0  0.68553  0.98062  0.1041  1.0000
  N   N54       1.0  0.63587  0.98126  0.21824  1.0000
  N   N55       1.0  0.5694999999999998  0.51778  0.09866  1.0000
  N   N56       1.0  0.6594099999999999  0.5304  0.09212  1.0000
  N   N57       1.0  0.63569  0.4754300000000001  0.20342  1.0000
  N   N58       1.0  0.62706  0.58327  0.38267  1.0000
  N   N59       1.0  0.6846599999999998  0.52393  0.39800999999999986  1.0000
  N   N60       1.0  0.6393  0.51312  0.2845  1.0000
  N   N61       1.0  0.07367  0.09528  0.9871099999999999  1.0000
  N   N62       1.0  0.16386999999999993  0.08938  0.97566  1.0000
  N   N63       1.0  0.13358  0.20649  0.00878  1.0000
  N   N64       1.0  0.11868999999999998  0.38537  0.9209599999999999  1.0000
  N   N65       1.0  0.17951999999999999  0.39725  0.9784599999999999  1.0000
  N   N66       1.0  0.13682  0.28141  0.98375  1.0000
  N   N67       1.0  0.07566  0.40369  0.51276  1.0000
  N   N68       1.0  0.16592  0.40841  0.52344  1.0000
  N   N69       1.0  0.13573  0.29268  0.48922999999999994  1.0000
  N   N70       1.0  0.12807  0.11585999999999999  0.58067  1.0000
  N   N71       1.0  0.18857999999999994  0.10345  0.52269  1.0000
  N   N72       1.0  0.14009  0.21779  0.51393  1.0000
  N   N73       1.0  0.92751  0.012119999999999999  0.9039599999999999  1.0000
  N   N74       1.0  0.83743  0.02418  0.91048  1.0000
  N   N75       1.0  0.8664199999999997  0.99192  0.7931299999999998  1.0000
  N   N76       1.0  0.88075  0.07922  0.61458  1.0000
  N   N77       1.0  0.81953  0.022019999999999998  0.60281  1.0000
  N   N78       1.0  0.86249  0.01664  0.71856  1.0000
  N   N79       1.0  0.9262099999999999  0.489  0.59731  1.0000
  N   N80       1.0  0.8357899999999998  0.4774  0.59155  1.0000
  N   N81       1.0  0.8642599999999998  0.50871  0.70788  1.0000
  N   N82       1.0  0.8713999999999997  0.41931  0.88483  1.0000
  N   N83       1.0  0.81074  0.47732  0.89697  1.0000
  N   N84       1.0  0.8588599999999997  0.48525  0.7824899999999998  1.0000
  N   N85       1.0  0.42926  0.9024600000000002  0.48080999999999996  1.0000
  N   N86       1.0  0.33953  0.90819  0.46821  1.0000
  N   N87       1.0  0.36434  0.79889  0.5267  1.0000
  N   N88       1.0  0.37317  0.61692  0.4167299999999999  1.0000
  N   N89       1.0  0.31575  0.6017599999999999  0.47611  1.0000
  N   N90       1.0  0.35957  0.71478  0.48573  1.0000
  N   N91       1.0  0.42236999999999997  0.5937  0.005629999999999998  1.0000
  N   N92       1.0  0.3314299999999999  0.58913  0.01687  1.0000
  N   N93       1.0  0.36816  0.70619  0.00589  1.0000
  N   N94       1.0  0.37691  0.88813  0.07655  1.0000
  N   N95       1.0  0.31488999999999995  0.89579  0.01932  1.0000
  N   N96       1.0  0.36434  0.78152  0.01874  1.0000
  Cl  Cl1       1.0  0.37529  0.08702  0.40396  1.0000
  Cl  Cl2       1.0  0.37529  0.40408  0.08736  1.0000
  Cl  Cl3       1.0  0.8727999999999999  0.09557999999999998  0.09544  1.0000
  Cl  Cl4       1.0  0.8784699999999999  0.40992  0.40939  1.0000
  Cl  Cl5       1.0  0.12627  0.90588  0.9058399999999999  1.0000
  Cl  Cl6       1.0  0.12041  0.58776  0.58812  1.0000
  Cl  Cl7       1.0  0.62541  0.9125399999999999  0.59713  1.0000
  Cl  Cl8       1.0  0.6254999999999997  0.59714  0.9122299999999999  1.0000
