data_image0
_chemical_formula_structural       Cu6H60C108S12N24O24
_chemical_formula_sum              "Cu6 H60 C108 S12 N24 O24"
_cell_length_a       14.84982
_cell_length_b       15.202760000000001
_cell_length_c       15.20326
_cell_angle_alpha    74.50544
_cell_angle_beta     86.61518
_cell_angle_gamma    86.60068

_space_group_name_H-M_alt    "P 1"
_space_group_IT_number       1

loop_
  _space_group_symop_operation_xyz
  'x, y, z'

loop_
  _atom_site_type_symbol
  _atom_site_label
  _atom_site_symmetry_multiplicity
  _atom_site_fract_x
  _atom_site_fract_y
  _atom_site_fract_z
  _atom_site_occupancy
  Cu  Cu1       1.0  0.97603  0.7532700000000001  0.64563  1.0000
  Cu  Cu2       1.0  0.524  0.35429  0.24667999999999995  1.0000
  Cu  Cu3       1.0  0.024010000000000007  0.24668000000000004  0.3543  1.0000
  Cu  Cu4       1.0  0.47604  0.64564  0.75326  1.0000
  Cu  Cu5       1.0  0.25196  0.8615400000000002  0.13781  1.0000
  Cu  Cu6       1.0  0.7514800000000001  0.13802000000000003  0.86159  1.0000
  H   H1        1.0  0.8022700000000003  0.4962500000000001  0.56037  1.0000
  H   H2        1.0  0.9668  0.67797  0.26701  1.0000
  H   H3        1.0  0.07704000000000003  0.7669000000000002  0.15241999999999994  1.0000
  H   H4        1.0  0.2211200000000001  0.82423  0.35431  1.0000
  H   H5        1.0  0.12306999999999998  0.73122  0.4781  1.0000
  H   H6        1.0  0.9395300000000002  0.98241  0.33764  1.0000
  H   H7        1.0  0.7731800000000002  0.81265  0.69661  1.0000
  H   H8        1.0  0.64612  0.72593  0.78623  1.0000
  H   H9        1.0  0.5426300000000002  0.6844600000000001  0.5545099999999997  1.0000
  H   H10       1.0  0.67095  0.76048  0.45537  1.0000
  H   H11       1.0  0.3853800000000001  0.17429  0.01606  1.0000
  H   H12       1.0  0.4169400000000001  0.98452  0.76844  1.0000
  H   H13       1.0  0.44599999999999995  0.8545  0.6981099999999998  1.0000
  H   H14       1.0  0.42177000000000003  0.66392  0.9501099999999998  1.0000
  H   H15       1.0  0.39131  0.78458  0.03061  1.0000
  H   H16       1.0  0.69776  0.43956  0.50382  1.0000
  H   H17       1.0  0.5333400000000003  0.7328700000000002  0.3221699999999999  1.0000
  H   H18       1.0  0.4231800000000001  0.8475300000000002  0.23317999999999994  1.0000
  H   H19       1.0  0.2789300000000001  0.64581  0.17571  1.0000
  H   H20       1.0  0.37696000000000013  0.52188  0.26881  1.0000
  H   H21       1.0  0.56042  0.66239  0.01758  1.0000
  H   H22       1.0  0.72681  0.30341  0.18738  1.0000
  H   H23       1.0  0.8539100000000002  0.21376  0.2741  1.0000
  H   H24       1.0  0.95739  0.44547  0.31555  1.0000
  H   H25       1.0  0.82905  0.5446400000000001  0.23951  1.0000
  H   H26       1.0  0.11473  0.9838900000000002  0.82576  1.0000
  H   H27       1.0  0.08305000000000001  0.23159  0.01549  1.0000
  H   H28       1.0  0.053999999999999986  0.3019100000000001  0.14552999999999994  1.0000
  H   H29       1.0  0.07825000000000003  0.04985999999999999  0.33606  1.0000
  H   H30       1.0  0.10882000000000003  0.96935  0.21532  1.0000
  H   H31       1.0  0.19778000000000007  0.5038200000000002  0.4395599999999999  1.0000
  H   H32       1.0  0.033429999999999994  0.32232  0.73275  1.0000
  H   H33       1.0  0.9234  0.23327  0.84747  1.0000
  H   H34       1.0  0.7790800000000001  0.17570999999999998  0.64582  1.0000
  H   H35       1.0  0.87696  0.26887  0.52185  1.0000
  H   H36       1.0  0.06049000000000003  0.017589999999999995  0.66236  1.0000
  H   H37       1.0  0.22682  0.18736  0.30339  1.0000
  H   H38       1.0  0.3538800000000001  0.27408  0.21377  1.0000
  H   H39       1.0  0.45737  0.31554000000000004  0.4454899999999999  1.0000
  H   H40       1.0  0.32906000000000013  0.23952  0.54463  1.0000
  H   H41       1.0  0.61476  0.82578  0.98382  1.0000
  H   H42       1.0  0.58303  0.015480000000000006  0.23157999999999995  1.0000
  H   H43       1.0  0.55399  0.14553000000000002  0.3018899999999999  1.0000
  H   H44       1.0  0.57826  0.3360600000000001  0.04986  1.0000
  H   H45       1.0  0.60888  0.21530000000000007  0.9693799999999998  1.0000
  H   H46       1.0  0.3023000000000001  0.56036  0.49624  1.0000
  H   H47       1.0  0.46691  0.26688000000000006  0.67812  1.0000
  H   H48       1.0  0.57726  0.15233999999999998  0.76699  1.0000
  H   H49       1.0  0.72129  0.3543  0.82424  1.0000
  H   H50       1.0  0.6231000000000001  0.47805  0.73129  1.0000
  H   H51       1.0  0.43960000000000016  0.3376200000000001  0.9824099999999998  1.0000
  H   H52       1.0  0.2731900000000001  0.6966  0.81263  1.0000
  H   H53       1.0  0.14609000000000005  0.78625  0.7258999999999999  1.0000
  H   H54       1.0  0.04261  0.5545400000000001  0.68445  1.0000
  H   H55       1.0  0.17096000000000006  0.45536999999999994  0.76049  1.0000
  H   H56       1.0  0.88546  0.01593  0.17437  1.0000
  H   H57       1.0  0.91692  0.76843  0.9845  1.0000
  H   H58       1.0  0.9460000000000003  0.6981  0.8545  1.0000
  H   H59       1.0  0.92178  0.95012  0.6639299999999998  1.0000
  H   H60       1.0  0.8913800000000002  0.030650000000000004  0.78456  1.0000
  C   C1        1.0  0.8604900000000002  0.59668  0.67946  1.0000
  C   C2        1.0  0.89227  0.59637  0.58365  1.0000
  C   C3        1.0  0.8543200000000002  0.5447799999999999  0.53472  1.0000
  C   C4        1.0  0.9719600000000002  0.6446500000000002  0.4520899999999999  1.0000
  C   C5        1.0  0.03548  0.69629  0.38316  1.0000
  C   C6        1.0  0.023340000000000003  0.70743  0.28964  1.0000
  C   C7        1.0  0.08337000000000004  0.7581700000000002  0.22522  1.0000
  C   C8        1.0  0.16515000000000005  0.7892  0.3377099999999999  1.0000
  C   C9        1.0  0.1092  0.7376600000000001  0.40704  1.0000
  C   C10       1.0  0.04375999999999999  0.89575  0.50188  1.0000
  C   C11       1.0  0.9484800000000002  0.89065  0.47683  1.0000
  C   C12       1.0  0.9088600000000002  0.93476  0.3963799999999999  1.0000
  C   C13       1.0  0.8085000000000002  0.84091  0.51322  1.0000
  C   C14       1.0  0.73311  0.79336  0.5679399999999999  1.0000
  C   C15       1.0  0.72538  0.7833  0.66243  1.0000
  C   C16       1.0  0.65342  0.73646  0.71267  1.0000
  C   C17       1.0  0.5957500000000001  0.71307  0.5828499999999998  1.0000
  C   C18       1.0  0.6666500000000002  0.75652  0.52799  1.0000
  C   C19       1.0  0.31397  0.025509999999999994  0.16533  1.0000
  C   C20       1.0  0.3491500000000001  0.030590000000000006  0.06947999999999999  1.0000
  C   C21       1.0  0.38055  0.10665  0.00636  1.0000
  C   C22       1.0  0.3861300000000001  0.96682  0.95447  1.0000
  C   C23       1.0  0.4030700000000001  0.89548  0.9068599999999998  1.0000
  C   C24       1.0  0.4186600000000001  0.91476  0.8117  1.0000
  C   C25       1.0  0.43556000000000006  0.8427700000000004  0.7716999999999999  1.0000
  C   C26       1.0  0.4220300000000001  0.73573  0.9117  1.0000
  C   C27       1.0  0.4047900000000001  0.80344  0.95718  1.0000
  C   C28       1.0  0.63954  0.32049000000000005  0.40333999999999987  1.0000
  C   C29       1.0  0.60776  0.41629  0.40365  1.0000
  C   C30       1.0  0.6457200000000002  0.46521  0.45526  1.0000
  C   C31       1.0  0.52807  0.5478500000000001  0.35542  1.0000
  C   C32       1.0  0.4645800000000001  0.61678  0.30378  1.0000
  C   C33       1.0  0.4768100000000001  0.71027  0.29271  1.0000
  C   C34       1.0  0.4169000000000001  0.77473  0.24194  1.0000
  C   C35       1.0  0.3349599999999999  0.66226  0.21079  1.0000
  C   C36       1.0  0.39085  0.59294  0.26238  1.0000
  C   C37       1.0  0.45622  0.49814  0.10424999999999997  1.0000
  C   C38       1.0  0.5514999999999999  0.5231900000000003  0.10934999999999997  1.0000
  C   C39       1.0  0.59108  0.6036300000000001  0.06524  1.0000
  C   C40       1.0  0.69148  0.48679000000000006  0.1591  1.0000
  C   C41       1.0  0.7668900000000002  0.4320700000000001  0.20665  1.0000
  C   C42       1.0  0.77462  0.33757  0.21672  1.0000
  C   C43       1.0  0.8466000000000001  0.28731  0.26356  1.0000
  C   C44       1.0  0.9042700000000002  0.41714  0.28694  1.0000
  C   C45       1.0  0.8333500000000003  0.47201000000000004  0.24348  1.0000
  C   C46       1.0  0.1862100000000001  0.8347200000000001  0.9745499999999998  1.0000
  C   C47       1.0  0.15088  0.93053  0.96955  1.0000
  C   C48       1.0  0.11952  0.9936299999999999  0.89339  1.0000
  C   C49       1.0  0.11386  0.04553  0.03318  1.0000
  C   C50       1.0  0.09691000000000002  0.09316  0.10451  1.0000
  C   C51       1.0  0.08133  0.18831  0.08525  1.0000
  C   C52       1.0  0.06443  0.22831000000000004  0.15725  1.0000
  C   C53       1.0  0.07798  0.08827  0.26425  1.0000
  C   C54       1.0  0.09524000000000003  0.0428  0.19654  1.0000
  C   C55       1.0  0.13955  0.40334000000000003  0.32048  1.0000
  C   C56       1.0  0.10778  0.40368  0.41626  1.0000
  C   C57       1.0  0.14574  0.45526999999999995  0.46519  1.0000
  C   C58       1.0  0.02810000000000001  0.35547999999999996  0.54779  1.0000
  C   C59       1.0  0.9646300000000002  0.30384000000000005  0.61671  1.0000
  C   C60       1.0  0.97691  0.2927900000000001  0.71019  1.0000
  C   C61       1.0  0.9170700000000002  0.24198000000000006  0.7746799999999999  1.0000
  C   C62       1.0  0.8351000000000002  0.21079  0.66226  1.0000
  C   C63       1.0  0.8909100000000002  0.26242  0.5929  1.0000
  C   C64       1.0  0.95624  0.10426000000000003  0.49812999999999996  1.0000
  C   C65       1.0  0.051530000000000006  0.10936000000000001  0.52317  1.0000
  C   C66       1.0  0.09114  0.06525  0.60362  1.0000
  C   C67       1.0  0.1915  0.1591  0.48678  1.0000
  C   C68       1.0  0.26689  0.20665000000000006  0.43206  1.0000
  C   C69       1.0  0.27462  0.21670999999999999  0.33757  1.0000
  C   C70       1.0  0.34658  0.2635400000000001  0.28733  1.0000
  C   C71       1.0  0.4042500000000001  0.2869300000000001  0.4171499999999999  1.0000
  C   C72       1.0  0.33335000000000004  0.24348000000000003  0.4720099999999999  1.0000
  C   C73       1.0  0.68622  0.9745500000000001  0.8347299999999997  1.0000
  C   C74       1.0  0.6509200000000003  0.9695500000000002  0.9305299999999997  1.0000
  C   C75       1.0  0.6195400000000001  0.8934000000000001  0.9935999999999998  1.0000
  C   C76       1.0  0.6138700000000002  0.03317  0.04553999999999999  1.0000
  C   C77       1.0  0.59692  0.1045  0.09317  1.0000
  C   C78       1.0  0.58131  0.08524000000000001  0.18831  1.0000
  C   C79       1.0  0.56443  0.15725  0.2283  1.0000
  C   C80       1.0  0.5780000000000002  0.26425  0.08827  1.0000
  C   C81       1.0  0.5952700000000002  0.19653000000000007  0.04281  1.0000
  C   C82       1.0  0.36049  0.67945  0.59667  1.0000
  C   C83       1.0  0.3922900000000001  0.5836200000000004  0.59639  1.0000
  C   C84       1.0  0.35435  0.5347  0.54479  1.0000
  C   C85       1.0  0.47200000000000014  0.45203000000000026  0.6447099999999998  1.0000
  C   C86       1.0  0.5355500000000001  0.38308999999999993  0.69636  1.0000
  C   C87       1.0  0.52346  0.28955  0.70752  1.0000
  C   C88       1.0  0.58354  0.22514999999999996  0.75822  1.0000
  C   C89       1.0  0.6653100000000002  0.33769000000000005  0.7892199999999998  1.0000
  C   C90       1.0  0.6092800000000002  0.40698000000000006  0.7377099999999998  1.0000
  C   C91       1.0  0.5437800000000004  0.50187  0.89576  1.0000
  C   C92       1.0  0.44851  0.47682  0.89065  1.0000
  C   C93       1.0  0.4089200000000001  0.39637  0.93476  1.0000
  C   C94       1.0  0.30852000000000007  0.5132200000000002  0.84091  1.0000
  C   C95       1.0  0.23311000000000012  0.56794  0.79335  1.0000
  C   C96       1.0  0.2253800000000001  0.66244  0.78329  1.0000
  C   C97       1.0  0.15340000000000006  0.71269  0.73644  1.0000
  C   C98       1.0  0.09574000000000002  0.5828600000000002  0.71306  1.0000
  C   C99       1.0  0.16665  0.5280000000000001  0.75652  1.0000
  C   C100      1.0  0.8139900000000001  0.16531  0.02555  1.0000
  C   C101      1.0  0.84921  0.06946  0.03065  1.0000
  C   C102      1.0  0.8806200000000002  0.006290000000000002  0.1067  1.0000
  C   C103      1.0  0.8861400000000001  0.9544700000000002  0.9668399999999998  1.0000
  C   C104      1.0  0.9030700000000002  0.9068700000000001  0.8954799999999998  1.0000
  C   C105      1.0  0.9186400000000001  0.81171  0.91475  1.0000
  C   C106      1.0  0.9355500000000002  0.7716900000000003  0.8427599999999997  1.0000
  C   C107      1.0  0.9220400000000002  0.9116999999999998  0.73574  1.0000
  C   C108      1.0  0.9048200000000002  0.9572000000000002  0.80344  1.0000
  S   S1        1.0  0.9012800000000002  0.56697  0.42635  1.0000
  S   S2        1.0  0.7971300000000002  0.91083  0.4025799999999999  1.0000
  S   S3        1.0  0.4156600000000002  0.07996999999999999  0.90684  1.0000
  S   S4        1.0  0.5987500000000002  0.57359  0.4331  1.0000
  S   S5        1.0  0.7028300000000002  0.59743  0.08917  1.0000
  S   S6        1.0  0.08440000000000002  0.09323  0.91992  1.0000
  S   S7        1.0  0.09878000000000002  0.43313000000000007  0.57355  1.0000
  S   S8        1.0  0.20288000000000003  0.08918  0.59742  1.0000
  S   S9        1.0  0.5844000000000001  0.9199200000000002  0.09317999999999997  1.0000
  S   S10       1.0  0.4013200000000001  0.4263100000000001  0.567  1.0000
  S   S11       1.0  0.29718  0.40257  0.91083  1.0000
  S   S12       1.0  0.9156900000000002  0.90677  0.08  1.0000
  N   N1        1.0  0.9593500000000003  0.651  0.53684  1.0000
  N   N2        1.0  0.15290000000000006  0.7995  0.24807999999999994  1.0000
  N   N3        1.0  0.8913700000000002  0.83798  0.54146  1.0000
  N   N4        1.0  0.58897  0.70278  0.67367  1.0000
  N   N5        1.0  0.3521800000000001  0.95296  0.03927  1.0000
  N   N6        1.0  0.43829  0.7546699999999998  0.82059  1.0000
  N   N7        1.0  0.54067  0.4631100000000001  0.34903  1.0000
  N   N8        1.0  0.34746  0.7518500000000002  0.20052999999999996  1.0000
  N   N9        1.0  0.6086300000000001  0.45856  0.16203  1.0000
  N   N10       1.0  0.9110500000000002  0.32632  0.29724  1.0000
  N   N11       1.0  0.14776  0.96073  0.04717  1.0000
  N   N12       1.0  0.061700000000000005  0.17939000000000002  0.24533999999999997  1.0000
  N   N13       1.0  0.04068000000000003  0.3490800000000001  0.46306  1.0000
  N   N14       1.0  0.84764  0.20051  0.75184  1.0000
  N   N15       1.0  0.10862999999999999  0.1620300000000001  0.45855  1.0000
  N   N16       1.0  0.4110300000000001  0.29723  0.32633  1.0000
  N   N17       1.0  0.6477800000000002  0.04715000000000006  0.9607499999999998  1.0000
  N   N18       1.0  0.5617000000000002  0.24534000000000003  0.17937999999999996  1.0000
  N   N19       1.0  0.45938  0.5367900000000002  0.65105  1.0000
  N   N20       1.0  0.6531000000000001  0.24805000000000002  0.7994999999999999  1.0000
  N   N21       1.0  0.3913700000000001  0.54145  0.83798  1.0000
  N   N22       1.0  0.08896000000000001  0.6736799999999998  0.70277  1.0000
  N   N23       1.0  0.8522100000000002  0.03928999999999998  0.953  1.0000
  N   N24       1.0  0.93829  0.82059  0.75467  1.0000
  O   O1        1.0  0.89488  0.65737  0.7120999999999997  1.0000
  O   O2        1.0  0.80394  0.5411300000000002  0.7196  1.0000
  O   O3        1.0  0.06332999999999998  0.84459  0.58217  1.0000
  O   O4        1.0  0.09658000000000001  0.94656  0.44804  1.0000
  O   O5        1.0  0.2821500000000001  0.94665  0.20917999999999998  1.0000
  O   O6        1.0  0.3179000000000001  0.09317000000000003  0.19561999999999993  1.0000
  O   O7        1.0  0.6051400000000002  0.28786  0.34265  1.0000
  O   O8        1.0  0.69611  0.28036  0.4588999999999999  1.0000
  O   O9        1.0  0.4366700000000001  0.41785000000000005  0.1554  1.0000
  O   O10       1.0  0.4033700000000001  0.5520100000000002  0.05346  1.0000
  O   O11       1.0  0.21828000000000003  0.79082  0.05329  1.0000
  O   O12       1.0  0.18206000000000008  0.8044000000000003  0.9069199999999997  1.0000
  O   O13       1.0  0.10514000000000001  0.34264000000000006  0.28786  1.0000
  O   O14       1.0  0.19610000000000002  0.45888000000000007  0.28035  1.0000
  O   O15       1.0  0.93667  0.15541  0.41784  1.0000
  O   O16       1.0  0.90342  0.05347000000000001  0.55199  1.0000
  O   O17       1.0  0.7182500000000003  0.05329999999999998  0.79084  1.0000
  O   O18       1.0  0.6820700000000002  0.9069099999999999  0.80441  1.0000
  O   O19       1.0  0.39487000000000017  0.7121000000000003  0.6573599999999998  1.0000
  O   O20       1.0  0.30394  0.71959  0.54111  1.0000
  O   O21       1.0  0.56333  0.58216  0.84459  1.0000
  O   O22       1.0  0.59662  0.44803  0.9465699999999999  1.0000
  O   O23       1.0  0.7821300000000002  0.20919000000000007  0.9466999999999998  1.0000
  O   O24       1.0  0.8179300000000002  0.19563  0.09319  1.0000
