data_image0
_chemical_formula_structural       Zn4H128C164N12O32
_chemical_formula_sum              "Zn4 H128 C164 N12 O32"
_cell_length_a       11.40953
_cell_length_b       19.31564
_cell_length_c       21.54099
_cell_angle_alpha    89.99865000000001
_cell_angle_beta     90.0
_cell_angle_gamma    95.31312

_space_group_name_H-M_alt    "P 1"
_space_group_IT_number       1

loop_
  _space_group_symop_operation_xyz
  'x, y, z'

loop_
  _atom_site_type_symbol
  _atom_site_label
  _atom_site_symmetry_multiplicity
  _atom_site_fract_x
  _atom_site_fract_y
  _atom_site_fract_z
  _atom_site_occupancy
  Zn  Zn1       1.0  0.38625999999999994  0.9152399999999999  0.014169999999999999  1.0000
  Zn  Zn2       1.0  0.6137699999999999  0.58478  0.51418  1.0000
  Zn  Zn3       1.0  0.61374  0.08477  0.98583  1.0000
  Zn  Zn4       1.0  0.38622999999999996  0.41523  0.48582  1.0000
  H   H1        1.0  0.79229  0.51679  0.13514  1.0000
  H   H2        1.0  0.037009999999999994  0.7744799999999998  0.1132  1.0000
  H   H3        1.0  0.71156  0.87159  0.10326  1.0000
  H   H4        1.0  0.82164  0.98036  0.06512  1.0000
  H   H5        1.0  0.038909999999999965  0.9855499999999999  0.050539999999999995  1.0000
  H   H6        1.0  0.5909399999999999  0.70457  0.2482  1.0000
  H   H7        1.0  0.69045  0.80766  0.19666999999999998  1.0000
  H   H8        1.0  0.57465  0.51408  0.14537  1.0000
  H   H9        1.0  0.46766  0.41402  0.19707999999999998  1.0000
  H   H10       1.0  0.4553400000000001  0.40906  0.31375  1.0000
  H   H11       1.0  0.66435  0.60537  0.32395  1.0000
  H   H12       1.0  0.94619  0.61448  0.9622999999999999  1.0000
  H   H13       1.0  0.97294  0.46715  0.11097  1.0000
  H   H14       1.0  0.6876299999999999  0.66438  0.8725  1.0000
  H   H15       1.0  0.57167  0.59255  0.05453999999999999  1.0000
  H   H16       1.0  0.7409199999999999  0.45699999999999996  0.9313199999999998  1.0000
  H   H17       1.0  0.78531  0.41705999999999993  0.02281  1.0000
  H   H18       1.0  0.64169  0.37507  0.006619999999999999  1.0000
  H   H19       1.0  0.60162  0.37126  0.1221  1.0000
  H   H20       1.0  0.7198  0.32218  0.09938  1.0000
  H   H21       1.0  0.7962499999999998  0.33082  0.19817  1.0000
  H   H22       1.0  0.70009  0.38997  0.23018  1.0000
  H   H23       1.0  0.87615  0.48009999999999997  0.23914  1.0000
  H   H24       1.0  0.8866199999999999  0.40431  0.28497  1.0000
  H   H25       1.0  0.08772999999999997  0.39557  0.28443  1.0000
  H   H26       1.0  0.10686  0.48117999999999994  0.25265  1.0000
  H   H27       1.0  0.8297899999999999  0.64531  0.81976  1.0000
  H   H28       1.0  0.7264799999999999  0.59996  0.76771  1.0000
  H   H29       1.0  0.55136  0.72996  0.87927  1.0000
  H   H30       1.0  0.45697999999999994  0.8378199999999999  0.9029  1.0000
  H   H31       1.0  0.47457  0.80403  0.092  1.0000
  H   H32       1.0  0.58047  0.6984299999999999  0.07741999999999999  1.0000
  H   H33       1.0  0.20768  0.9832  0.63515  1.0000
  H   H34       1.0  0.9629899999999998  0.72552  0.61326  1.0000
  H   H35       1.0  0.28845  0.62842  0.60325  1.0000
  H   H36       1.0  0.17835  0.51964  0.5651  1.0000
  H   H37       1.0  0.96103  0.51446  0.55058  1.0000
  H   H38       1.0  0.40908999999999995  0.79542  0.74819  1.0000
  H   H39       1.0  0.30957  0.69233  0.69666  1.0000
  H   H40       1.0  0.42535999999999996  0.9859  0.6453399999999999  1.0000
  H   H41       1.0  0.53235  0.08595  0.69703  1.0000
  H   H42       1.0  0.54467  0.09097  0.8137  1.0000
  H   H43       1.0  0.33567  0.89466  0.82395  1.0000
  H   H44       1.0  0.05381999999999997  0.8855299999999999  0.46229999999999993  1.0000
  H   H45       1.0  0.02703  0.032839999999999994  0.61097  1.0000
  H   H46       1.0  0.31232000000000004  0.8356  0.37249  1.0000
  H   H47       1.0  0.42833  0.9074599999999999  0.55451  1.0000
  H   H48       1.0  0.25906  0.04299999999999999  0.43127  1.0000
  H   H49       1.0  0.21462  0.08289  0.5228  1.0000
  H   H50       1.0  0.35822  0.12492  0.50665  1.0000
  H   H51       1.0  0.39833  0.12869  0.62209  1.0000
  H   H52       1.0  0.27999  0.17773  0.59943  1.0000
  H   H53       1.0  0.20377999999999996  0.16908  0.69814  1.0000
  H   H54       1.0  0.29983  0.10992  0.73024  1.0000
  H   H55       1.0  0.1237  0.01983  0.73917  1.0000
  H   H56       1.0  0.11323999999999997  0.09565  0.78493  1.0000
  H   H57       1.0  0.9123599999999998  0.10441  0.7844  1.0000
  H   H58       1.0  0.8930999999999999  0.01882  0.7526599999999999  1.0000
  H   H59       1.0  0.17027  0.8547  0.31973  1.0000
  H   H60       1.0  0.27351  0.90004  0.26768  1.0000
  H   H61       1.0  0.44867  0.77005  0.37925999999999993  1.0000
  H   H62       1.0  0.54308  0.66219  0.40292  1.0000
  H   H63       1.0  0.52544  0.69602  0.59202  1.0000
  H   H64       1.0  0.41949999999999993  0.8015999999999999  0.5774  1.0000
  H   H65       1.0  0.20770999999999998  0.48321  0.8648599999999999  1.0000
  H   H66       1.0  0.9629899999999998  0.22553  0.8868  1.0000
  H   H67       1.0  0.28844999999999993  0.12842  0.89674  1.0000
  H   H68       1.0  0.17836  0.01964  0.93488  1.0000
  H   H69       1.0  0.96109  0.014459999999999999  0.94946  1.0000
  H   H70       1.0  0.40906  0.29543  0.7517999999999999  1.0000
  H   H71       1.0  0.30955  0.19233999999999998  0.80333  1.0000
  H   H72       1.0  0.42535999999999996  0.48592  0.85463  1.0000
  H   H73       1.0  0.53234  0.58599  0.8029199999999999  1.0000
  H   H74       1.0  0.54466  0.59095  0.68625  1.0000
  H   H75       1.0  0.33565  0.39464  0.67605  1.0000
  H   H76       1.0  0.05381  0.38553  0.03769999999999999  1.0000
  H   H77       1.0  0.02706999999999999  0.5328599999999999  0.8890299999999999  1.0000
  H   H78       1.0  0.31237  0.33562  0.1275  1.0000
  H   H79       1.0  0.42833  0.40746  0.94546  1.0000
  H   H80       1.0  0.25908  0.543  0.06868  1.0000
  H   H81       1.0  0.21469  0.58294  0.97719  1.0000
  H   H82       1.0  0.35830999999999996  0.6249299999999999  0.9933799999999999  1.0000
  H   H83       1.0  0.39837999999999996  0.62875  0.8779  1.0000
  H   H84       1.0  0.2802  0.67783  0.90062  1.0000
  H   H85       1.0  0.20376  0.66919  0.80183  1.0000
  H   H86       1.0  0.29991  0.61003  0.76982  1.0000
  H   H87       1.0  0.12385999999999997  0.5198999999999999  0.7608599999999999  1.0000
  H   H88       1.0  0.11338999999999999  0.59569  0.71503  1.0000
  H   H89       1.0  0.91227  0.60444  0.71557  1.0000
  H   H90       1.0  0.89314  0.51882  0.74735  1.0000
  H   H91       1.0  0.17021  0.3547  0.18024  1.0000
  H   H92       1.0  0.27352  0.40005  0.23229  1.0000
  H   H93       1.0  0.44864  0.27005  0.12072999999999999  1.0000
  H   H94       1.0  0.54302  0.16218  0.0971  1.0000
  H   H95       1.0  0.52543  0.19598  0.908  1.0000
  H   H96       1.0  0.41953  0.30157  0.92258  1.0000
  H   H97       1.0  0.79232  0.0168  0.36485  1.0000
  H   H98       1.0  0.03701  0.27448  0.3867399999999999  1.0000
  H   H99       1.0  0.71155  0.37159  0.39674999999999994  1.0000
  H   H100      1.0  0.8216499999999999  0.48036  0.43489999999999995  1.0000
  H   H101      1.0  0.03897000000000001  0.4855400000000001  0.4494199999999999  1.0000
  H   H102      1.0  0.59092  0.20459  0.25181  1.0000
  H   H103      1.0  0.69043  0.30768  0.30334  1.0000
  H   H104      1.0  0.57464  0.01411  0.35466  1.0000
  H   H105      1.0  0.46765  0.9140499999999999  0.30297  1.0000
  H   H106      1.0  0.45533  0.90903  0.1863  1.0000
  H   H107      1.0  0.66433  0.10533999999999999  0.17605  1.0000
  H   H108      1.0  0.94619  0.11447  0.5377  1.0000
  H   H109      1.0  0.97297  0.9671599999999999  0.38902999999999993  1.0000
  H   H110      1.0  0.68769  0.1644  0.62751  1.0000
  H   H111      1.0  0.57167  0.09255  0.4454899999999999  1.0000
  H   H112      1.0  0.74095  0.95701  0.56873  1.0000
  H   H113      1.0  0.78538  0.9171199999999999  0.4772  1.0000
  H   H114      1.0  0.64178  0.8750899999999999  0.49335  1.0000
  H   H115      1.0  0.60168  0.87131  0.37790999999999997  1.0000
  H   H116      1.0  0.7200099999999999  0.82227  0.4005699999999999  1.0000
  H   H117      1.0  0.79622  0.8309199999999999  0.30186  1.0000
  H   H118      1.0  0.70017  0.89009  0.26976  1.0000
  H   H119      1.0  0.8763  0.9801699999999999  0.26083  1.0000
  H   H120      1.0  0.88677  0.90436  0.21507  1.0000
  H   H121      1.0  0.08764000000000001  0.89559  0.2156  1.0000
  H   H122      1.0  0.10691  0.98119  0.24733999999999998  1.0000
  H   H123      1.0  0.8297299999999999  0.1453  0.6802699999999999  1.0000
  H   H124      1.0  0.72649  0.09996  0.73232  1.0000
  H   H125      1.0  0.55133  0.22996  0.62074  1.0000
  H   H126      1.0  0.45692  0.33781  0.59708  1.0000
  H   H127      1.0  0.47456  0.30398  0.40798  1.0000
  H   H128      1.0  0.5805  0.19841  0.4226  1.0000
  C   C1        1.0  0.18059000000000003  0.8815800000000001  0.06934  1.0000
  C   C2        1.0  0.05064  0.8802  0.08091  1.0000
  C   C3        1.0  0.9888399999999998  0.81918  0.10317999999999997  1.0000
  C   C4        1.0  0.8662599999999999  0.8153299999999999  0.1121  1.0000
  C   C5        1.0  0.8067799999999999  0.87415  0.09805  1.0000
  C   C6        1.0  0.86833  0.9353400000000001  0.07642  1.0000
  C   C7        1.0  0.99001  0.9385099999999998  0.06784  1.0000
  C   C8        1.0  0.80269  0.75206  0.13868  1.0000
  C   C9        1.0  0.82849  0.6841  0.12255  1.0000
  C   C10       1.0  0.77115  0.62509  0.15367  1.0000
  C   C11       1.0  0.68523  0.62994  0.19974999999999998  1.0000
  C   C12       1.0  0.65831  0.69778  0.21353  1.0000
  C   C13       1.0  0.71462  0.75645  0.18372999999999998  1.0000
  C   C14       1.0  0.62549  0.56811  0.23087  1.0000
  C   C15       1.0  0.57113  0.51259  0.19585  1.0000
  C   C16       1.0  0.51075  0.45559  0.22533  1.0000
  C   C17       1.0  0.50381  0.45239999999999997  0.28992  1.0000
  C   C18       1.0  0.5592999999999999  0.5068  0.32552  1.0000
  C   C19       1.0  0.61988  0.56407  0.2959  1.0000
  C   C20       1.0  0.5506  0.50405  0.39485  1.0000
  C   C21       1.0  0.8965  0.59368  0.08216  1.0000
  C   C22       1.0  0.9534  0.54667  0.041319999999999996  1.0000
  C   C23       1.0  0.9715699999999998  0.56473  0.97862  1.0000
  C   C24       1.0  0.98307  0.48159  0.062369999999999995  1.0000
  C   C25       1.0  0.71842  0.55889  0.89607  1.0000
  C   C26       1.0  0.67622  0.6234199999999999  0.90697  1.0000
  C   C27       1.0  0.62318  0.63618  0.96461  1.0000
  C   C28       1.0  0.61351  0.58458  0.01016  1.0000
  C   C29       1.0  0.65555  0.51989  0.99837  1.0000
  C   C30       1.0  0.70585  0.50609  0.9412999999999999  1.0000
  C   C31       1.0  0.69429  0.40838  0.03973  1.0000
  C   C32       1.0  0.69184  0.37517  0.10328999999999999  1.0000
  C   C33       1.0  0.78143  0.38605  0.20330999999999996  1.0000
  C   C34       1.0  0.88477  0.42375  0.23687  1.0000
  C   C35       1.0  0.09371999999999997  0.42553  0.24071  1.0000
  C   C36       1.0  0.8038399999999999  0.59512  0.7973499999999999  1.0000
  C   C37       1.0  0.5732899999999997  0.70272  0.9763399999999999  1.0000
  C   C38       1.0  0.53888  0.74462  0.9273699999999999  1.0000
  C   C39       1.0  0.48452  0.80439  0.93975  1.0000
  C   C40       1.0  0.4952699999999999  0.78582  0.04583  1.0000
  C   C41       1.0  0.55211  0.72612  0.03694  1.0000
  C   C42       1.0  0.81934  0.61845  0.56946  1.0000
  C   C43       1.0  0.94934  0.6198  0.58098  1.0000
  C   C44       1.0  0.011159999999999998  0.68084  0.60322  1.0000
  C   C45       1.0  0.13375  0.68466  0.61212  1.0000
  C   C46       1.0  0.19322  0.62584  0.59806  1.0000
  C   C47       1.0  0.13165  0.56466  0.57642  1.0000
  C   C48       1.0  0.009969999999999984  0.5615  0.5678699999999999  1.0000
  C   C49       1.0  0.19731999999999997  0.74794  0.63869  1.0000
  C   C50       1.0  0.17151  0.8159  0.62255  1.0000
  C   C51       1.0  0.22885000000000003  0.8749000000000001  0.65367  1.0000
  C   C52       1.0  0.31478  0.8700599999999998  0.6997499999999999  1.0000
  C   C53       1.0  0.34172  0.80221  0.71352  1.0000
  C   C54       1.0  0.2854  0.74354  0.68373  1.0000
  C   C55       1.0  0.37451  0.9319  0.73086  1.0000
  C   C56       1.0  0.42888  0.9874  0.69582  1.0000
  C   C57       1.0  0.48924  0.0444  0.72531  1.0000
  C   C58       1.0  0.49618  0.047619999999999996  0.7899  1.0000
  C   C59       1.0  0.44072  0.99322  0.8255  1.0000
  C   C60       1.0  0.38013  0.9359499999999998  0.79589  1.0000
  C   C61       1.0  0.44939  0.99593  0.89484  1.0000
  C   C62       1.0  0.10348  0.90631  0.58216  1.0000
  C   C63       1.0  0.046589999999999986  0.9533299999999999  0.54133  1.0000
  C   C64       1.0  0.028429999999999997  0.93528  0.4786199999999999  1.0000
  C   C65       1.0  0.01691  0.01841  0.56237  1.0000
  C   C66       1.0  0.28157999999999994  0.9411099999999999  0.39605  1.0000
  C   C67       1.0  0.3237499999999999  0.8765699999999998  0.40694999999999987  1.0000
  C   C68       1.0  0.37679999999999997  0.86381  0.46458999999999995  1.0000
  C   C69       1.0  0.38647999999999993  0.91541  0.51013  1.0000
  C   C70       1.0  0.3444199999999999  0.9801  0.49834  1.0000
  C   C71       1.0  0.29413  0.9939099999999998  0.44128  1.0000
  C   C72       1.0  0.30563  0.09156999999999998  0.53973  1.0000
  C   C73       1.0  0.30809  0.12476  0.60329  1.0000
  C   C74       1.0  0.21854999999999997  0.11384999999999999  0.70332  1.0000
  C   C75       1.0  0.11517  0.07619  0.73685  1.0000
  C   C76       1.0  0.9063  0.07446  0.74069  1.0000
  C   C77       1.0  0.19617  0.9049  0.29733  1.0000
  C   C78       1.0  0.4267099999999999  0.79728  0.47633  1.0000
  C   C79       1.0  0.46115  0.75539  0.42737  1.0000
  C   C80       1.0  0.51553  0.69563  0.43976  1.0000
  C   C81       1.0  0.5047399999999999  0.71421  0.54584  1.0000
  C   C82       1.0  0.44787999999999994  0.7739  0.5369299999999999  1.0000
  C   C83       1.0  0.81941  0.11842  0.9306599999999999  1.0000
  C   C84       1.0  0.94937  0.1198  0.91909  1.0000
  C   C85       1.0  0.011160000000000003  0.18083  0.89682  1.0000
  C   C86       1.0  0.13374999999999995  0.18467  0.8879  1.0000
  C   C87       1.0  0.19322  0.12585  0.90195  1.0000
  C   C88       1.0  0.13168  0.06467  0.92358  1.0000
  C   C89       1.0  0.01  0.06149  0.93217  1.0000
  C   C90       1.0  0.19731999999999997  0.24795  0.8613199999999999  1.0000
  C   C91       1.0  0.17151999999999995  0.31591  0.87745  1.0000
  C   C92       1.0  0.22884999999999997  0.37491  0.8463299999999999  1.0000
  C   C93       1.0  0.31477  0.37007  0.8002499999999999  1.0000
  C   C94       1.0  0.34168999999999994  0.30222  0.78647  1.0000
  C   C95       1.0  0.28538  0.24355  0.81627  1.0000
  C   C96       1.0  0.37451  0.4319  0.76913  1.0000
  C   C97       1.0  0.42888  0.48741  0.8041499999999999  1.0000
  C   C98       1.0  0.48924999999999996  0.54441  0.77467  1.0000
  C   C99       1.0  0.4961899999999999  0.54761  0.71008  1.0000
  C   C100      1.0  0.4407  0.4932  0.6744799999999999  1.0000
  C   C101      1.0  0.38011999999999996  0.43593  0.7041  1.0000
  C   C102      1.0  0.4493999999999999  0.49595999999999996  0.60515  1.0000
  C   C103      1.0  0.1035  0.40632  0.91784  1.0000
  C   C104      1.0  0.046599999999999996  0.45333999999999997  0.95868  1.0000
  C   C105      1.0  0.028429999999999997  0.43527  0.02138  1.0000
  C   C106      1.0  0.01693  0.51842  0.93763  1.0000
  C   C107      1.0  0.28159  0.44112  0.10392999999999998  1.0000
  C   C108      1.0  0.32379  0.37659  0.09303  1.0000
  C   C109      1.0  0.37681999999999993  0.36383  0.03539  1.0000
  C   C110      1.0  0.3865  0.41543  0.9898399999999999  1.0000
  C   C111      1.0  0.34445  0.48011  0.0016299999999999997  1.0000
  C   C112      1.0  0.29415  0.49391  0.0587  1.0000
  C   C113      1.0  0.30571  0.59162  0.96027  1.0000
  C   C114      1.0  0.30816  0.62483  0.89671  1.0000
  C   C115      1.0  0.21856999999999996  0.61395  0.79669  1.0000
  C   C116      1.0  0.11523  0.57625  0.76313  1.0000
  C   C117      1.0  0.90628  0.5744699999999999  0.75929  1.0000
  C   C118      1.0  0.19617  0.40489  0.20265  1.0000
  C   C119      1.0  0.4267099999999999  0.29728  0.02366  1.0000
  C   C120      1.0  0.46112  0.25539  0.07263  1.0000
  C   C121      1.0  0.51549  0.19562  0.06025  1.0000
  C   C122      1.0  0.50473  0.21419  0.95417  1.0000
  C   C123      1.0  0.44789  0.27389  0.9630699999999999  1.0000
  C   C124      1.0  0.18065999999999996  0.38155  0.43054  1.0000
  C   C125      1.0  0.05065999999999998  0.38020999999999994  0.41902  1.0000
  C   C126      1.0  0.9888399999999998  0.31917  0.3967899999999999  1.0000
  C   C127      1.0  0.8662499999999999  0.31534  0.38788  1.0000
  C   C128      1.0  0.8067799999999999  0.37416  0.40193999999999996  1.0000
  C   C129      1.0  0.8683499999999997  0.43534  0.42358  1.0000
  C   C130      1.0  0.99003  0.43850999999999996  0.43213  1.0000
  C   C131      1.0  0.80268  0.25206  0.36131  1.0000
  C   C132      1.0  0.82849  0.18411  0.37744999999999995  1.0000
  C   C133      1.0  0.77115  0.1251  0.34633  1.0000
  C   C134      1.0  0.68522  0.12994  0.30025  1.0000
  C   C135      1.0  0.65828  0.19779  0.28647999999999996  1.0000
  C   C136      1.0  0.71461  0.25646  0.31627  1.0000
  C   C137      1.0  0.62549  0.06811  0.26914  1.0000
  C   C138      1.0  0.5711199999999999  0.01261  0.30418  1.0000
  C   C139      1.0  0.51076  0.9556  0.2747  1.0000
  C   C140      1.0  0.50382  0.95239  0.2101  1.0000
  C   C141      1.0  0.55928  0.00679  0.1745  1.0000
  C   C142      1.0  0.61987  0.06405999999999999  0.20412  1.0000
  C   C143      1.0  0.55062  0.00408  0.10515999999999998  1.0000
  C   C144      1.0  0.8965199999999998  0.09369  0.41783999999999993  1.0000
  C   C145      1.0  0.9534099999999998  0.046669999999999996  0.45868  1.0000
  C   C146      1.0  0.9715699999999998  0.06473  0.52138  1.0000
  C   C147      1.0  0.9830900000000001  0.9816  0.43763  1.0000
  C   C148      1.0  0.71843  0.05889  0.60395  1.0000
  C   C149      1.0  0.67625  0.12342999999999998  0.59305  1.0000
  C   C150      1.0  0.6232  0.13618999999999998  0.53541  1.0000
  C   C151      1.0  0.61352  0.08459  0.48987  1.0000
  C   C152      1.0  0.65558  0.01991  0.50166  1.0000
  C   C153      1.0  0.70587  0.0061  0.55873  1.0000
  C   C154      1.0  0.69437  0.9084299999999998  0.46026999999999996  1.0000
  C   C155      1.0  0.69191  0.87524  0.39670999999999995  1.0000
  C   C156      1.0  0.78145  0.88616  0.29668  1.0000
  C   C157      1.0  0.8848399999999997  0.92382  0.26315  1.0000
  C   C158      1.0  0.09369999999999998  0.9255499999999999  0.25931  1.0000
  C   C159      1.0  0.80383  0.09509999999999999  0.70267  1.0000
  C   C160      1.0  0.5733  0.20272  0.52367  1.0000
  C   C161      1.0  0.53885  0.24461  0.57263  1.0000
  C   C162      1.0  0.48447  0.30438  0.56024  1.0000
  C   C163      1.0  0.49526  0.28579  0.45416  1.0000
  C   C164      1.0  0.5521199999999999  0.22609999999999997  0.46307  1.0000
  N   N1        1.0  0.90464  0.6627  0.07793  1.0000
  N   N2        1.0  0.8194599999999999  0.56855  0.12836  1.0000
  N   N3        1.0  0.46121999999999996  0.82473  0.9981  1.0000
  N   N4        1.0  0.09535  0.83729  0.57793  1.0000
  N   N5        1.0  0.18052  0.9314399999999999  0.62837  1.0000
  N   N6        1.0  0.53882  0.67529  0.49812  1.0000
  N   N7        1.0  0.09535999999999999  0.3373  0.92207  1.0000
  N   N8        1.0  0.18053999999999998  0.43145  0.8716399999999999  1.0000
  N   N9        1.0  0.53879  0.17527  0.0018999999999999998  1.0000
  N   N10       1.0  0.9046499999999997  0.16271  0.42207  1.0000
  N   N11       1.0  0.81949  0.06856  0.37163  1.0000
  N   N12       1.0  0.46117999999999987  0.32470999999999994  0.50188  1.0000
  O   O1        1.0  0.22354999999999994  0.93042  0.031089999999999996  1.0000
  O   O2        1.0  0.24084  0.83803  0.09376999999999999  1.0000
  O   O3        1.0  0.60017  0.5556  0.42483  1.0000
  O   O4        1.0  0.49491  0.45033999999999996  0.41857  1.0000
  O   O5        1.0  0.64472  0.47386  0.04671  1.0000
  O   O6        1.0  0.77055  0.4168  0.14306  1.0000
  O   O7        1.0  0.9895099999999999  0.41002  0.20429  1.0000
  O   O8        1.0  0.77649  0.54181  0.8435999999999999  1.0000
  O   O9        1.0  0.77636  0.56955  0.53124  1.0000
  O   O10       1.0  0.7592399999999999  0.66209  0.5937799999999999  1.0000
  O   O11       1.0  0.39985  0.94437  0.92481  1.0000
  O   O12       1.0  0.50502  0.04963  0.9186  1.0000
  O   O13       1.0  0.35523999999999994  0.026100000000000005  0.5467  1.0000
  O   O14       1.0  0.22941999999999999  0.08313  0.64307  1.0000
  O   O15       1.0  0.01049  0.09  0.70427  1.0000
  O   O16       1.0  0.22353  0.95821  0.34358  1.0000
  O   O17       1.0  0.77645  0.06959  0.96891  1.0000
  O   O18       1.0  0.75917  0.16197  0.9062299999999999  1.0000
  O   O19       1.0  0.39983  0.44440999999999997  0.57517  1.0000
  O   O20       1.0  0.50509  0.54967  0.58143  1.0000
  O   O21       1.0  0.3552899999999999  0.52615  0.9532899999999999  1.0000
  O   O22       1.0  0.22945999999999997  0.58321  0.85694  1.0000
  O   O23       1.0  0.010499999999999995  0.58999  0.7957099999999999  1.0000
  O   O24       1.0  0.22350999999999996  0.4582  0.1564  1.0000
  O   O25       1.0  0.22365  0.43046  0.46876  1.0000
  O   O26       1.0  0.24077  0.33792  0.40622  1.0000
  O   O27       1.0  0.60015  0.055639999999999995  0.07519  1.0000
  O   O28       1.0  0.49498  0.95037  0.0814  1.0000
  O   O29       1.0  0.64476  0.97391  0.4533  1.0000
  O   O30       1.0  0.7705799999999999  0.91687  0.35693  1.0000
  O   O31       1.0  0.9895099999999999  0.91001  0.29573  1.0000
  O   O32       1.0  0.77647  0.0418  0.6564299999999998  1.0000
