data_image0
_chemical_formula_structural       Cd8H64C120O32
_chemical_formula_sum              "Cd8 H64 C120 O32"
_cell_length_a       10.85919
_cell_length_b       17.53541
_cell_length_c       26.311159999999997
_cell_angle_alpha    90.2412
_cell_angle_beta     94.50497
_cell_angle_gamma    89.64806

_space_group_name_H-M_alt    "P 1"
_space_group_IT_number       1

loop_
  _space_group_symop_operation_xyz
  'x, y, z'

loop_
  _atom_site_type_symbol
  _atom_site_label
  _atom_site_symmetry_multiplicity
  _atom_site_fract_x
  _atom_site_fract_y
  _atom_site_fract_z
  _atom_site_occupancy
  Cd  Cd1       1.0  0.89245  0.05915000000000001  0.95732  1.0000
  Cd  Cd2       1.0  0.80973  0.25391  0.9642400000000001  1.0000
  Cd  Cd3       1.0  0.10987  0.55693  0.54219  1.0000
  Cd  Cd4       1.0  0.18834  0.75267  0.53574  1.0000
  Cd  Cd5       1.0  0.10754  0.9408499999999999  0.04268  1.0000
  Cd  Cd6       1.0  0.19026  0.74609  0.03577  1.0000
  Cd  Cd7       1.0  0.89012  0.44307  0.4578100000000001  1.0000
  Cd  Cd8       1.0  0.81165  0.24733000000000002  0.4642600000000001  1.0000
  H   H1        1.0  0.2527499999999999  0.09393  0.7766000000000001  1.0000
  H   H2        1.0  0.13801  0.09044  0.85481  1.0000
  H   H3        1.0  0.0068300000000000175  0.31861  0.8258500000000001  1.0000
  H   H4        1.0  0.12113999999999998  0.32278  0.74737  1.0000
  H   H5        1.0  0.30825  0.14313  0.61372  1.0000
  H   H6        1.0  0.42698  0.14473  0.53675  1.0000
  H   H7        1.0  0.7454099999999998  0.22684  0.62718  1.0000
  H   H8        1.0  0.62592  0.22943999999999998  0.7036700000000001  1.0000
  H   H9        1.0  0.41219999999999996  0.26436  0.80308  1.0000
  H   H10       1.0  0.5441899999999998  0.22678  0.8807700000000002  1.0000
  H   H11       1.0  0.66613  0.02776  0.80263  1.0000
  H   H12       1.0  0.5354799999999998  0.06574  0.72439  1.0000
  H   H13       1.0  0.04187000000000001  0.18063  0.66701  1.0000
  H   H14       1.0  0.9278799999999999  0.24632999999999997  0.59372  1.0000
  H   H15       1.0  0.22974  0.40408  0.58757  1.0000
  H   H16       1.0  0.34685000000000005  0.33424  0.65717  1.0000
  H   H17       1.0  0.74782  0.59428  0.72393  1.0000
  H   H18       1.0  0.8617599999999997  0.58961  0.64535  1.0000
  H   H19       1.0  0.98612  0.81898  0.67288  1.0000
  H   H20       1.0  0.8734  0.82413  0.75196  1.0000
  H   H21       1.0  0.6939000000000001  0.6425  0.8851600000000001  1.0000
  H   H22       1.0  0.5753599999999999  0.64246  0.96249  1.0000
  H   H23       1.0  0.25461  0.7254900000000001  0.87356  1.0000
  H   H24       1.0  0.37339  0.7296  0.79682  1.0000
  H   H25       1.0  0.5833399999999999  0.76379  0.6961700000000002  1.0000
  H   H26       1.0  0.451  0.72461  0.61899  1.0000
  H   H27       1.0  0.33566000000000007  0.5265  0.6979000000000001  1.0000
  H   H28       1.0  0.46676  0.5659  0.77559  1.0000
  H   H29       1.0  0.9575599999999999  0.68148  0.83174  1.0000
  H   H30       1.0  0.07176000000000003  0.74667  0.9054800000000001  1.0000
  H   H31       1.0  0.7674499999999999  0.90372  0.9141900000000002  1.0000
  H   H32       1.0  0.64951  0.83437  0.8443  1.0000
  H   H33       1.0  0.7472299999999998  0.90607  0.2234  1.0000
  H   H34       1.0  0.86198  0.90957  0.14519  1.0000
  H   H35       1.0  0.99315  0.68139  0.17415000000000005  1.0000
  H   H36       1.0  0.87885  0.67722  0.25263  1.0000
  H   H37       1.0  0.69174  0.85687  0.38628  1.0000
  H   H38       1.0  0.57301  0.85527  0.46325  1.0000
  H   H39       1.0  0.25457  0.77317  0.37282000000000004  1.0000
  H   H40       1.0  0.37407  0.77056  0.29633  1.0000
  H   H41       1.0  0.5877899999999999  0.73564  0.19692  1.0000
  H   H42       1.0  0.4558  0.77322  0.11923  1.0000
  H   H43       1.0  0.33386  0.97224  0.19738  1.0000
  H   H44       1.0  0.46450999999999987  0.93426  0.27561  1.0000
  H   H45       1.0  0.95812  0.81937  0.33299  1.0000
  H   H46       1.0  0.0721  0.75367  0.40628  1.0000
  H   H47       1.0  0.77024  0.59592  0.41243  1.0000
  H   H48       1.0  0.65314  0.66576  0.3428300000000001  1.0000
  H   H49       1.0  0.25216  0.4057200000000001  0.27607  1.0000
  H   H50       1.0  0.13822999999999996  0.41039  0.35465  1.0000
  H   H51       1.0  0.01387  0.18102  0.32712  1.0000
  H   H52       1.0  0.12658  0.17587  0.24804  1.0000
  H   H53       1.0  0.30609  0.3575  0.11484  1.0000
  H   H54       1.0  0.42463  0.35754  0.03751  1.0000
  H   H55       1.0  0.74538  0.27451  0.12644  1.0000
  H   H56       1.0  0.6266  0.2704  0.20318  1.0000
  H   H57       1.0  0.41665  0.23621  0.30383000000000004  1.0000
  H   H58       1.0  0.54899  0.27539  0.38101  1.0000
  H   H59       1.0  0.6643299999999999  0.47351  0.3021  1.0000
  H   H60       1.0  0.5332299999999999  0.4341  0.22441  1.0000
  H   H61       1.0  0.04242999999999999  0.31852  0.16827  1.0000
  H   H62       1.0  0.92823  0.25333  0.09452000000000003  1.0000
  H   H63       1.0  0.23253999999999997  0.09628  0.08581  1.0000
  H   H64       1.0  0.35047  0.16564  0.1557  1.0000
  C   C1        1.0  0.38952999999999993  0.19035  0.7110700000000001  1.0000
  C   C2        1.0  0.26916999999999996  0.21484  0.7114000000000001  1.0000
  C   C3        1.0  0.19766999999999998  0.20938  0.75703  1.0000
  C   C4        1.0  0.19978  0.14337  0.78741  1.0000
  C   C5        1.0  0.13578  0.14117  0.83114  1.0000
  C   C6        1.0  0.06690999999999998  0.20467  0.84558  1.0000
  C   C7        1.0  0.06123000000000004  0.26991  0.8147900000000002  1.0000
  C   C8        1.0  0.12521  0.27194  0.77098  1.0000
  C   C9        1.0  0.45746999999999993  0.18773  0.66427  1.0000
  C   C10       1.0  0.40346999999999994  0.1625  0.61671  1.0000
  C   C11       1.0  0.47019  0.16258  0.57353  1.0000
  C   C12       1.0  0.5941799999999999  0.18565  0.57699  1.0000
  C   C13       1.0  0.64973  0.20855  0.6245400000000001  1.0000
  C   C14       1.0  0.5822799999999999  0.21011  0.66733  1.0000
  C   C15       1.0  0.4634199999999999  0.16715  0.75853  1.0000
  C   C16       1.0  0.4673099999999999  0.21239  0.8030000000000003  1.0000
  C   C17       1.0  0.54117  0.19163  0.8464800000000002  1.0000
  C   C18       1.0  0.61318  0.12483  0.8463500000000002  1.0000
  C   C19       1.0  0.60954  0.07915  0.80223  1.0000
  C   C20       1.0  0.53636  0.10043  0.75881  1.0000
  C   C21       1.0  0.20266999999999996  0.2527  0.66687  1.0000
  C   C22       1.0  0.08322000000000004  0.22899  0.6490800000000002  1.0000
  C   C23       1.0  0.018409999999999996  0.26624  0.60867  1.0000
  C   C24       1.0  0.07011999999999999  0.33014  0.58637  1.0000
  C   C25       1.0  0.189  0.3545  0.60415  1.0000
  C   C26       1.0  0.25466  0.31563  0.64358  1.0000
  C   C27       1.0  0.9979199999999999  0.37114  0.54499  1.0000
  C   C28       1.0  0.6975800000000001  0.10372  0.8912100000000002  1.0000
  C   C29       1.0  0.99915  0.20103  0.8927600000000001  1.0000
  C   C30       1.0  0.66657  0.19188  0.53119  1.0000
  C   C31       1.0  0.60961  0.69064  0.78851  1.0000
  C   C32       1.0  0.7290999999999999  0.71573  0.78835  1.0000
  C   C33       1.0  0.8000199999999997  0.71029  0.74263  1.0000
  C   C34       1.0  0.7991799999999999  0.64363  0.71262  1.0000
  C   C35       1.0  0.8625099999999998  0.64082  0.66878  1.0000
  C   C36       1.0  0.92898  0.70438  0.6538700000000002  1.0000
  C   C37       1.0  0.9333199999999999  0.77032  0.68431  1.0000
  C   C38       1.0  0.8703099999999998  0.77293  0.7284  1.0000
  C   C39       1.0  0.5426399999999998  0.68722  0.83545  1.0000
  C   C40       1.0  0.59809  0.66139  0.8825500000000001  1.0000
  C   C41       1.0  0.5319600000000001  0.66067  0.9258500000000001  1.0000
  C   C42       1.0  0.4076199999999999  0.68365  0.92281  1.0000
  C   C43       1.0  0.35065999999999997  0.70726  0.87574  1.0000
  C   C44       1.0  0.41746000000000005  0.70951  0.8328500000000001  1.0000
  C   C45       1.0  0.5356999999999998  0.66696  0.74112  1.0000
  C   C46       1.0  0.52978  0.7116600000000001  0.69659  1.0000
  C   C47       1.0  0.4556  0.69008  0.65341  1.0000
  C   C48       1.0  0.38549  0.6231  0.65389  1.0000
  C   C49       1.0  0.3909600000000001  0.578  0.69802  1.0000
  C   C50       1.0  0.46443999999999996  0.6001  0.7411300000000002  1.0000
  C   C51       1.0  0.7953699999999999  0.75329  0.83309  1.0000
  C   C52       1.0  0.9156699999999999  0.72961  0.8503  1.0000
  C   C53       1.0  0.9805899999999999  0.76652  0.89085  1.0000
  C   C54       1.0  0.9279899999999999  0.83026  0.91372  1.0000
  C   C55       1.0  0.8082299999999999  0.8544100000000001  0.8967  1.0000
  C   C56       1.0  0.74238  0.81579  0.85723  1.0000
  C   C57       1.0  0.9992399999999998  0.8715300000000001  0.95512  1.0000
  C   C58       1.0  0.30162  0.60094  0.60925  1.0000
  C   C59       1.0  0.9967000000000001  0.699  0.6067  1.0000
  C   C60       1.0  0.3372599999999999  0.68987  0.96904  1.0000
  C   C61       1.0  0.61046  0.80965  0.28893  1.0000
  C   C62       1.0  0.73082  0.78516  0.2886  1.0000
  C   C63       1.0  0.80232  0.79062  0.24297  1.0000
  C   C64       1.0  0.80021  0.85663  0.21259  1.0000
  C   C65       1.0  0.86421  0.85883  0.16886  1.0000
  C   C66       1.0  0.93308  0.79534  0.15442  1.0000
  C   C67       1.0  0.93875  0.73009  0.18522000000000005  1.0000
  C   C68       1.0  0.8747799999999999  0.72807  0.22902  1.0000
  C   C69       1.0  0.54252  0.81227  0.33573  1.0000
  C   C70       1.0  0.59651  0.8375  0.38329  1.0000
  C   C71       1.0  0.5298  0.83743  0.42647  1.0000
  C   C72       1.0  0.40580999999999995  0.81435  0.42301000000000005  1.0000
  C   C73       1.0  0.35026  0.79145  0.37546  1.0000
  C   C74       1.0  0.41770999999999997  0.78989  0.33267000000000013  1.0000
  C   C75       1.0  0.53657  0.83285  0.24147  1.0000
  C   C76       1.0  0.53268  0.78762  0.19700000000000006  1.0000
  C   C77       1.0  0.4588199999999999  0.80837  0.15352000000000005  1.0000
  C   C78       1.0  0.38680999999999993  0.87517  0.15365  1.0000
  C   C79       1.0  0.3904499999999999  0.9208500000000001  0.19777000000000003  1.0000
  C   C80       1.0  0.46363000000000004  0.89958  0.24119  1.0000
  C   C81       1.0  0.7973199999999998  0.7473  0.33313000000000004  1.0000
  C   C82       1.0  0.9167599999999998  0.77101  0.35092000000000007  1.0000
  C   C83       1.0  0.98158  0.73376  0.39133  1.0000
  C   C84       1.0  0.9298699999999999  0.66986  0.4136300000000001  1.0000
  C   C85       1.0  0.81099  0.64551  0.39586  1.0000
  C   C86       1.0  0.74532  0.68437  0.35642  1.0000
  C   C87       1.0  0.002070000000000001  0.62886  0.45501  1.0000
  C   C88       1.0  0.30241  0.89628  0.10879  1.0000
  C   C89       1.0  0.0008400000000000046  0.79897  0.10724000000000003  1.0000
  C   C90       1.0  0.33342  0.8081200000000001  0.46881000000000006  1.0000
  C   C91       1.0  0.39038  0.30936  0.21149  1.0000
  C   C92       1.0  0.27088999999999996  0.28427  0.21165000000000003  1.0000
  C   C93       1.0  0.19997  0.28971  0.25737  1.0000
  C   C94       1.0  0.2008  0.35637  0.28738  1.0000
  C   C95       1.0  0.13747999999999996  0.35918  0.33122  1.0000
  C   C96       1.0  0.07099999999999998  0.29563  0.34614000000000006  1.0000
  C   C97       1.0  0.06667  0.22968  0.31569  1.0000
  C   C98       1.0  0.12968  0.22707  0.27161  1.0000
  C   C99       1.0  0.45735  0.31279  0.16456000000000007  1.0000
  C   C100      1.0  0.4018999999999999  0.33862  0.11745000000000001  1.0000
  C   C101      1.0  0.46802999999999995  0.33933  0.07416  1.0000
  C   C102      1.0  0.59237  0.31635  0.07719  1.0000
  C   C103      1.0  0.64933  0.29274000000000006  0.12426  1.0000
  C   C104      1.0  0.5825199999999999  0.29049  0.16715000000000005  1.0000
  C   C105      1.0  0.46428999999999987  0.33304  0.25888  1.0000
  C   C106      1.0  0.47021  0.28834  0.30341  1.0000
  C   C107      1.0  0.5443899999999998  0.30992  0.34659  1.0000
  C   C108      1.0  0.6145  0.37691  0.34611  1.0000
  C   C109      1.0  0.60903  0.422  0.30198  1.0000
  C   C110      1.0  0.53555  0.3999  0.25887  1.0000
  C   C111      1.0  0.20461999999999997  0.24670999999999998  0.16691  1.0000
  C   C112      1.0  0.08432  0.2704  0.1497  1.0000
  C   C113      1.0  0.0194  0.23347999999999997  0.10915  1.0000
  C   C114      1.0  0.07199999999999998  0.16974  0.08628  1.0000
  C   C115      1.0  0.19176  0.14559  0.1033  1.0000
  C   C116      1.0  0.25760999999999995  0.18421  0.14277  1.0000
  C   C117      1.0  0.0007500000000000004  0.12847  0.04488  1.0000
  C   C118      1.0  0.69837  0.39906  0.39075  1.0000
  C   C119      1.0  0.0032899999999999995  0.30100000000000005  0.3933  1.0000
  C   C120      1.0  0.66273  0.31013  0.03096  1.0000
  O   O1        1.0  0.70878  0.14676  0.93086  1.0000
  O   O2        1.0  0.76  0.04144  0.8890000000000001  1.0000
  O   O3        1.0  0.017270000000000018  0.14329000000000003  0.9213400000000002  1.0000
  O   O4        1.0  0.9273999999999999  0.25798  0.9012200000000002  1.0000
  O   O5        1.0  0.7857299999999999  0.18953  0.53839  1.0000
  O   O6        1.0  0.6124399999999999  0.20461  0.48735000000000006  1.0000
  O   O7        1.0  0.037409999999999985  0.43509  0.52782  1.0000
  O   O8        1.0  0.8959699999999998  0.34494  0.52508  1.0000
  O   O9        1.0  0.2875  0.6441  0.5699300000000002  1.0000
  O   O10       1.0  0.24243999999999993  0.53791  0.61098  1.0000
  O   O11       1.0  0.98415  0.63811  0.58067  1.0000
  O   O12       1.0  0.06226999999999997  0.75724  0.5961  1.0000
  O   O13       1.0  0.21772  0.6896  0.962  1.0000
  O   O14       1.0  0.39276999999999995  0.70078  0.0127  1.0000
  O   O15       1.0  0.9574299999999997  0.93528  0.9724900000000001  1.0000
  O   O16       1.0  0.10208999999999999  0.84551  0.97486  1.0000
  O   O17       1.0  0.29121  0.85324  0.06914  1.0000
  O   O18       1.0  0.23998999999999998  0.9585599999999999  0.11100000000000003  1.0000
  O   O19       1.0  0.9827199999999998  0.85671  0.07867000000000002  1.0000
  O   O20       1.0  0.07259  0.74202  0.09879  1.0000
  O   O21       1.0  0.21426  0.81047  0.4616100000000001  1.0000
  O   O22       1.0  0.38755  0.79539  0.51265  1.0000
  O   O23       1.0  0.96257  0.56491  0.47218  1.0000
  O   O24       1.0  0.10401999999999999  0.65506  0.47492000000000006  1.0000
  O   O25       1.0  0.71249  0.3559  0.43007  1.0000
  O   O26       1.0  0.75755  0.46209  0.38902  1.0000
  O   O27       1.0  0.015829999999999997  0.3619  0.41933  1.0000
  O   O28       1.0  0.93772  0.24276000000000003  0.4039  1.0000
  O   O29       1.0  0.7822599999999998  0.3104  0.038  1.0000
  O   O30       1.0  0.6072200000000001  0.29922  0.9873000000000002  1.0000
  O   O31       1.0  0.04256  0.06472  0.027510000000000007  1.0000
  O   O32       1.0  0.8978899999999999  0.15449  0.025140000000000006  1.0000
