data_image0
_chemical_formula_structural       Zn12H96C120O60
_chemical_formula_sum              "Zn12 H96 C120 O60"
_cell_length_a       17.0042
_cell_length_b       17.00648
_cell_length_c       17.00607
_cell_angle_alpha    107.99725
_cell_angle_beta     107.98015
_cell_angle_gamma    107.98017

_space_group_name_H-M_alt    "P 1"
_space_group_IT_number       1

loop_
  _space_group_symop_operation_xyz
  'x, y, z'

loop_
  _atom_site_type_symbol
  _atom_site_label
  _atom_site_symmetry_multiplicity
  _atom_site_fract_x
  _atom_site_fract_y
  _atom_site_fract_z
  _atom_site_occupancy
  Zn  Zn1       1.0  0.71572  0.38474999999999987  0.05531  1.0000
  Zn  Zn2       1.0  0.7221300000000004  0.15510000000000002  0.3688700000000001  1.0000
  Zn  Zn3       1.0  0.05537  0.71605  0.38482  1.0000
  Zn  Zn4       1.0  0.36888000000000004  0.7221300000000002  0.15508000000000005  1.0000
  Zn  Zn5       1.0  0.3848200000000001  0.055360000000000104  0.7160600000000003  1.0000
  Zn  Zn6       1.0  0.15509000000000006  0.36887  0.7221300000000003  1.0000
  Zn  Zn7       1.0  0.28428  0.6152499999999999  0.9446900000000003  1.0000
  Zn  Zn8       1.0  0.2778700000000001  0.8449  0.63113  1.0000
  Zn  Zn9       1.0  0.9446300000000001  0.2839600000000001  0.6151800000000002  1.0000
  Zn  Zn10      1.0  0.63112  0.27787  0.84492  1.0000
  Zn  Zn11      1.0  0.61518  0.94464  0.2839500000000001  1.0000
  Zn  Zn12      1.0  0.8449100000000002  0.63114  0.27788000000000007  1.0000
  H   H1        1.0  0.8292400000000002  0.43301000000000006  0.3968300000000001  1.0000
  H   H2        1.0  0.03184000000000012  0.6995600000000001  0.6186200000000002  1.0000
  H   H3        1.0  0.94592  0.46518  0.67588  1.0000
  H   H4        1.0  0.046240000000000024  0.7658699999999999  0.7550100000000002  1.0000
  H   H5        1.0  0.14904999999999985  0.7543799999999998  0.76525  1.0000
  H   H6        1.0  0.07591000000000013  0.7768  0.9122200000000003  1.0000
  H   H7        1.0  0.17393999999999993  0.8615799999999998  0.91856  1.0000
  H   H8        1.0  0.17575000000000007  0.75908  0.9229500000000003  1.0000
  H   H9        1.0  0.65461  0.16693  0.11823  1.0000
  H   H10       1.0  0.5614800000000001  0.008060000000000105  0.8270100000000002  1.0000
  H   H11       1.0  0.5789100000000001  0.8761299999999997  0.00803  1.0000
  H   H12       1.0  0.45419000000000004  0.76867  0.8715  1.0000
  H   H13       1.0  0.55452  0.75643  0.8721800000000002  1.0000
  H   H14       1.0  0.3790599999999999  0.6989699999999998  0.69798  1.0000
  H   H15       1.0  0.41037  0.62206  0.73633  1.0000
  H   H16       1.0  0.47908  0.6866  0.69682  1.0000
  H   H17       1.0  0.39683999999999997  0.8292099999999998  0.43294  1.0000
  H   H18       1.0  0.6186000000000001  0.03186000000000004  0.6995000000000001  1.0000
  H   H19       1.0  0.67592  0.9458999999999997  0.46512000000000003  1.0000
  H   H20       1.0  0.7549800000000001  0.046220000000000115  0.7658100000000002  1.0000
  H   H21       1.0  0.7652300000000001  0.14904999999999993  0.75436  1.0000
  H   H22       1.0  0.91219  0.0759  0.77673  1.0000
  H   H23       1.0  0.9185300000000002  0.17392000000000007  0.8615400000000002  1.0000
  H   H24       1.0  0.92294  0.17575  0.75905  1.0000
  H   H25       1.0  0.11823000000000002  0.6546  0.16693  1.0000
  H   H26       1.0  0.8270300000000002  0.56153  0.00808  1.0000
  H   H27       1.0  0.008029999999999907  0.5789199999999998  0.8761  1.0000
  H   H28       1.0  0.8715099999999999  0.4541999999999999  0.76864  1.0000
  H   H29       1.0  0.8721800000000001  0.5545200000000001  0.7564000000000002  1.0000
  H   H30       1.0  0.6979900000000001  0.3790600000000001  0.6989500000000002  1.0000
  H   H31       1.0  0.73632  0.41036  0.62203  1.0000
  H   H32       1.0  0.69683  0.47907000000000005  0.68659  1.0000
  H   H33       1.0  0.43303  0.3968399999999999  0.82935  1.0000
  H   H34       1.0  0.6995499999999999  0.6186899999999997  0.03193  1.0000
  H   H35       1.0  0.46514  0.6759199999999997  0.9458700000000002  1.0000
  H   H36       1.0  0.76584  0.75502  0.04625000000000001  1.0000
  H   H37       1.0  0.75438  0.76531  0.1491  1.0000
  H   H38       1.0  0.77674  0.91222  0.07590000000000001  1.0000
  H   H39       1.0  0.86155  0.9185900000000001  0.17393  1.0000
  H   H40       1.0  0.75904  0.923  0.17575000000000005  1.0000
  H   H41       1.0  0.1669300000000001  0.11818000000000016  0.6545900000000002  1.0000
  H   H42       1.0  0.0080400000000001  0.82699  0.56151  1.0000
  H   H43       1.0  0.8761  0.008030000000000025  0.57891  1.0000
  H   H44       1.0  0.7686200000000001  0.8714599999999999  0.4541600000000001  1.0000
  H   H45       1.0  0.7563800000000002  0.87218  0.5545  1.0000
  H   H46       1.0  0.69892  0.69794  0.37904  1.0000
  H   H47       1.0  0.6220099999999998  0.7363099999999999  0.41036  1.0000
  H   H48       1.0  0.6865699999999999  0.6968199999999998  0.47907  1.0000
  H   H49       1.0  0.17076  0.56699  0.60317  1.0000
  H   H50       1.0  0.9681600000000001  0.30045  0.38138000000000005  1.0000
  H   H51       1.0  0.05407999999999999  0.53483  0.32412  1.0000
  H   H52       1.0  0.9537600000000002  0.23414000000000001  0.24500000000000005  1.0000
  H   H53       1.0  0.85095  0.24562000000000003  0.23475000000000004  1.0000
  H   H54       1.0  0.92409  0.22321  0.08778000000000002  1.0000
  H   H55       1.0  0.82606  0.13842  0.08145000000000001  1.0000
  H   H56       1.0  0.82425  0.24092000000000002  0.07705000000000001  1.0000
  H   H57       1.0  0.34539000000000003  0.8330700000000001  0.8817800000000001  1.0000
  H   H58       1.0  0.4385200000000001  0.99194  0.17299000000000006  1.0000
  H   H59       1.0  0.42109000000000013  0.12387000000000006  0.9919700000000002  1.0000
  H   H60       1.0  0.5458100000000002  0.23133  0.12851  1.0000
  H   H61       1.0  0.44548000000000004  0.24356999999999998  0.12783000000000003  1.0000
  H   H62       1.0  0.6209400000000002  0.30103  0.30203  1.0000
  H   H63       1.0  0.58963  0.37794  0.26368  1.0000
  H   H64       1.0  0.52092  0.3134  0.30318  1.0000
  H   H65       1.0  0.6031500000000002  0.1708000000000001  0.5670700000000002  1.0000
  H   H66       1.0  0.3814000000000001  0.9681400000000001  0.3005  1.0000
  H   H67       1.0  0.3240799999999999  0.054099999999999954  0.53488  1.0000
  H   H68       1.0  0.24502000000000007  0.9537800000000001  0.23419  1.0000
  H   H69       1.0  0.23477  0.85095  0.24564000000000005  1.0000
  H   H70       1.0  0.08780999999999993  0.9240999999999998  0.22328  1.0000
  H   H71       1.0  0.08146999999999996  0.82608  0.13846  1.0000
  H   H72       1.0  0.0770599999999999  0.8242499999999998  0.24096  1.0000
  H   H73       1.0  0.8817700000000003  0.3454000000000001  0.8330800000000003  1.0000
  H   H74       1.0  0.17297000000000015  0.43847000000000014  0.9919300000000002  1.0000
  H   H75       1.0  0.99197  0.4210899999999999  0.12390000000000002  1.0000
  H   H76       1.0  0.12849000000000005  0.5458  0.23136  1.0000
  H   H77       1.0  0.12782000000000004  0.44548000000000004  0.24360000000000007  1.0000
  H   H78       1.0  0.30201  0.62095  0.30105  1.0000
  H   H79       1.0  0.26368  0.58964  0.37798  1.0000
  H   H80       1.0  0.30317  0.52093  0.31341  1.0000
  H   H81       1.0  0.56697  0.6031599999999998  0.17065000000000005  1.0000
  H   H82       1.0  0.3004500000000001  0.3813200000000001  0.9680700000000002  1.0000
  H   H83       1.0  0.53486  0.32408  0.05413  1.0000
  H   H84       1.0  0.23416000000000012  0.24498000000000011  0.9537500000000002  1.0000
  H   H85       1.0  0.24562000000000017  0.23469000000000018  0.8509100000000003  1.0000
  H   H86       1.0  0.22326000000000004  0.08778000000000008  0.9241000000000003  1.0000
  H   H87       1.0  0.13845000000000005  0.08141000000000005  0.8260700000000001  1.0000
  H   H88       1.0  0.24095999999999992  0.077  0.82425  1.0000
  H   H89       1.0  0.8330699999999999  0.88182  0.3454100000000001  1.0000
  H   H90       1.0  0.9919600000000001  0.17301  0.43849  1.0000
  H   H91       1.0  0.12390000000000001  0.99197  0.42109000000000013  1.0000
  H   H92       1.0  0.23138  0.12854  0.54585  1.0000
  H   H93       1.0  0.2436200000000001  0.12783000000000005  0.4455000000000001  1.0000
  H   H94       1.0  0.30108  0.30206  0.62097  1.0000
  H   H95       1.0  0.3779900000000001  0.2637000000000001  0.5896400000000003  1.0000
  H   H96       1.0  0.31343000000000004  0.30318000000000006  0.5209300000000001  1.0000
  C   C1        1.0  0.82945  0.33648  0.49646  1.0000
  C   C2        1.0  0.88211  0.4382899999999999  0.53279  1.0000
  C   C3        1.0  0.8745900000000001  0.47644  0.47005  1.0000
  C   C4        1.0  0.9291600000000001  0.57036  0.5026100000000001  1.0000
  C   C5        1.0  0.9291  0.61061  0.43652  1.0000
  C   C6        1.0  0.9887399999999998  0.62741  0.59692  1.0000
  C   C7        1.0  0.99201  0.5902699999999997  0.66  1.0000
  C   C8        1.0  0.9402699999999999  0.49474999999999997  0.62724  1.0000
  C   C9        1.0  0.09370000000000012  0.74101  0.7870700000000002  1.0000
  C   C10       1.0  0.13180000000000003  0.7869799999999998  0.8913900000000001  1.0000
  C   C11       1.0  0.63508  0.02642000000000002  0.16478000000000007  1.0000
  C   C12       1.0  0.61891  0.021870000000000007  0.07167  1.0000
  C   C13       1.0  0.6312  0.10177  0.0598  1.0000
  C   C14       1.0  0.61142  0.09665000000000011  0.9715800000000002  1.0000
  C   C15       1.0  0.6216000000000002  0.18072000000000005  0.9576000000000002  1.0000
  C   C16       1.0  0.5798200000000002  0.012430000000000066  0.8959300000000002  1.0000
  C   C17       1.0  0.5666199999999999  0.9320099999999999  0.90776  1.0000
  C   C18       1.0  0.58744  0.9367999999999997  0.99616  1.0000
  C   C19       1.0  0.4958699999999999  0.7656499999999999  0.8334400000000002  1.0000
  C   C20       1.0  0.43785  0.68911  0.7352  1.0000
  C   C21       1.0  0.49644000000000005  0.82944  0.33643  1.0000
  C   C22       1.0  0.5328  0.8821  0.4382300000000001  1.0000
  C   C23       1.0  0.47005999999999987  0.8745699999999997  0.47639  1.0000
  C   C24       1.0  0.5026100000000002  0.9291500000000001  0.5703200000000003  1.0000
  C   C25       1.0  0.43654000000000004  0.9291100000000001  0.61059  1.0000
  C   C26       1.0  0.59691  0.98874  0.6273600000000003  1.0000
  C   C27       1.0  0.66001  0.9920099999999998  0.59021  1.0000
  C   C28       1.0  0.62725  0.9402600000000001  0.4946800000000001  1.0000
  C   C29       1.0  0.78705  0.09370000000000005  0.7409700000000001  1.0000
  C   C30       1.0  0.89137  0.13178999999999988  0.78694  1.0000
  C   C31       1.0  0.16484  0.63507  0.02636  1.0000
  C   C32       1.0  0.0717  0.61889  0.02185000000000001  1.0000
  C   C33       1.0  0.05982999999999997  0.6311899999999998  0.10175000000000002  1.0000
  C   C34       1.0  0.9716  0.6114599999999998  0.09664  1.0000
  C   C35       1.0  0.95766  0.6218100000000002  0.18076000000000006  1.0000
  C   C36       1.0  0.8959499999999999  0.5798399999999998  0.012420000000000002  1.0000
  C   C37       1.0  0.9077800000000001  0.56662  0.9320100000000002  1.0000
  C   C38       1.0  0.9961700000000001  0.5874400000000001  0.9367900000000002  1.0000
  C   C39       1.0  0.83345  0.49587999999999993  0.76562  1.0000
  C   C40       1.0  0.73521  0.4378499999999998  0.6891  1.0000
  C   C41       1.0  0.33646  0.49642  0.82939  1.0000
  C   C42       1.0  0.43827  0.53279  0.88213  1.0000
  C   C43       1.0  0.47645999999999994  0.47007  0.87468  1.0000
  C   C44       1.0  0.5703699999999998  0.50264  0.92925  1.0000
  C   C45       1.0  0.6106200000000002  0.43656  0.9291800000000002  1.0000
  C   C46       1.0  0.6273999999999998  0.59696  0.98882  1.0000
  C   C47       1.0  0.59023  0.66003  0.99205  1.0000
  C   C48       1.0  0.4947100000000002  0.62726  0.9402800000000002  1.0000
  C   C49       1.0  0.74099  0.7870999999999998  0.09373  1.0000
  C   C50       1.0  0.7869400000000001  0.89141  0.13180000000000003  1.0000
  C   C51       1.0  0.026390000000000004  0.16475  0.63505  1.0000
  C   C52       1.0  0.021860000000000022  0.07165000000000002  0.61891  1.0000
  C   C53       1.0  0.1017600000000001  0.05978000000000011  0.6312000000000001  1.0000
  C   C54       1.0  0.09663000000000009  0.97155  0.6114200000000002  1.0000
  C   C55       1.0  0.18071999999999988  0.9575799999999995  0.62163  1.0000
  C   C56       1.0  0.012410000000000008  0.89591  0.57983  1.0000
  C   C57       1.0  0.9319900000000004  0.90775  0.5666200000000002  1.0000
  C   C58       1.0  0.93678  0.9961399999999999  0.58745  1.0000
  C   C59       1.0  0.7655999999999998  0.8334299999999997  0.49585  1.0000
  C   C60       1.0  0.68907  0.73519  0.43785  1.0000
  C   C61       1.0  0.17055  0.66353  0.50355  1.0000
  C   C62       1.0  0.11789000000000001  0.5617099999999999  0.4672100000000001  1.0000
  C   C63       1.0  0.12541000000000002  0.52356  0.5299500000000001  1.0000
  C   C64       1.0  0.07084000000000006  0.42964  0.49739  1.0000
  C   C65       1.0  0.07090000000000003  0.38938999999999996  0.5634800000000002  1.0000
  C   C66       1.0  0.011259999999999975  0.3725899999999999  0.40309  1.0000
  C   C67       1.0  0.007989999999999976  0.40973  0.34  1.0000
  C   C68       1.0  0.05972999999999994  0.50526  0.37277  1.0000
  C   C69       1.0  0.9063000000000002  0.259  0.21293000000000004  1.0000
  C   C70       1.0  0.8682  0.21302  0.10862  1.0000
  C   C71       1.0  0.3649099999999999  0.9735799999999997  0.8352200000000001  1.0000
  C   C72       1.0  0.38108999999999993  0.9781299999999998  0.9283400000000002  1.0000
  C   C73       1.0  0.3688  0.89823  0.9402  1.0000
  C   C74       1.0  0.3885799999999999  0.9033599999999998  0.028430000000000007  1.0000
  C   C75       1.0  0.3784  0.81928  0.0424  1.0000
  C   C76       1.0  0.42018  0.98757  0.10407000000000002  1.0000
  C   C77       1.0  0.43338  0.06799  0.09224  1.0000
  C   C78       1.0  0.41255  0.0632  0.003850000000000001  1.0000
  C   C79       1.0  0.50413  0.23435  0.16656  1.0000
  C   C80       1.0  0.56215  0.31089  0.2648  1.0000
  C   C81       1.0  0.5035600000000002  0.1705700000000001  0.6635800000000002  1.0000
  C   C82       1.0  0.4672  0.11789999999999995  0.56177  1.0000
  C   C83       1.0  0.52995  0.12543000000000004  0.52361  1.0000
  C   C84       1.0  0.49739  0.07085000000000008  0.4296900000000001  1.0000
  C   C85       1.0  0.56346  0.07089  0.38942  1.0000
  C   C86       1.0  0.40309000000000006  0.011260000000000051  0.3726500000000001  1.0000
  C   C87       1.0  0.3399900000000001  0.007990000000000046  0.4098000000000001  1.0000
  C   C88       1.0  0.37275  0.059740000000000015  0.50532  1.0000
  C   C89       1.0  0.21295000000000003  0.9063  0.25903  1.0000
  C   C90       1.0  0.10863000000000005  0.86821  0.21306000000000005  1.0000
  C   C91       1.0  0.8351600000000002  0.3649300000000001  0.9736300000000002  1.0000
  C   C92       1.0  0.9283000000000003  0.3811100000000001  0.9781600000000003  1.0000
  C   C93       1.0  0.9401700000000001  0.36881  0.89825  1.0000
  C   C94       1.0  0.028400000000000127  0.38854  0.9033700000000002  1.0000
  C   C95       1.0  0.04234000000000011  0.37819000000000014  0.8192400000000002  1.0000
  C   C96       1.0  0.10405  0.42016000000000003  0.98758  1.0000
  C   C97       1.0  0.09222000000000001  0.43338  0.06799  1.0000
  C   C98       1.0  0.0038199999999999797  0.41256  0.06322  1.0000
  C   C99       1.0  0.1665499999999999  0.5041299999999997  0.23438  1.0000
  C   C100      1.0  0.26479  0.56215  0.31091  1.0000
  C   C101      1.0  0.66354  0.50359  0.17061000000000004  1.0000
  C   C102      1.0  0.56173  0.46721  0.11787000000000003  1.0000
  C   C103      1.0  0.5235400000000001  0.52993  0.12533  1.0000
  C   C104      1.0  0.4296300000000002  0.49736  0.07075000000000002  1.0000
  C   C105      1.0  0.38937000000000005  0.56344  0.07082000000000002  1.0000
  C   C106      1.0  0.37260000000000004  0.40304  0.01118  1.0000
  C   C107      1.0  0.40977  0.33998  0.00795  1.0000
  C   C108      1.0  0.5052900000000001  0.37274  0.05973000000000001  1.0000
  C   C109      1.0  0.2590100000000001  0.21290000000000006  0.90628  1.0000
  C   C110      1.0  0.21305999999999997  0.10858999999999998  0.8682  1.0000
  C   C111      1.0  0.9736099999999999  0.8352499999999997  0.36496000000000006  1.0000
  C   C112      1.0  0.97814  0.9283599999999997  0.38109  1.0000
  C   C113      1.0  0.8982400000000001  0.9402199999999997  0.3688000000000001  1.0000
  C   C114      1.0  0.90337  0.028450000000000055  0.3885800000000001  1.0000
  C   C115      1.0  0.81928  0.04242000000000001  0.37837  1.0000
  C   C116      1.0  0.9875900000000001  0.10409  0.42017  1.0000
  C   C117      1.0  0.06800999999999997  0.09224999999999997  0.43338  1.0000
  C   C118      1.0  0.06322000000000005  0.0038600000000000444  0.4125500000000001  1.0000
  C   C119      1.0  0.2344000000000001  0.16658000000000006  0.5041500000000001  1.0000
  C   C120      1.0  0.31093000000000004  0.2648199999999999  0.56216  1.0000
  O   O1        1.0  0.7773300000000002  0.29008000000000006  0.4093700000000001  1.0000
  O   O2        1.0  0.8358  0.29789  0.55076  1.0000
  O   O3        1.0  0.86149  0.56666  0.3557400000000001  1.0000
  O   O4        1.0  0.9984600000000001  0.6872899999999997  0.4647  1.0000
  O   O5        1.0  0.04322000000000009  0.6417600000000001  0.7536200000000002  1.0000
  O   O6        1.0  0.66694  0.10584000000000002  0.23161000000000004  1.0000
  O   O7        1.0  0.61471  0.9496299999999998  0.17028  1.0000
  O   O8        1.0  0.6428599999999999  0.2547599999999999  0.02716  1.0000
  O   O9        1.0  0.6084100000000001  0.17371000000000006  0.8771200000000002  1.0000
  O   O10       1.0  0.53106  0.8527699999999998  0.82882  1.0000
  O   O11       1.0  0.40936000000000006  0.77727  0.29005  1.0000
  O   O12       1.0  0.5507300000000002  0.8358300000000001  0.2978200000000001  1.0000
  O   O13       1.0  0.35574999999999996  0.8614999999999998  0.5666600000000002  1.0000
  O   O14       1.0  0.46473  0.9984899999999999  0.68729  1.0000
  O   O15       1.0  0.75362  0.043220000000000015  0.64172  1.0000
  O   O16       1.0  0.23164  0.66701  0.10584  1.0000
  O   O17       1.0  0.17040000000000008  0.6146900000000001  0.9496300000000002  1.0000
  O   O18       1.0  0.027130000000000015  0.64288  0.25476000000000004  1.0000
  O   O19       1.0  0.8772600000000002  0.6090300000000001  0.17381000000000005  1.0000
  O   O20       1.0  0.82883  0.53106  0.85277  1.0000
  O   O21       1.0  0.29009000000000007  0.40933000000000014  0.7773200000000002  1.0000
  O   O22       1.0  0.29784  0.5507  0.83566  1.0000
  O   O23       1.0  0.56668  0.35578000000000004  0.86156  1.0000
  O   O24       1.0  0.6872900000000001  0.4647200000000001  0.9985600000000001  1.0000
  O   O25       1.0  0.64172  0.7536399999999998  0.04323  1.0000
  O   O26       1.0  0.10582  0.23156  0.66691  1.0000
  O   O27       1.0  0.9496000000000001  0.17026  0.61464  1.0000
  O   O28       1.0  0.25476999999999994  0.027119999999999984  0.64291  1.0000
  O   O29       1.0  0.1737100000000001  0.8771100000000002  0.6085000000000003  1.0000
  O   O30       1.0  0.85274  0.8288099999999999  0.53104  1.0000
  O   O31       1.0  0.22267  0.70992  0.59063  1.0000
  O   O32       1.0  0.16420000000000012  0.7021200000000002  0.4492500000000001  1.0000
  O   O33       1.0  0.1385100000000001  0.4333400000000001  0.6442700000000002  1.0000
  O   O34       1.0  0.0015399999999999945  0.31271  0.5353  1.0000
  O   O35       1.0  0.95678  0.35824  0.24638  1.0000
  O   O36       1.0  0.33305999999999997  0.89417  0.7684  1.0000
  O   O37       1.0  0.38529  0.05038000000000011  0.8297300000000002  1.0000
  O   O38       1.0  0.3571400000000001  0.7452500000000001  0.9728500000000002  1.0000
  O   O39       1.0  0.39159000000000005  0.82629  0.12288000000000003  1.0000
  O   O40       1.0  0.4689400000000001  0.14722999999999994  0.17118  1.0000
  O   O41       1.0  0.59064  0.22272999999999996  0.70996  1.0000
  O   O42       1.0  0.44927000000000006  0.16417000000000007  0.7021800000000002  1.0000
  O   O43       1.0  0.6442500000000001  0.13851000000000005  0.4333400000000001  1.0000
  O   O44       1.0  0.53527  0.001510000000000005  0.31272  1.0000
  O   O45       1.0  0.24636999999999995  0.9567799999999997  0.3582900000000001  1.0000
  O   O46       1.0  0.76836  0.333  0.89416  1.0000
  O   O47       1.0  0.8296  0.38531  0.05037  1.0000
  O   O48       1.0  0.9728700000000005  0.35712  0.7452500000000002  1.0000
  O   O49       1.0  0.12274000000000013  0.39097000000000004  0.8261900000000002  1.0000
  O   O50       1.0  0.17117  0.46894  0.14723000000000006  1.0000
  O   O51       1.0  0.70991  0.59067  0.22269  1.0000
  O   O52       1.0  0.70216  0.4493  0.16434000000000004  1.0000
  O   O53       1.0  0.4333199999999999  0.6442199999999998  0.13844000000000004  1.0000
  O   O54       1.0  0.31271  0.53528  0.00145  1.0000
  O   O55       1.0  0.35828000000000004  0.24636000000000008  0.9567700000000002  1.0000
  O   O56       1.0  0.89418  0.7684399999999999  0.33309  1.0000
  O   O57       1.0  0.050399999999999966  0.8297399999999998  0.3853700000000001  1.0000
  O   O58       1.0  0.74524  0.97288  0.3571000000000001  1.0000
  O   O59       1.0  0.8262800000000002  0.12289  0.3915  1.0000
  O   O60       1.0  0.14726000000000006  0.17120000000000005  0.4689600000000001  1.0000
