data_image0
_chemical_formula_structural       Mg12H96C168O60
_chemical_formula_sum              "Mg12 H96 C168 O60"
_cell_length_a       10.58117
_cell_length_b       22.21007
_cell_length_c       23.57953
_cell_angle_alpha    90.0
_cell_angle_beta     90.0
_cell_angle_gamma    90.18965999999999

_space_group_name_H-M_alt    "P 1"
_space_group_IT_number       1

loop_
  _space_group_symop_operation_xyz
  'x, y, z'

loop_
  _atom_site_type_symbol
  _atom_site_label
  _atom_site_symmetry_multiplicity
  _atom_site_fract_x
  _atom_site_fract_y
  _atom_site_fract_z
  _atom_site_occupancy
  Mg  Mg1       1.0  0.28625  0.00108  0.0575  1.0000
  Mg  Mg2       1.0  0.71376  0.99893  0.94251  1.0000
  Mg  Mg3       1.0  0.0  0.0  0.0  1.0000
  Mg  Mg4       1.0  0.71376  0.49893  0.5575  1.0000
  Mg  Mg5       1.0  0.21598999999999993  0.00022999999999999998  0.44152  1.0000
  Mg  Mg6       1.0  0.78402  0.4997699999999999  0.9415200000000001  1.0000
  Mg  Mg7       1.0  0.0  0.5  0.5  1.0000
  Mg  Mg8       1.0  0.21598999999999993  0.50023  0.058480000000000004  1.0000
  Mg  Mg9       1.0  0.78401  0.9997699999999999  0.55849  1.0000
  Mg  Mg10      1.0  0.28625  0.50107  0.4425  1.0000
  Mg  Mg11      1.0  0.5  0.5  0.0  1.0000
  Mg  Mg12      1.0  0.5  0.0  0.5  1.0000
  H   H1        1.0  0.87256  0.62241  0.38591  1.0000
  H   H2        1.0  0.27822  0.11223  0.2974  1.0000
  H   H3        1.0  0.15649  0.25289  0.88208  1.0000
  H   H4        1.0  0.06257  0.67196  0.55664  1.0000
  H   H5        1.0  0.9324099999999999  0.87009  0.42338999999999993  1.0000
  H   H6        1.0  0.9374399999999999  0.8280399999999999  0.05664000000000001  1.0000
  H   H7        1.0  0.08941  0.68214  0.82897  1.0000
  H   H8        1.0  0.36327  0.18112  0.2212  1.0000
  H   H9        1.0  0.71614  0.1917  0.31032  1.0000
  H   H10       1.0  0.9374399999999999  0.32804  0.44336  1.0000
  H   H11       1.0  0.10653  0.79202  0.25071  1.0000
  H   H12       1.0  0.78624  0.69089  0.30963  1.0000
  H   H13       1.0  0.60289  0.70736  0.74888  1.0000
  H   H14       1.0  0.3971199999999999  0.29264  0.25113  1.0000
  H   H15       1.0  0.28386  0.8082999999999999  0.68969  1.0000
  H   H16       1.0  0.56562  0.32695  0.05666  1.0000
  H   H17       1.0  0.13156  0.01019  0.87647  1.0000
  H   H18       1.0  0.38177  0.058029999999999984  0.7184900000000001  1.0000
  H   H19       1.0  0.60288  0.20736  0.75113  1.0000
  H   H20       1.0  0.89348  0.70798  0.75071  1.0000
  H   H21       1.0  0.21376999999999996  0.8091199999999998  0.80964  1.0000
  H   H22       1.0  0.62994  0.12245999999999999  0.38622000000000006  1.0000
  H   H23       1.0  0.61823  0.44197  0.21849  1.0000
  H   H24       1.0  0.11804999999999999  0.05838  0.78051  1.0000
  H   H25       1.0  0.08941  0.18213999999999997  0.67104  1.0000
  H   H26       1.0  0.56663  0.86875  0.07833  1.0000
  H   H27       1.0  0.43338  0.13125  0.92167  1.0000
  H   H28       1.0  0.06257  0.17195999999999997  0.94336  1.0000
  H   H29       1.0  0.63673  0.31888  0.72121  1.0000
  H   H30       1.0  0.36719  0.00888  0.62301  1.0000
  H   H31       1.0  0.87255  0.12239999999999998  0.11409000000000001  1.0000
  H   H32       1.0  0.77558  0.387  0.7025200000000001  1.0000
  H   H33       1.0  0.88195  0.44162  0.28051  1.0000
  H   H34       1.0  0.36719  0.50888  0.8770000000000001  1.0000
  H   H35       1.0  0.86032  0.31914  0.77916  1.0000
  H   H36       1.0  0.41222999999999993  0.68299  0.67298  1.0000
  H   H37       1.0  0.89348  0.20798  0.7493000000000001  1.0000
  H   H38       1.0  0.70169  0.63049  0.81289  1.0000
  H   H39       1.0  0.91059  0.31787  0.17104  1.0000
  H   H40       1.0  0.37007  0.37753999999999993  0.88622  1.0000
  H   H41       1.0  0.43338  0.63125  0.57834  1.0000
  H   H42       1.0  0.77559  0.887  0.79749  1.0000
  H   H43       1.0  0.63673  0.81888  0.7788  1.0000
  H   H44       1.0  0.65968  0.74689  0.3812400000000001  1.0000
  H   H45       1.0  0.36328  0.68112  0.2788  1.0000
  H   H46       1.0  0.13969  0.18085999999999997  0.27916  1.0000
  H   H47       1.0  0.11805999999999998  0.55838  0.7195  1.0000
  H   H48       1.0  0.8435199999999998  0.24711  0.38208  1.0000
  H   H49       1.0  0.63282  0.99113  0.377  1.0000
  H   H50       1.0  0.79466  0.13045  0.81252  1.0000
  H   H51       1.0  0.27822  0.61223  0.20260000000000003  1.0000
  H   H52       1.0  0.72178  0.38777  0.7974  1.0000
  H   H53       1.0  0.22442  0.11299999999999999  0.20252  1.0000
  H   H54       1.0  0.28386  0.3083  0.81032  1.0000
  H   H55       1.0  0.79467  0.63045  0.68748  1.0000
  H   H56       1.0  0.70168  0.13049  0.6871199999999998  1.0000
  H   H57       1.0  0.29832  0.36950999999999995  0.18711  1.0000
  H   H58       1.0  0.61824  0.94197  0.28151  1.0000
  H   H59       1.0  0.63281  0.49112  0.12301  1.0000
  H   H60       1.0  0.15649  0.7528899999999998  0.61793  1.0000
  H   H61       1.0  0.78624  0.19088999999999998  0.19037  1.0000
  H   H62       1.0  0.34032999999999997  0.25312  0.61877  1.0000
  H   H63       1.0  0.37007  0.87754  0.61378  1.0000
  H   H64       1.0  0.29832  0.86951  0.31289  1.0000
  H   H65       1.0  0.58778  0.31701  0.32702  1.0000
  H   H66       1.0  0.9106  0.8178699999999999  0.32897  1.0000
  H   H67       1.0  0.20533999999999997  0.8695499999999999  0.18748  1.0000
  H   H68       1.0  0.88195  0.9416199999999999  0.21949000000000002  1.0000
  H   H69       1.0  0.13969  0.68086  0.22084000000000004  1.0000
  H   H70       1.0  0.21376999999999996  0.30912  0.69037  1.0000
  H   H71       1.0  0.5666199999999999  0.36874999999999997  0.42167000000000004  1.0000
  H   H72       1.0  0.10651999999999999  0.29202  0.2493  1.0000
  H   H73       1.0  0.38178  0.55803  0.78151  1.0000
  H   H74       1.0  0.20533999999999997  0.36955  0.31252  1.0000
  H   H75       1.0  0.43438  0.17305  0.55666  1.0000
  H   H76       1.0  0.0676  0.62991  0.92339  1.0000
  H   H77       1.0  0.9324099999999999  0.37009  0.07661  1.0000
  H   H78       1.0  0.8435199999999998  0.74711  0.11793000000000001  1.0000
  H   H79       1.0  0.86844  0.48981  0.3764700000000001  1.0000
  H   H80       1.0  0.12745999999999996  0.8775999999999999  0.8859100000000001  1.0000
  H   H81       1.0  0.7217899999999999  0.88777  0.7026  1.0000
  H   H82       1.0  0.06759  0.12991  0.57661  1.0000
  H   H83       1.0  0.13157000000000002  0.51019  0.62353  1.0000
  H   H84       1.0  0.65968  0.24688999999999997  0.11877  1.0000
  H   H85       1.0  0.3971299999999999  0.79264  0.24888000000000002  1.0000
  H   H86       1.0  0.56563  0.82695  0.44334000000000007  1.0000
  H   H87       1.0  0.58778  0.81701  0.17298  1.0000
  H   H88       1.0  0.12745  0.37759999999999994  0.61409  1.0000
  H   H89       1.0  0.7161499999999998  0.6916999999999999  0.18969  1.0000
  H   H90       1.0  0.43438  0.67305  0.94335  1.0000
  H   H91       1.0  0.62994  0.62246  0.11378000000000002  1.0000
  H   H92       1.0  0.22442  0.613  0.29749  1.0000
  H   H93       1.0  0.86845  0.98981  0.12353  1.0000
  H   H94       1.0  0.86032  0.8191399999999999  0.72084  1.0000
  H   H95       1.0  0.34032999999999997  0.75312  0.88124  1.0000
  H   H96       1.0  0.41222999999999993  0.18299  0.82702  1.0000
  C   C1        1.0  0.07157  0.29908  0.29213  1.0000
  C   C2        1.0  0.31372  0.57327  0.81287  1.0000
  C   C3        1.0  0.79024  0.96221  0.4619  1.0000
  C   C4        1.0  0.36437  0.61596  0.60941  1.0000
  C   C5        1.0  0.19424  0.54714  0.63514  1.0000
  C   C6        1.0  0.85283  0.85653  0.33997000000000005  1.0000
  C   C7        1.0  0.37684  0.34209  0.17248000000000002  1.0000
  C   C8        1.0  0.9172999999999999  0.33127  0.74256  1.0000
  C   C9        1.0  0.12948  0.13124  0.2002  1.0000
  C   C10       1.0  0.024869999999999996  0.68107  0.59865  1.0000
  C   C11       1.0  0.42557999999999996  0.8523399999999999  0.38203  1.0000
  C   C12       1.0  0.37787  0.9024899999999998  0.4179  1.0000
  C   C13       1.0  0.58037  0.27385  0.1331  1.0000
  C   C14       1.0  0.41975999999999997  0.1689  0.25788  1.0000
  C   C15       1.0  0.11766  0.82606  0.80814  1.0000
  C   C16       1.0  0.57443  0.14766  0.61797  1.0000
  C   C17       1.0  0.13614  0.61464  0.89219  1.0000
  C   C18       1.0  0.23594999999999994  0.62247  0.8007500000000001  1.0000
  C   C19       1.0  0.06981  0.3640399999999999  0.65014  1.0000
  C   C20       1.0  0.39446  0.07358  0.39036  1.0000
  C   C21       1.0  0.78405  0.93375  0.40558  1.0000
  C   C22       1.0  0.5686899999999999  0.20078  0.70809  1.0000
  C   C23       1.0  0.64639  0.8555399999999999  0.16181  1.0000
  C   C24       1.0  0.9695599999999999  0.26514  0.31259  1.0000
  C   C25       1.0  0.62697  0.86911  0.7001  1.0000
  C   C26       1.0  0.18607  0.574  0.68823  1.0000
  C   C27       1.0  0.23594999999999994  0.12247  0.69925  1.0000
  C   C28       1.0  0.95909  0.19016  0.23784000000000002  1.0000
  C   C29       1.0  0.55223  0.38565  0.8464000000000002  1.0000
  C   C30       1.0  0.37999  0.82551  0.6912  1.0000
  C   C31       1.0  0.92843  0.20092  0.79213  1.0000
  C   C32       1.0  0.4568  0.80923  0.73703  1.0000
  C   C33       1.0  0.20975999999999997  0.03779  0.5381  1.0000
  C   C34       1.0  0.71631  0.43223999999999996  0.40443000000000007  1.0000
  C   C35       1.0  0.37998  0.32551  0.8088100000000001  1.0000
  C   C36       1.0  0.26438999999999996  0.6231099999999999  0.7008100000000002  1.0000
  C   C37       1.0  0.62213  0.09750999999999999  0.5821  1.0000
  C   C38       1.0  0.57443  0.64766  0.8820300000000001  1.0000
  C   C39       1.0  0.69504  0.95408  0.36574000000000007  1.0000
  C   C40       1.0  0.55224  0.88565  0.65361  1.0000
  C   C41       1.0  0.57224  0.636  0.14976  1.0000
  C   C42       1.0  0.53302  0.26524  0.18792000000000003  1.0000
  C   C43       1.0  0.08271  0.16873  0.24256  1.0000
  C   C44       1.0  0.31371  0.07327  0.6871400000000001  1.0000
  C   C45       1.0  0.11766  0.32606  0.69187  1.0000
  C   C46       1.0  0.21596  0.06625  0.59442  1.0000
  C   C47       1.0  0.14716999999999997  0.14347  0.66003  1.0000
  C   C48       1.0  0.6356399999999999  0.38403999999999994  0.3906  1.0000
  C   C49       1.0  0.4277599999999999  0.36401  0.85024  1.0000
  C   C50       1.0  0.4721  0.18204999999999996  0.59871  1.0000
  C   C51       1.0  0.57224  0.13599  0.35024  1.0000
  C   C52       1.0  0.30496  0.04592  0.63426  1.0000
  C   C53       1.0  0.9453799999999999  0.88538  0.8463  1.0000
  C   C54       1.0  0.58024  0.8311  0.7421200000000001  1.0000
  C   C55       1.0  0.62002  0.17449  0.30881  1.0000
  C   C56       1.0  0.47211  0.68205  0.9013  1.0000
  C   C57       1.0  0.07772  0.35332  0.38178  1.0000
  C   C58       1.0  0.02486  0.18106999999999998  0.90135  1.0000
  C   C59       1.0  0.79024  0.46221  0.0381  1.0000
  C   C60       1.0  0.873  0.59647  0.5826  1.0000
  C   C61       1.0  0.21597  0.56625  0.90558  1.0000
  C   C62       1.0  0.41964  0.72615  0.86691  1.0000
  C   C63       1.0  0.94537  0.38538  0.65371  1.0000
  C   C64       1.0  0.70978  0.9608  0.03937  1.0000
  C   C65       1.0  0.8932499999999998  0.42612  0.60947  1.0000
  C   C66       1.0  0.28368999999999994  0.06776  0.90443  1.0000
  C   C67       1.0  0.9222799999999999  0.14668  0.88179  1.0000
  C   C68       1.0  0.873  0.09646999999999999  0.91741  1.0000
  C   C69       1.0  0.76406  0.8775299999999999  0.30075  1.0000
  C   C70       1.0  0.6862899999999998  0.92673  0.31287  1.0000
  C   C71       1.0  0.39447  0.57358  0.10964000000000002  1.0000
  C   C72       1.0  0.5432  0.19078  0.26297  1.0000
  C   C73       1.0  0.07755  0.22566  0.8673700000000001  1.0000
  C   C74       1.0  0.92229  0.64668  0.61822  1.0000
  C   C75       1.0  0.42557999999999996  0.35234  0.11797000000000002  1.0000
  C   C76       1.0  0.13614  0.11464  0.60781  1.0000
  C   C77       1.0  0.80577  0.45286  0.36486  1.0000
  C   C78       1.0  0.26438999999999996  0.12311  0.7992  1.0000
  C   C79       1.0  0.6463799999999998  0.35554  0.33819  1.0000
  C   C80       1.0  0.71632  0.93224  0.09557000000000002  1.0000
  C   C81       1.0  0.8139399999999999  0.92601  0.18822  1.0000
  C   C82       1.0  0.37787  0.40248999999999996  0.0821  1.0000
  C   C83       1.0  0.76406  0.37753  0.19925  1.0000
  C   C84       1.0  0.53302  0.7652399999999999  0.31208  1.0000
  C   C85       1.0  0.69504  0.45407999999999993  0.13426  1.0000
  C   C86       1.0  0.44778  0.61435  0.15361  1.0000
  C   C87       1.0  0.29023  0.0392  0.9606400000000002  1.0000
  C   C88       1.0  0.03044  0.7348599999999998  0.68741  1.0000
  C   C89       1.0  0.9172999999999999  0.83127  0.75744  1.0000
  C   C90       1.0  0.92246  0.77435  0.13263  1.0000
  C   C91       1.0  0.10674999999999998  0.07388  0.10947  1.0000
  C   C92       1.0  0.35363  0.64446  0.66181  1.0000
  C   C93       1.0  0.95909  0.6901599999999999  0.26216  1.0000
  C   C94       1.0  0.80577  0.95286  0.13514  1.0000
  C   C95       1.0  0.37304  0.13089  0.2999  1.0000
  C   C96       1.0  0.4568  0.30923  0.7629700000000001  1.0000
  C   C97       1.0  0.4313199999999999  0.29922  0.20809  1.0000
  C   C98       1.0  0.9751399999999999  0.81893  0.09865000000000002  1.0000
  C   C99       1.0  0.9284399999999999  0.70092  0.70787  1.0000
  C   C100      1.0  0.44777  0.11434999999999998  0.34639999999999993  1.0000
  C   C101      1.0  0.9302  0.13596  0.15013  1.0000
  C   C102      1.0  0.5279  0.31795  0.09871  1.0000
  C   C103      1.0  0.9751399999999999  0.31893  0.40135  1.0000
  C   C104      1.0  0.8705199999999998  0.36876  0.7002  1.0000
  C   C105      1.0  0.41964  0.22615  0.6331  1.0000
  C   C106      1.0  0.8139399999999999  0.42601  0.31178  1.0000
  C   C107      1.0  0.42776999999999993  0.86401  0.64976  1.0000
  C   C108      1.0  0.60554  0.92642  0.60964  1.0000
  C   C109      1.0  0.20976999999999998  0.53779  0.96191  1.0000
  C   C110      1.0  0.6356399999999999  0.88404  0.10941  1.0000
  C   C111      1.0  0.41977  0.6689  0.24212  1.0000
  C   C112      1.0  0.05462999999999999  0.11461999999999999  0.15371  1.0000
  C   C113      1.0  0.86387  0.88536  0.39219  1.0000
  C   C114      1.0  0.37305  0.63089  0.20009999999999997  1.0000
  C   C115      1.0  0.29023  0.5392  0.53937  1.0000
  C   C116      1.0  0.12949  0.63124  0.29981  1.0000
  C   C117      1.0  0.6862899999999998  0.42673  0.18713  1.0000
  C   C118      1.0  0.04092  0.8098399999999999  0.76216  1.0000
  C   C119      1.0  0.88235  0.67395  0.30814  1.0000
  C   C120      1.0  0.62696  0.36911  0.79991  1.0000
  C   C121      1.0  0.6221399999999999  0.59751  0.9179  1.0000
  C   C122      1.0  0.6231599999999999  0.65791  0.82752  1.0000
  C   C123      1.0  0.8932499999999999  0.92612  0.89053  1.0000
  C   C124      1.0  0.08271  0.66873  0.25744  1.0000
  C   C125      1.0  0.30497  0.54592  0.86574  1.0000
  C   C126      1.0  0.8736899999999999  0.65762  0.67261  1.0000
  C   C127      1.0  0.12701  0.90353  0.0826  1.0000
  C   C128      1.0  0.58037  0.7738499999999999  0.36691000000000007  1.0000
  C   C129      1.0  0.7356199999999999  0.8768899999999998  0.20081  1.0000
  C   C130      1.0  0.03044  0.23486  0.81259  1.0000
  C   C131      1.0  0.8705199999999998  0.8687599999999999  0.7998100000000001  1.0000
  C   C132      1.0  0.19422999999999999  0.04714  0.86486  1.0000
  C   C133      1.0  0.5686899999999999  0.70078  0.7919100000000001  1.0000
  C   C134      1.0  0.60554  0.42641999999999997  0.89036  1.0000
  C   C135      1.0  0.46698999999999996  0.73477  0.81208  1.0000
  C   C136      1.0  0.07756  0.72566  0.63263  1.0000
  C   C137      1.0  0.9302  0.63596  0.34987  1.0000
  C   C138      1.0  0.054639999999999994  0.61462  0.3463  1.0000
  C   C139      1.0  0.04092  0.30984  0.7378400000000002  1.0000
  C   C140      1.0  0.70978  0.46079999999999993  0.46064000000000005  1.0000
  C   C141      1.0  0.12701  0.40353  0.4174  1.0000
  C   C142      1.0  0.46698999999999996  0.23476  0.6879300000000002  1.0000
  C   C143      1.0  0.07773  0.85332  0.11822  1.0000
  C   C144      1.0  0.35362  0.14446  0.83819  1.0000
  C   C145      1.0  0.06981  0.8640499999999999  0.84987  1.0000
  C   C146      1.0  0.6231599999999999  0.15791  0.67248  1.0000
  C   C147      1.0  0.4313199999999999  0.79922  0.29191  1.0000
  C   C148      1.0  0.10675999999999998  0.57388  0.39053  1.0000
  C   C149      1.0  0.92245  0.27435  0.36737  1.0000
  C   C150      1.0  0.36436  0.11596  0.8906  1.0000
  C   C151      1.0  0.12632  0.84238  0.17261  1.0000
  C   C152      1.0  0.12632  0.34238  0.3274  1.0000
  C   C153      1.0  0.37685  0.84209  0.32752  1.0000
  C   C154      1.0  0.14718  0.64347  0.83997  1.0000
  C   C155      1.0  0.7356199999999999  0.37688999999999995  0.29919  1.0000
  C   C156      1.0  0.85283  0.35653  0.16003  1.0000
  C   C157      1.0  0.8736899999999999  0.15762  0.8274  1.0000
  C   C158      1.0  0.54321  0.69078  0.23703  1.0000
  C   C159      1.0  0.88235  0.17395  0.19187000000000004  1.0000
  C   C160      1.0  0.9695699999999999  0.76514  0.18741  1.0000
  C   C161      1.0  0.18607  0.07399  0.81178  1.0000
  C   C162      1.0  0.07158  0.79908  0.20787  1.0000
  C   C163      1.0  0.52791  0.81795  0.40129  1.0000
  C   C164      1.0  0.78404  0.43375  0.09442  1.0000
  C   C165      1.0  0.62002  0.67449  0.19119  1.0000
  C   C166      1.0  0.28368999999999994  0.56776  0.59557  1.0000
  C   C167      1.0  0.58024  0.3311  0.75788  1.0000
  C   C168      1.0  0.86387  0.38536  0.10781  1.0000
  O   O1        1.0  0.03126  0.5513799999999999  0.42667  1.0000
  O   O2        1.0  0.39962999999999993  0.2747  0.72133  1.0000
  O   O3        1.0  0.88686  0.95724  0.49423000000000006  1.0000
  O   O4        1.0  0.39962999999999993  0.7747  0.77867  1.0000
  O   O5        1.0  0.74996  0.3452  0.24902000000000005  1.0000
  O   O6        1.0  0.19389  0.00913  0.9799500000000001  1.0000
  O   O7        1.0  0.056049999999999996  0.42377999999999993  0.45624  1.0000
  O   O8        1.0  0.38877  0.04281  0.9919400000000002  1.0000
  O   O9        1.0  0.60038  0.72531  0.27867  1.0000
  O   O10       1.0  0.44958999999999993  0.92176  0.45698000000000005  1.0000
  O   O11       1.0  0.55042  0.57824  0.95698  1.0000
  O   O12       1.0  0.72563  0.43671  0.8887  1.0000
  O   O13       1.0  0.69488  0.49353  0.01979  1.0000
  O   O14       1.0  0.9439599999999999  0.57623  0.54376  1.0000
  O   O15       1.0  0.23857  0.42441  0.4059  1.0000
  O   O16       1.0  0.55042  0.07824  0.54303  1.0000
  O   O17       1.0  0.74997  0.8452  0.25098  1.0000
  O   O18       1.0  0.25004  0.1548  0.74903  1.0000
  O   O19       1.0  0.53112  0.94932  0.57339  1.0000
  O   O20       1.0  0.38877  0.54281  0.50806  1.0000
  O   O21       1.0  0.22663  0.06321  0.11099  1.0000
  O   O22       1.0  0.53111  0.44930999999999993  0.92661  1.0000
  O   O23       1.0  0.7324699999999998  0.07583  0.59405  1.0000
  O   O24       1.0  0.03126  0.05138  0.07333  1.0000
  O   O25       1.0  0.22663  0.56321  0.38901  1.0000
  O   O26       1.0  0.9439599999999999  0.07622999999999999  0.95625  1.0000
  O   O27       1.0  0.6948899999999999  0.99353  0.48021  1.0000
  O   O28       1.0  0.23857  0.92441  0.09410000000000002  1.0000
  O   O29       1.0  0.30512  0.00647  0.51979  1.0000
  O   O30       1.0  0.7324699999999998  0.57583  0.90596  1.0000
  O   O31       1.0  0.76143  0.07559  0.9059  1.0000
  O   O32       1.0  0.09799  0.7756  0.7202199999999999  1.0000
  O   O33       1.0  0.30513  0.50647  0.9802100000000001  1.0000
  O   O34       1.0  0.11314999999999997  0.54276  0.99423  1.0000
  O   O35       1.0  0.72563  0.93671  0.6113  1.0000
  O   O36       1.0  0.44958999999999993  0.42176  0.04302  1.0000
  O   O37       1.0  0.96875  0.9486199999999999  0.92667  1.0000
  O   O38       1.0  0.61124  0.95719  0.00806  1.0000
  O   O39       1.0  0.76144  0.57559  0.5941  1.0000
  O   O40       1.0  0.27438  0.56329  0.11130000000000001  1.0000
  O   O41       1.0  0.46889999999999993  0.55069  0.07339  1.0000
  O   O42       1.0  0.90202  0.2244  0.27978  1.0000
  O   O43       1.0  0.4688899999999999  0.05068999999999999  0.42661  1.0000
  O   O44       1.0  0.26754  0.92418  0.40595000000000003  1.0000
  O   O45       1.0  0.26753  0.42417  0.09405  1.0000
  O   O46       1.0  0.60038  0.22531  0.22133  1.0000
  O   O47       1.0  0.96875  0.44862  0.57333  1.0000
  O   O48       1.0  0.90202  0.7243999999999999  0.22022000000000003  1.0000
  O   O49       1.0  0.056049999999999996  0.9237799999999999  0.04376000000000001  1.0000
  O   O50       1.0  0.11314999999999997  0.04276  0.50578  1.0000
  O   O51       1.0  0.77338  0.43679  0.61099  1.0000
  O   O52       1.0  0.80611  0.49087  0.47995  1.0000
  O   O53       1.0  0.27438  0.06329  0.3887  1.0000
  O   O54       1.0  0.19389  0.50913  0.52005  1.0000
  O   O55       1.0  0.09799  0.2756  0.7797800000000001  1.0000
  O   O56       1.0  0.61124  0.45719  0.49194000000000004  1.0000
  O   O57       1.0  0.80612  0.99087  0.02005  1.0000
  O   O58       1.0  0.77338  0.9367899999999999  0.88901  1.0000
  O   O59       1.0  0.25004999999999994  0.6548  0.7509800000000001  1.0000
  O   O60       1.0  0.88685  0.45724  0.00577  1.0000
