data_image0
_chemical_formula_structural       Co4H128C188N24O20
_chemical_formula_sum              "Co4 H128 C188 N24 O20"
_cell_length_a       8.86666
_cell_length_b       14.922030000000001
_cell_length_c       32.20837
_cell_angle_alpha    89.93992
_cell_angle_beta     90.02892
_cell_angle_gamma    104.13945

_symmetry_space_group_name_H-M    'P 1'
_symmetry_Int_Tables_number       1

loop_
  _symmetry_equiv_pos_as_xyz
  'x,y,z'

loop_
  _atom_site_type_symbol
  _atom_site_label
  _atom_site_symmetry_multiplicity
  _atom_site_fract_x
  _atom_site_fract_y
  _atom_site_fract_z
  _atom_site_occupancy
  Co  Co1       1.0  0.37488  0.19209  0.12532  1.0000
  Co  Co2       1.0  0.12153000000000005  0.80815  0.62546  1.0000
  Co  Co3       1.0  0.6251  0.80791  0.87468  1.0000
  Co  Co4       1.0  0.87845  0.19185  0.37454  1.0000
  H   H1        1.0  0.30633  0.36804  0.17455  1.0000
  H   H2        1.0  0.9941800000000001  0.12883  0.12964  1.0000
  H   H3        1.0  0.82088  0.25207  0.15574  1.0000
  H   H4        1.0  0.83056  0.33507  0.22677999999999995  1.0000
  H   H5        1.0  0.79652  0.47325  0.26536  1.0000
  H   H6        1.0  0.17226000000000002  0.64579  0.19632999999999995  1.0000
  H   H7        1.0  0.20404  0.50855  0.15698  1.0000
  H   H8        1.0  0.05268  0.58641  0.3138899999999999  1.0000
  H   H9        1.0  0.9228499999999998  0.84219  0.33514  1.0000
  H   H10       1.0  0.8780000000000001  0.7200300000000001  0.21311999999999995  1.0000
  H   H11       1.0  0.88551  0.85746  0.19250999999999993  1.0000
  H   H12       1.0  0.7782499999999999  0.9864  0.16927  1.0000
  H   H13       1.0  0.64675  0.02875  0.2954  1.0000
  H   H14       1.0  0.74953  0.90075  0.3182299999999999  1.0000
  H   H15       1.0  0.53942  0.0308  0.15683  1.0000
  H   H16       1.0  0.50195  0.27296  0.21849999999999994  1.0000
  H   H17       1.0  0.66993  0.17933  0.26881  1.0000
  H   H18       1.0  0.12863  0.86335  0.37797  1.0000
  H   H19       1.0  0.20646  0.86282  0.4518099999999999  1.0000
  H   H20       1.0  0.04049999999999996  0.56625  0.45463  1.0000
  H   H21       1.0  0.97309  0.56634  0.38046999999999986  1.0000
  H   H22       1.0  0.09981999999999999  0.83818  0.52343  1.0000
  H   H23       1.0  0.29188000000000003  0.6463800000000001  0.5874199999999998  1.0000
  H   H24       1.0  0.25288  0.59264  0.50477  1.0000
  H   H25       1.0  0.9977900000000002  0.9135000000000001  0.11433  1.0000
  H   H26       1.0  0.8963000000000001  0.74968  0.09338  1.0000
  H   H27       1.0  0.33506  0.7523  0.03604  1.0000
  H   H28       1.0  0.4333600000000001  0.9194700000000001  0.055379999999999985  1.0000
  H   H29       1.0  0.9845199999999998  0.65281  0.133  1.0000
  H   H30       1.0  0.7731599999999998  0.53405  0.16627999999999996  1.0000
  H   H31       1.0  0.70891  0.3746600000000001  0.05456  1.0000
  H   H32       1.0  0.91154  0.49746  0.01911  1.0000
  H   H33       1.0  0.19048000000000007  0.6314300000000002  0.6748799999999998  1.0000
  H   H34       1.0  0.50081  0.8714  0.62987  1.0000
  H   H35       1.0  0.67534  0.74802  0.6554  1.0000
  H   H36       1.0  0.66667  0.6653  0.72649  1.0000
  H   H37       1.0  0.70211  0.5274  0.76523  1.0000
  H   H38       1.0  0.32844  0.35373  0.6959899999999998  1.0000
  H   H39       1.0  0.29514  0.49078  0.65653  1.0000
  H   H40       1.0  0.44799  0.41412000000000004  0.81379  1.0000
  H   H41       1.0  0.57722  0.15815  0.83529  1.0000
  H   H42       1.0  0.62172  0.2802  0.71314  1.0000
  H   H43       1.0  0.61384  0.14281  0.6927299999999997  1.0000
  H   H44       1.0  0.72049  0.01363  0.66962  1.0000
  H   H45       1.0  0.8534400000000001  0.9717500000000002  0.7957799999999998  1.0000
  H   H46       1.0  0.75127  0.10003  0.81842  1.0000
  H   H47       1.0  0.9581500000000001  0.96893  0.6571699999999998  1.0000
  H   H48       1.0  0.99464  0.72629  0.71886  1.0000
  H   H49       1.0  0.82901  0.82062  0.76937  1.0000
  H   H50       1.0  0.37053  0.13711  0.87786  1.0000
  H   H51       1.0  0.29153  0.13739  0.9516  1.0000
  H   H52       1.0  0.45925999999999995  0.43384  0.9545499999999998  1.0000
  H   H53       1.0  0.5279399999999999  0.43399  0.88046  1.0000
  H   H54       1.0  0.39673  0.16176  0.023439999999999992  1.0000
  H   H55       1.0  0.20563  0.35435  0.08693  1.0000
  H   H56       1.0  0.2454  0.40777  0.00421  1.0000
  H   H57       1.0  0.49721999999999994  0.08481  0.61407  1.0000
  H   H58       1.0  0.60123  0.24877  0.59305  1.0000
  H   H59       1.0  0.16423  0.24737  0.5346199999999998  1.0000
  H   H60       1.0  0.06481  0.08011  0.554  1.0000
  H   H61       1.0  0.5152199999999999  0.34611  0.6328899999999997  1.0000
  H   H62       1.0  0.72541  0.46562000000000003  0.66608  1.0000
  H   H63       1.0  0.79075  0.62409  0.55399  1.0000
  H   H64       1.0  0.58933  0.50066  0.51862  1.0000
  H   H65       1.0  0.69366  0.6319600000000001  0.82545  1.0000
  H   H66       1.0  0.005809999999999967  0.87117  0.87036  1.0000
  H   H67       1.0  0.17910999999999996  0.74793  0.8442599999999998  1.0000
  H   H68       1.0  0.16943  0.66493  0.7732199999999998  1.0000
  H   H69       1.0  0.20347  0.52675  0.7346399999999997  1.0000
  H   H70       1.0  0.82772  0.35421  0.8036699999999998  1.0000
  H   H71       1.0  0.79594  0.49145  0.84302  1.0000
  H   H72       1.0  0.9473000000000001  0.41359  0.68611  1.0000
  H   H73       1.0  0.07713  0.1578  0.66486  1.0000
  H   H74       1.0  0.12199  0.27997  0.78688  1.0000
  H   H75       1.0  0.11446999999999999  0.14254  0.8074899999999998  1.0000
  H   H76       1.0  0.22173  0.0136  0.83073  1.0000
  H   H77       1.0  0.35322999999999993  0.97125  0.70461  1.0000
  H   H78       1.0  0.25045  0.09924  0.6817699999999998  1.0000
  H   H79       1.0  0.46055999999999997  0.9692  0.84317  1.0000
  H   H80       1.0  0.49804000000000004  0.72704  0.7814999999999998  1.0000
  H   H81       1.0  0.33005  0.82066  0.73119  1.0000
  H   H82       1.0  0.87135  0.13665  0.62203  1.0000
  H   H83       1.0  0.79353  0.13718  0.5481899999999997  1.0000
  H   H84       1.0  0.95949  0.43375  0.54537  1.0000
  H   H85       1.0  0.026879999999999994  0.43366  0.61953  1.0000
  H   H86       1.0  0.9002  0.16183  0.47657  1.0000
  H   H87       1.0  0.70815  0.35363  0.41258  1.0000
  H   H88       1.0  0.7471  0.40736  0.49523  1.0000
  H   H89       1.0  0.0021900000000000005  0.0865  0.88567  1.0000
  H   H90       1.0  0.10368999999999999  0.25032  0.90662  1.0000
  H   H91       1.0  0.66493  0.2477  0.9639699999999998  1.0000
  H   H92       1.0  0.5666299999999999  0.08053  0.94462  1.0000
  H   H93       1.0  0.015460000000000005  0.34719  0.8669999999999998  1.0000
  H   H94       1.0  0.22682  0.46595  0.8337199999999998  1.0000
  H   H95       1.0  0.29107  0.62534  0.9454399999999997  1.0000
  H   H96       1.0  0.08845  0.50254  0.98089  1.0000
  H   H97       1.0  0.80949  0.36855  0.32512  1.0000
  H   H98       1.0  0.49916000000000005  0.1286  0.37013  1.0000
  H   H99       1.0  0.32464  0.25198  0.34461  1.0000
  H   H100      1.0  0.33331  0.3347  0.27351  1.0000
  H   H101      1.0  0.29787  0.4726  0.23477  1.0000
  H   H102      1.0  0.67155  0.64626  0.30401  1.0000
  H   H103      1.0  0.7048399999999999  0.50921  0.34347  1.0000
  H   H104      1.0  0.552  0.58588  0.18621  1.0000
  H   H105      1.0  0.42276  0.84185  0.16471999999999995  1.0000
  H   H106      1.0  0.37826  0.7198  0.28686  1.0000
  H   H107      1.0  0.38614  0.85719  0.3072699999999999  1.0000
  H   H108      1.0  0.2795  0.98637  0.33038  1.0000
  H   H109      1.0  0.14655  0.02825  0.20422  1.0000
  H   H110      1.0  0.24872000000000002  0.89996  0.18158  1.0000
  H   H111      1.0  0.04181  0.03105  0.34283  1.0000
  H   H112      1.0  0.0053199999999999975  0.2737  0.28114  1.0000
  H   H113      1.0  0.17099  0.17938  0.23063  1.0000
  H   H114      1.0  0.62946  0.86289  0.12213999999999997  1.0000
  H   H115      1.0  0.70845  0.86261  0.0484  1.0000
  H   H116      1.0  0.54072  0.56616  0.04545  1.0000
  H   H117      1.0  0.47204  0.56601  0.11953999999999998  1.0000
  H   H118      1.0  0.60326  0.83824  0.9765599999999998  1.0000
  H   H119      1.0  0.79435  0.64565  0.91307  1.0000
  H   H120      1.0  0.75458  0.59222  0.9957899999999998  1.0000
  H   H121      1.0  0.50276  0.91518  0.38593  1.0000
  H   H122      1.0  0.39875  0.75122  0.40694999999999987  1.0000
  H   H123      1.0  0.83574  0.75261  0.4653799999999999  1.0000
  H   H124      1.0  0.93516  0.9198800000000001  0.446  1.0000
  H   H125      1.0  0.48476  0.6539  0.3671  1.0000
  H   H126      1.0  0.27459  0.53442  0.33389999999999986  1.0000
  H   H127      1.0  0.20918  0.37591  0.44598  1.0000
  H   H128      1.0  0.41057999999999995  0.4993  0.48136  1.0000
  C   C1        1.0  0.19713999999999998  0.31935  0.16672  1.0000
  C   C2        1.0  0.030879999999999998  0.19636  0.1437  1.0000
  C   C3        1.0  0.9444  0.25589  0.15677  1.0000
  C   C4        1.0  0.02165  0.41373  0.19041  1.0000
  C   C5        1.0  0.9044200000000001  0.40326  0.22023  1.0000
  C   C6        1.0  0.88641  0.48056  0.24185  1.0000
  C   C7        1.0  0.9835699999999999  0.5684  0.23404  1.0000
  C   C8        1.0  0.09660000000000005  0.57813  0.2029  1.0000
  C   C9        1.0  0.11576  0.50104  0.18103  1.0000
  C   C10       1.0  0.96981  0.64721  0.26066  1.0000
  C   C11       1.0  0.009689999999999992  0.64451  0.30267  1.0000
  C   C12       1.0  0.9958499999999999  0.71589  0.32963  1.0000
  C   C13       1.0  0.93685  0.7882  0.3139299999999999  1.0000
  C   C14       1.0  0.8937  0.79183  0.27209  1.0000
  C   C15       1.0  0.9138  0.72084  0.24545999999999996  1.0000
  C   C16       1.0  0.8261600000000001  0.86754  0.25729  1.0000
  C   C17       1.0  0.82985  0.89291  0.21512  1.0000
  C   C18       1.0  0.76941  0.96579  0.20176  1.0000
  C   C19       1.0  0.70156  0.01467  0.23044  1.0000
  C   C20       1.0  0.6984099999999999  0.99177  0.27252  1.0000
  C   C21       1.0  0.75875  0.91865  0.2854199999999999  1.0000
  C   C22       1.0  0.55183  0.08465  0.17992  1.0000
  C   C23       1.0  0.53168  0.20744000000000004  0.2138  1.0000
  C   C24       1.0  0.6167  0.16302  0.23861999999999994  1.0000
  C   C25       1.0  0.04199000000000003  0.71522  0.3737399999999999  1.0000
  C   C26       1.0  0.10748000000000005  0.7982  0.3947699999999999  1.0000
  C   C27       1.0  0.15067  0.79849  0.4363399999999999  1.0000
  C   C28       1.0  0.12509  0.71491  0.45813  1.0000
  C   C29       1.0  0.060749999999999964  0.63137  0.43783  1.0000
  C   C30       1.0  0.02150999999999997  0.63187  0.39597  1.0000
  C   C31       1.0  0.14994999999999994  0.78032  0.52979  1.0000
  C   C32       1.0  0.24582999999999997  0.67843  0.5618  1.0000
  C   C33       1.0  0.22570000000000004  0.64973  0.5213099999999998  1.0000
  C   C34       1.0  0.2818  0.02325  0.10178  1.0000
  C   C35       1.0  0.22317  0.92646  0.08706999999999997  1.0000
  C   C36       1.0  0.07119999999999999  0.87774  0.09721999999999997  1.0000
  C   C37       1.0  0.01449999999999998  0.78582  0.08572999999999997  1.0000
  C   C38       1.0  0.11239  0.74074  0.0644  1.0000
  C   C39       1.0  0.26237  0.78886  0.05284  1.0000
  C   C40       1.0  0.31655  0.88143  0.06388  1.0000
  C   C41       1.0  0.95485  0.58505  0.07332  1.0000
  C   C42       1.0  0.9200899999999999  0.59435  0.11516  1.0000
  C   C43       1.0  0.80288  0.52743  0.13387  1.0000
  C   C44       1.0  0.7241299999999999  0.44898  0.11208999999999997  1.0000
  C   C45       1.0  0.7668999999999999  0.43745  0.07088  1.0000
  C   C46       1.0  0.88005  0.50565  0.05124999999999998  1.0000
  C   C47       1.0  0.59475  0.37971  0.13276  1.0000
  C   C48       1.0  0.29933  0.6803  0.6669099999999998  1.0000
  C   C49       1.0  0.46481999999999996  0.80369  0.64387  1.0000
  C   C50       1.0  0.5518  0.74412  0.65662  1.0000
  C   C51       1.0  0.47619  0.58607  0.6901399999999998  1.0000
  C   C52       1.0  0.59345  0.5969300000000001  0.71999  1.0000
  C   C53       1.0  0.61228  0.51981  0.74168  1.0000
  C   C54       1.0  0.51594  0.43176  0.73386  1.0000
  C   C55       1.0  0.40322  0.42162  0.7026  1.0000
  C   C56       1.0  0.3832  0.4985500000000001  0.68066  1.0000
  C   C57       1.0  0.53018  0.35312  0.76059  1.0000
  C   C58       1.0  0.4907  0.35595  0.8026199999999998  1.0000
  C   C59       1.0  0.50449  0.28454  0.8296399999999998  1.0000
  C   C60       1.0  0.56329  0.21217  0.81403  1.0000
  C   C61       1.0  0.6062699999999999  0.20851  0.7722  1.0000
  C   C62       1.0  0.5860500000000001  0.27945  0.74548  1.0000
  C   C63       1.0  0.67372  0.13281  0.75748  1.0000
  C   C64       1.0  0.66957  0.10733  0.71535  1.0000
  C   C65       1.0  0.72963  0.03432  0.7020799999999998  1.0000
  C   C66       1.0  0.79756  0.9854700000000002  0.7308199999999998  1.0000
  C   C67       1.0  0.80154  0.00862  0.77286  1.0000
  C   C68       1.0  0.74152  0.08187  0.78566  1.0000
  C   C69       1.0  0.94563  0.91499  0.68026  1.0000
  C   C70       1.0  0.9654  0.7919800000000001  0.71416  1.0000
  C   C71       1.0  0.88147  0.83674  0.73908  1.0000
  C   C72       1.0  0.45817  0.28516  0.87372  1.0000
  C   C73       1.0  0.39201  0.20213  0.8947099999999998  1.0000
  C   C74       1.0  0.34829  0.20172  0.93623  1.0000
  C   C75       1.0  0.37388999999999994  0.28527  0.95799  1.0000
  C   C76       1.0  0.43902  0.36882  0.9377299999999997  1.0000
  C   C77       1.0  0.47889000000000004  0.36843  0.8959299999999998  1.0000
  C   C78       1.0  0.34753  0.22  0.029709999999999993  1.0000
  C   C79       1.0  0.252  0.32225  0.061429999999999985  1.0000
  C   C80       1.0  0.27247  0.35074  0.0209  1.0000
  C   C81       1.0  0.21199  0.97672  0.60156  1.0000
  C   C82       1.0  0.27273  0.07314  0.58656  1.0000
  C   C83       1.0  0.42483  0.12119  0.59689  1.0000
  C   C84       1.0  0.48286000000000007  0.21299  0.58535  1.0000
  C   C85       1.0  0.38594  0.25856  0.56385  1.0000
  C   C86       1.0  0.23624999999999996  0.21088  0.55179  1.0000
  C   C87       1.0  0.18098  0.11839  0.5628799999999998  1.0000
  C   C88       1.0  0.54501  0.41385  0.57309  1.0000
  C   C89       1.0  0.57931  0.40469  0.61498  1.0000
  C   C90       1.0  0.6956  0.47216  0.63367  1.0000
  C   C91       1.0  0.77393  0.55073  0.61181  1.0000
  C   C92       1.0  0.73229  0.56162  0.57047  1.0000
  C   C93       1.0  0.6201  0.49301  0.5508599999999998  1.0000
  C   C94       1.0  0.90214  0.62035  0.63262  1.0000
  C   C95       1.0  0.8028399999999999  0.68065  0.83328  1.0000
  C   C96       1.0  0.9691  0.80364  0.8562999999999997  1.0000
  C   C97       1.0  0.055590000000000084  0.7441100000000002  0.84323  1.0000
  C   C98       1.0  0.9783300000000001  0.58627  0.8095899999999998  1.0000
  C   C99       1.0  0.09556000000000005  0.59673  0.77977  1.0000
  C   C100      1.0  0.11357000000000002  0.51944  0.75815  1.0000
  C   C101      1.0  0.016410000000000008  0.4316  0.76596  1.0000
  C   C102      1.0  0.9033800000000001  0.42187  0.7970999999999998  1.0000
  C   C103      1.0  0.88422  0.49896000000000007  0.81897  1.0000
  C   C104      1.0  0.030170000000000002  0.35279  0.7393499999999997  1.0000
  C   C105      1.0  0.99029  0.35549  0.69733  1.0000
  C   C106      1.0  0.004129999999999994  0.28411  0.67037  1.0000
  C   C107      1.0  0.06313  0.2118  0.6860699999999997  1.0000
  C   C108      1.0  0.10629  0.20817  0.7279099999999997  1.0000
  C   C109      1.0  0.08617999999999999  0.27916  0.7545399999999998  1.0000
  C   C110      1.0  0.17381999999999997  0.13246  0.74271  1.0000
  C   C111      1.0  0.17012999999999995  0.10709  0.78488  1.0000
  C   C112      1.0  0.23057999999999998  0.03420999999999999  0.79824  1.0000
  C   C113      1.0  0.29842  0.98533  0.7695599999999998  1.0000
  C   C114      1.0  0.30156999999999995  0.00823  0.72748  1.0000
  C   C115      1.0  0.24122999999999997  0.08135000000000002  0.7145799999999998  1.0000
  C   C116      1.0  0.44815  0.91535  0.8200799999999998  1.0000
  C   C117      1.0  0.46830999999999995  0.79256  0.7861999999999998  1.0000
  C   C118      1.0  0.38328  0.83698  0.76138  1.0000
  C   C119      1.0  0.9579899999999999  0.28478  0.62626  1.0000
  C   C120      1.0  0.8924999999999998  0.2018  0.60523  1.0000
  C   C121      1.0  0.84932  0.20151  0.56366  1.0000
  C   C122      1.0  0.8749  0.28509  0.54187  1.0000
  C   C123      1.0  0.9392299999999999  0.36863000000000007  0.56217  1.0000
  C   C124      1.0  0.9784700000000001  0.36813  0.60403  1.0000
  C   C125      1.0  0.85006  0.21968  0.4702099999999999  1.0000
  C   C126      1.0  0.75418  0.3215700000000001  0.4382  1.0000
  C   C127      1.0  0.7743  0.35027  0.4786899999999999  1.0000
  C   C128      1.0  0.71819  0.97676  0.89822  1.0000
  C   C129      1.0  0.77682  0.07355000000000002  0.91293  1.0000
  C   C130      1.0  0.9287799999999999  0.12226  0.90278  1.0000
  C   C131      1.0  0.9854799999999999  0.21419  0.9142699999999998  1.0000
  C   C132      1.0  0.88759  0.25926  0.9356  1.0000
  C   C133      1.0  0.73761  0.21114  0.9471599999999998  1.0000
  C   C134      1.0  0.68343  0.11857  0.9361199999999997  1.0000
  C   C135      1.0  0.04514000000000001  0.41495  0.9266799999999998  1.0000
  C   C136      1.0  0.07990000000000003  0.40565000000000007  0.88484  1.0000
  C   C137      1.0  0.1971  0.47257  0.86613  1.0000
  C   C138      1.0  0.27585  0.55102  0.88791  1.0000
  C   C139      1.0  0.23308999999999996  0.56255  0.9291199999999997  1.0000
  C   C140      1.0  0.11993  0.49435  0.94875  1.0000
  C   C141      1.0  0.4052399999999999  0.62029  0.8672399999999998  1.0000
  C   C142      1.0  0.70064  0.3197  0.3330899999999999  1.0000
  C   C143      1.0  0.53515  0.19631  0.35613  1.0000
  C   C144      1.0  0.44817  0.25588  0.34338  1.0000
  C   C145      1.0  0.52379  0.41392  0.30986  1.0000
  C   C146      1.0  0.40652  0.40307  0.2800199999999999  1.0000
  C   C147      1.0  0.3877  0.48019  0.25833  1.0000
  C   C148      1.0  0.48405000000000004  0.56824  0.2661399999999999  1.0000
  C   C149      1.0  0.59677  0.57838  0.2973999999999999  1.0000
  C   C150      1.0  0.61678  0.50144  0.31934  1.0000
  C   C151      1.0  0.46979999999999994  0.64687  0.23940999999999996  1.0000
  C   C152      1.0  0.50928  0.64405  0.19738  1.0000
  C   C153      1.0  0.49549999999999994  0.71545  0.17035999999999996  1.0000
  C   C154      1.0  0.4367  0.78782  0.18597  1.0000
  C   C155      1.0  0.39372  0.79148  0.2278  1.0000
  C   C156      1.0  0.41393  0.72055  0.2545199999999999  1.0000
  C   C157      1.0  0.32627  0.8671900000000001  0.24252  1.0000
  C   C158      1.0  0.33042  0.89266  0.2846499999999999  1.0000
  C   C159      1.0  0.27036  0.96568  0.29792  1.0000
  C   C160      1.0  0.20243  0.01453  0.26917999999999986  1.0000
  C   C161      1.0  0.19845  0.99138  0.22714  1.0000
  C   C162      1.0  0.25847  0.91813  0.21433  1.0000
  C   C163      1.0  0.05433  0.085  0.31974  1.0000
  C   C164      1.0  0.03456  0.20801  0.28584  1.0000
  C   C165      1.0  0.11851  0.16325  0.26092  1.0000
  C   C166      1.0  0.54181  0.71484  0.12628  1.0000
  C   C167      1.0  0.60798  0.79786  0.10528999999999997  1.0000
  C   C168      1.0  0.65169  0.79828  0.06377  1.0000
  C   C169      1.0  0.62609  0.71473  0.04201  1.0000
  C   C170      1.0  0.56097  0.63118  0.06227  1.0000
  C   C171      1.0  0.52109  0.63156  0.10407  1.0000
  C   C172      1.0  0.65245  0.78  0.9702899999999998  1.0000
  C   C173      1.0  0.74798  0.67775  0.93857  1.0000
  C   C174      1.0  0.7275200000000001  0.64926  0.97911  1.0000
  C   C175      1.0  0.78799  0.02327  0.39844  1.0000
  C   C176      1.0  0.72725  0.92685  0.41343999999999986  1.0000
  C   C177      1.0  0.57515  0.8788  0.40311  1.0000
  C   C178      1.0  0.51711  0.787  0.41465  1.0000
  C   C179      1.0  0.61402  0.74143  0.43615  1.0000
  C   C180      1.0  0.76372  0.78911  0.44821  1.0000
  C   C181      1.0  0.8189900000000001  0.8816  0.4371199999999999  1.0000
  C   C182      1.0  0.45495  0.58615  0.4269  1.0000
  C   C183      1.0  0.42066  0.59532  0.385  1.0000
  C   C184      1.0  0.30436  0.52786  0.3663099999999999  1.0000
  C   C185      1.0  0.22603  0.44928  0.38816  1.0000
  C   C186      1.0  0.26765  0.43838  0.4295  1.0000
  C   C187      1.0  0.37984  0.50697  0.44912  1.0000
  C   C188      1.0  0.09784  0.37964  0.3673599999999999  1.0000
  N   N1        1.0  0.1877  0.23654  0.15013  1.0000
  N   N2        1.0  0.05158999999999997  0.33411  0.17111  1.0000
  N   N3        1.0  0.49084  0.15739  0.17744  1.0000
  N   N4        1.0  0.6305  0.08517  0.2166  1.0000
  N   N5        1.0  0.19760999999999995  0.75942  0.5668  1.0000
  N   N6        1.0  0.16509  0.71535  0.50083  1.0000
  N   N7        1.0  0.30826  0.76331  0.65049  1.0000
  N   N8        1.0  0.44515000000000005  0.6656400000000002  0.67096  1.0000
  N   N9        1.0  0.005810000000000017  0.84195  0.6777199999999998  1.0000
  N   N10       1.0  0.86787  0.91471  0.71704  1.0000
  N   N11       1.0  0.29985  0.24117  0.06664  1.0000
  N   N12       1.0  0.33298  0.28491  0.00062  1.0000
  N   N13       1.0  0.81229  0.76346  0.8498699999999998  1.0000
  N   N14       1.0  0.94839  0.66589  0.82889  1.0000
  N   N15       1.0  0.50915  0.84261  0.82256  1.0000
  N   N16       1.0  0.36948  0.91483  0.7834  1.0000
  N   N17       1.0  0.8024  0.24058  0.4332  1.0000
  N   N18       1.0  0.83491  0.28465  0.49917  1.0000
  N   N19       1.0  0.69171  0.23668  0.34951  1.0000
  N   N20       1.0  0.55483  0.33436  0.32904  1.0000
  N   N21       1.0  0.99414  0.15803  0.32228  1.0000
  N   N22       1.0  0.13211  0.08529  0.28296  1.0000
  N   N23       1.0  0.70014  0.75883  0.9333599999999997  1.0000
  N   N24       1.0  0.66701  0.71509  0.9993899999999999  1.0000
  O   O1        1.0  0.40952  0.07419  0.08756  1.0000
  O   O2        1.0  0.20385  0.054380000000000005  0.12912  1.0000
  O   O3        1.0  0.06831  0.64905  0.05185  1.0000
  O   O4        1.0  0.53144  0.40418  0.16449  1.0000
  O   O5        1.0  0.55914  0.29985000000000006  0.115  1.0000
  O   O6        1.0  0.08367000000000002  0.92626  0.58751  1.0000
  O   O7        1.0  0.28927  0.94537  0.62909  1.0000
  O   O8        1.0  0.43145  0.35031  0.55153  1.0000
  O   O9        1.0  0.9633099999999999  0.59578  0.66469  1.0000
  O   O10       1.0  0.9388699999999999  0.70018  0.61479  1.0000
  O   O11       1.0  0.59046  0.92582  0.91244  1.0000
  O   O12       1.0  0.7961399999999998  0.94561  0.87088  1.0000
  O   O13       1.0  0.9316700000000001  0.35095000000000004  0.94815  1.0000
  O   O14       1.0  0.46854  0.59582  0.8355099999999998  1.0000
  O   O15       1.0  0.44085  0.70015  0.885  1.0000
  O   O16       1.0  0.9163099999999998  0.07373  0.41249  1.0000
  O   O17       1.0  0.71071  0.05462  0.37091  1.0000
  O   O18       1.0  0.56852  0.64968  0.44846  1.0000
  O   O19       1.0  0.03672000000000001  0.40419  0.3352799999999999  1.0000
  O   O20       1.0  0.06106999999999997  0.29984  0.3852199999999999  1.0000
