data_image0
_chemical_formula_structural       Co3H72C132N24
_chemical_formula_sum              "Co3 H72 C132 N24"
_cell_length_a       9.32676
_cell_length_b       19.11864
_cell_length_c       19.11832
_cell_angle_alpha    117.55349999999999
_cell_angle_beta     99.42243
_cell_angle_gamma    99.39264

_space_group_name_H-M_alt    "P 1"
_space_group_IT_number       1

loop_
  _space_group_symop_operation_xyz
  'x, y, z'

loop_
  _atom_site_type_symbol
  _atom_site_label
  _atom_site_symmetry_multiplicity
  _atom_site_fract_x
  _atom_site_fract_y
  _atom_site_fract_z
  _atom_site_occupancy
  Co  Co1       1.0  0.49999  0.0  0.50001  1.0000
  Co  Co2       1.0  0.99808  0.49899  0.49958  1.0000
  Co  Co3       1.0  0.50118  0.49998  0.00051  1.0000
  H   H1        1.0  0.9859100000000001  0.23634000000000002  0.5814  1.0000
  H   H2        1.0  0.08023999999999996  0.15145999999999996  0.65166  1.0000
  H   H3        1.0  0.81787  0.8823299999999998  0.65487  1.0000
  H   H4        1.0  0.53306  0.78603  0.59934  1.0000
  H   H5        1.0  0.85152  0.18395999999999998  0.39431  1.0000
  H   H6        1.0  0.9596500000000001  0.31453  0.39854  1.0000
  H   H7        1.0  0.6481  0.32071  0.58346  1.0000
  H   H8        1.0  0.7645800000000001  0.44589000000000006  0.5798200000000002  1.0000
  H   H9        1.0  0.09078  0.98324  0.56142  1.0000
  H   H10       1.0  0.33598999999999996  0.9884999999999999  0.63874  1.0000
  H   H11       1.0  0.17328000000000005  0.05641999999999997  0.85372  1.0000
  H   H12       1.0  0.92408  0.04748  0.77405  1.0000
  H   H13       1.0  0.0141  0.76365  0.4186  1.0000
  H   H14       1.0  0.9197800000000003  0.84854  0.3483400000000001  1.0000
  H   H15       1.0  0.18214  0.11765999999999999  0.34511  1.0000
  H   H16       1.0  0.46692000000000006  0.21397  0.40066  1.0000
  H   H17       1.0  0.14845000000000008  0.81595  0.6057000000000002  1.0000
  H   H18       1.0  0.04015999999999989  0.6853899999999999  0.60143  1.0000
  H   H19       1.0  0.3517700000000001  0.67919  0.4165500000000001  1.0000
  H   H20       1.0  0.23512  0.554  0.42012  1.0000
  H   H21       1.0  0.9092000000000001  0.016750000000000015  0.43858  1.0000
  H   H22       1.0  0.66401  0.011499999999999984  0.36125  1.0000
  H   H23       1.0  0.8267399999999999  0.94359  0.14628  1.0000
  H   H24       1.0  0.07593000000000001  0.95252  0.22596  1.0000
  H   H25       1.0  0.40348  0.41906  0.65507  1.0000
  H   H26       1.0  0.42802  0.34876000000000007  0.4997500000000001  1.0000
  H   H27       1.0  0.16280999999999998  0.34492999999999996  0.22675000000000006  1.0000
  H   H28       1.0  0.93449  0.4007899999999999  0.18622  1.0000
  H   H29       1.0  0.4572700000000001  0.6059800000000001  0.7906900000000001  1.0000
  H   H30       1.0  0.5616400000000003  0.6012200000000002  0.9165400000000002  1.0000
  H   H31       1.0  0.06367000000000003  0.41673  0.73708  1.0000
  H   H32       1.0  0.18444000000000013  0.4199200000000001  0.8655500000000003  1.0000
  H   H33       1.0  0.5292600000000001  0.4388099999999999  0.42148  1.0000
  H   H34       1.0  0.6973000000000001  0.36154  0.3496200000000001  1.0000
  H   H35       1.0  0.3195  0.14579  0.2023  1.0000
  H   H36       1.0  0.14968  0.22533999999999998  0.27272  1.0000
  H   H37       1.0  0.5967500000000001  0.58115  0.34499  1.0000
  H   H38       1.0  0.5721500000000002  0.65145  0.5002900000000002  1.0000
  H   H39       1.0  0.83739  0.65526  0.77331  1.0000
  H   H40       1.0  0.06577  0.5994  0.81383  1.0000
  H   H41       1.0  0.5427200000000001  0.3940199999999999  0.2093  1.0000
  H   H42       1.0  0.43856000000000006  0.39885  0.08346  1.0000
  H   H43       1.0  0.9365400000000002  0.5832700000000001  0.26311  1.0000
  H   H44       1.0  0.81597  0.58013  0.13462  1.0000
  H   H45       1.0  0.47059  0.56118  0.57851  1.0000
  H   H46       1.0  0.30252000000000007  0.63846  0.6503  1.0000
  H   H47       1.0  0.6804800000000001  0.85418  0.7976800000000002  1.0000
  H   H48       1.0  0.8502600000000003  0.77461  0.7272500000000002  1.0000
  H   H49       1.0  0.74809  0.34451  0.76371  1.0000
  H   H50       1.0  0.92791  0.50017  0.8489000000000002  1.0000
  H   H51       1.0  0.93587  0.7737799999999999  0.11844000000000003  1.0000
  H   H52       1.0  0.74761  0.8145  0.2147  1.0000
  H   H53       1.0  0.6665500000000001  0.20945999999999995  0.8155  1.0000
  H   H54       1.0  0.64462  0.08326000000000008  0.6845700000000002  1.0000
  H   H55       1.0  0.32657  0.26208  0.6791  1.0000
  H   H56       1.0  0.31828  0.13328999999999994  0.55353  1.0000
  H   H57       1.0  0.10814999999999997  0.57884  0.01735  1.0000
  H   H58       1.0  0.34787  0.65063  0.0118  1.0000
  H   H59       1.0  0.1165900000000001  0.79723  0.9438500000000002  1.0000
  H   H60       1.0  0.8766300000000001  0.7267900000000002  0.9531000000000002  1.0000
  H   H61       1.0  0.2518  0.65561  0.23624000000000006  1.0000
  H   H62       1.0  0.07206000000000003  0.49993999999999994  0.15101000000000006  1.0000
  H   H63       1.0  0.06419000000000014  0.22640000000000013  0.8815600000000002  1.0000
  H   H64       1.0  0.25239999999999996  0.18568  0.78528  1.0000
  H   H65       1.0  0.33355  0.79054  0.18452  1.0000
  H   H66       1.0  0.35537  0.91675  0.31545  1.0000
  H   H67       1.0  0.6735399999999999  0.7380099999999999  0.32101  1.0000
  H   H68       1.0  0.68175  0.8668  0.44656  1.0000
  H   H69       1.0  0.8920700000000001  0.42118  0.98267  1.0000
  H   H70       1.0  0.6523  0.34934999999999994  0.9881500000000001  1.0000
  H   H71       1.0  0.8834900000000001  0.20276  0.05614  1.0000
  H   H72       1.0  0.12348000000000002  0.2732  0.04694  1.0000
  C   C1        1.0  0.7656900000000002  0.13827  0.53038  1.0000
  C   C2        1.0  0.92222  0.18070000000000003  0.57645  1.0000
  C   C3        1.0  0.97059  0.13725  0.61136  1.0000
  C   C4        1.0  0.8437500000000001  0.0680200000000001  0.5867100000000002  1.0000
  C   C5        1.0  0.8438  0.011480000000000023  0.61476  1.0000
  C   C6        1.0  0.71545  0.95113  0.60047  1.0000
  C   C7        1.0  0.7183200000000001  0.8882300000000001  0.6223700000000002  1.0000
  C   C8        1.0  0.57399  0.83862  0.59307  1.0000
  C   C9        1.0  0.48226999999999987  0.8705999999999999  0.55267  1.0000
  C   C10       1.0  0.67213  0.16556999999999997  0.48857  1.0000
  C   C11       1.0  0.7417700000000002  0.24192999999999998  0.48952  1.0000
  C   C12       1.0  0.83106  0.24087000000000003  0.4371000000000001  1.0000
  C   C13       1.0  0.89122  0.31351  0.4391100000000001  1.0000
  C   C14       1.0  0.7169000000000001  0.3169  0.54168  1.0000
  C   C15       1.0  0.7812800000000001  0.38676  0.53978  1.0000
  C   C16       1.0  0.99085  0.015480000000000084  0.6626000000000002  1.0000
  C   C17       1.0  0.10854000000000003  0.9992500000000001  0.62528  1.0000
  C   C18       1.0  0.2466000000000001  0.002040000000000093  0.6685900000000002  1.0000
  C   C19       1.0  0.27108  0.022829999999999996  0.75129  1.0000
  C   C20       1.0  0.15379000000000018  0.03912000000000011  0.7894600000000003  1.0000
  C   C21       1.0  0.015020000000000132  0.03468000000000012  0.7449000000000002  1.0000
  C   C22       1.0  0.4172100000000001  0.029619999999999973  0.79475  1.0000
  C   C23       1.0  0.23431000000000007  0.8617100000000001  0.46962  1.0000
  C   C24       1.0  0.07777999999999995  0.8192899999999999  0.42354  1.0000
  C   C25       1.0  0.02941999999999999  0.8627399999999998  0.38864  1.0000
  C   C26       1.0  0.15625999999999998  0.93198  0.4133  1.0000
  C   C27       1.0  0.1561800000000001  0.98852  0.38525  1.0000
  C   C28       1.0  0.28452  0.04888000000000001  0.39954  1.0000
  C   C29       1.0  0.2816700000000001  0.11175999999999998  0.37763  1.0000
  C   C30       1.0  0.426  0.16137  0.40693  1.0000
  C   C31       1.0  0.5176900000000001  0.12939000000000003  0.44734  1.0000
  C   C32       1.0  0.32782  0.83438  0.51144  1.0000
  C   C33       1.0  0.25814999999999994  0.7579899999999999  0.51048  1.0000
  C   C34       1.0  0.16884  0.7590200000000001  0.56289  1.0000
  C   C35       1.0  0.10855000000000004  0.68633  0.56082  1.0000
  C   C36       1.0  0.28292000000000006  0.6829900000000001  0.4583200000000001  1.0000
  C   C37       1.0  0.21833000000000002  0.6131  0.46018  1.0000
  C   C38       1.0  0.009139999999999981  0.9845099999999999  0.3374000000000001  1.0000
  C   C39       1.0  0.8914600000000001  0.0007500000000000113  0.37472  1.0000
  C   C40       1.0  0.7534000000000002  0.99796  0.3314100000000001  1.0000
  C   C41       1.0  0.72893  0.97718  0.24871000000000001  1.0000
  C   C42       1.0  0.8462199999999999  0.9608999999999999  0.21055  1.0000
  C   C43       1.0  0.98498  0.9653299999999999  0.25511  1.0000
  C   C44       1.0  0.5828000000000001  0.9704  0.20525000000000004  1.0000
  C   C45       1.0  0.23452  0.46975  0.60792  1.0000
  C   C46       1.0  0.3449600000000002  0.42387000000000014  0.6042600000000002  1.0000
  C   C47       1.0  0.35856000000000005  0.38893  0.5258  1.0000
  C   C48       1.0  0.25637  0.4133099999999999  0.48111  1.0000
  C   C49       1.0  0.22859000000000002  0.38503999999999994  0.39632  1.0000
  C   C50       1.0  0.11464999999999999  0.3991799999999999  0.35016  1.0000
  C   C51       1.0  0.09589999999999996  0.37740999999999997  0.26529  1.0000
  C   C52       1.0  0.9812800000000003  0.40684000000000003  0.24508000000000005  1.0000
  C   C53       1.0  0.92974  0.44702  0.31754  1.0000
  C   C54       1.0  0.18286999999999992  0.5115499999999998  0.67721  1.0000
  C   C55       1.0  0.2516700000000001  0.51065  0.7526900000000002  1.0000
  C   C56       1.0  0.39383000000000007  0.56299  0.80436  1.0000
  C   C57       1.0  0.45238  0.5606600000000002  0.8747700000000003  1.0000
  C   C58       1.0  0.17466000000000004  0.45838999999999996  0.7752  1.0000
  C   C59       1.0  0.2414500000000001  0.46002000000000004  0.8467800000000002  1.0000
  C   C60       1.0  0.3279000000000001  0.33723  0.3524600000000001  1.0000
  C   C61       1.0  0.48309  0.37478  0.37366  1.0000
  C   C62       1.0  0.5779800000000002  0.33150999999999997  0.3332900000000001  1.0000
  C   C63       1.0  0.51987  0.24858  0.27141  1.0000
  C   C64       1.0  0.36426000000000003  0.21019  0.24936  1.0000
  C   C65       1.0  0.26989  0.25471  0.28931  1.0000
  C   C66       1.0  0.62263  0.20518  0.23486000000000004  1.0000
  C   C67       1.0  0.7649100000000002  0.52999  0.39199  1.0000
  C   C68       1.0  0.6549700000000003  0.57616  0.39575  1.0000
  C   C69       1.0  0.64132  0.6111  0.47421000000000013  1.0000
  C   C70       1.0  0.7429700000000001  0.58644  0.51882  1.0000
  C   C71       1.0  0.771  0.61476  0.60362  1.0000
  C   C72       1.0  0.88488  0.60051  0.64973  1.0000
  C   C73       1.0  0.90405  0.62259  0.73471  1.0000
  C   C74       1.0  0.018699999999999984  0.59319  0.75493  1.0000
  C   C75       1.0  0.06981000000000014  0.5527100000000001  0.6823700000000003  1.0000
  C   C76       1.0  0.81681  0.48825999999999997  0.32277  1.0000
  C   C77       1.0  0.7483400000000001  0.48933999999999994  0.24737  1.0000
  C   C78       1.0  0.6062100000000001  0.43701999999999996  0.19567000000000007  1.0000
  C   C79       1.0  0.5478  0.43936  0.12527  1.0000
  C   C80       1.0  0.82555  0.5416199999999999  0.22495  1.0000
  C   C81       1.0  0.7589500000000002  0.54003  0.15338  1.0000
  C   C82       1.0  0.6719499999999999  0.6627299999999999  0.64754  1.0000
  C   C83       1.0  0.51676  0.62521  0.62634  1.0000
  C   C84       1.0  0.4218700000000001  0.66849  0.6666900000000002  1.0000
  C   C85       1.0  0.48007000000000005  0.7514099999999999  0.7285800000000002  1.0000
  C   C86       1.0  0.63569  0.7897899999999999  0.75062  1.0000
  C   C87       1.0  0.7300400000000001  0.74525  0.7106800000000002  1.0000
  C   C88       1.0  0.37736  0.7948399999999999  0.76515  1.0000
  C   C89       1.0  0.62708  0.39187000000000005  0.8619900000000003  1.0000
  C   C90       1.0  0.7406700000000003  0.39544  0.81951  1.0000
  C   C91       1.0  0.8327400000000004  0.47403000000000006  0.8631000000000002  1.0000
  C   C92       1.0  0.77589  0.5188  0.9325  1.0000
  C   C93       1.0  0.8328500000000001  0.60368  0.98917  1.0000
  C   C94       1.0  0.7652299999999999  0.64994  0.04962  1.0000
  C   C95       1.0  0.83071  0.73514  0.11255  1.0000
  C   C96       1.0  0.73612  0.75542  0.16209000000000007  1.0000
  C   C97       1.0  0.6127  0.6826399999999999  0.12996000000000005  1.0000
  C   C98       1.0  0.50601  0.32254999999999995  0.83435  1.0000
  C   C99       1.0  0.49909  0.24697000000000008  0.7577800000000002  1.0000
  C   C100      1.0  0.58943  0.19551  0.75862  1.0000
  C   C101      1.0  0.57736  0.12495999999999997  0.68575  1.0000
  C   C102      1.0  0.3993500000000001  0.22413000000000002  0.68276  1.0000
  C   C103      1.0  0.39422  0.15242  0.61265  1.0000
  C   C104      1.0  0.97569  0.6475599999999999  0.98512  1.0000
  C   C105      1.0  0.10971000000000002  0.62652  0.00125  1.0000
  C   C106      1.0  0.24484000000000006  0.6668499999999999  0.99825  1.0000
  C   C107      1.0  0.24830000000000016  0.7285200000000001  0.9773100000000002  1.0000
  C   C108      1.0  0.11464000000000008  0.7503899999999999  0.96116  1.0000
  C   C109      1.0  0.98044  0.71045  0.9658  1.0000
  C   C110      1.0  0.38745000000000007  0.7650299999999999  0.97036  1.0000
  C   C111      1.0  0.37335  0.6081599999999999  0.1382  1.0000
  C   C112      1.0  0.25946  0.60465  0.18054  1.0000
  C   C113      1.0  0.16743000000000002  0.52606  0.13694  1.0000
  C   C114      1.0  0.22462  0.48124  0.06769  1.0000
  C   C115      1.0  0.16754000000000005  0.39637  0.011  1.0000
  C   C116      1.0  0.23523000000000002  0.35012999999999994  0.9506  1.0000
  C   C117      1.0  0.16950000000000018  0.2650000000000001  0.8875300000000003  1.0000
  C   C118      1.0  0.26406  0.24470999999999998  0.83798  1.0000
  C   C119      1.0  0.38771999999999995  0.31743999999999994  0.87026  1.0000
  C   C120      1.0  0.49433  0.6775  0.16582  1.0000
  C   C121      1.0  0.5010600000000001  0.7531099999999998  0.24230000000000004  1.0000
  C   C122      1.0  0.41067000000000004  0.8045199999999999  0.24142  1.0000
  C   C123      1.0  0.42267  0.87507  0.31428  1.0000
  C   C124      1.0  0.60076  0.77596  0.31734  1.0000
  C   C125      1.0  0.6058300000000001  0.8476599999999999  0.38743  1.0000
  C   C126      1.0  0.02454999999999998  0.35249  0.014960000000000001  1.0000
  C   C127      1.0  0.89052  0.3735200000000001  0.9987900000000001  1.0000
  C   C128      1.0  0.75535  0.33316999999999997  0.0017400000000000004  1.0000
  C   C129      1.0  0.7518300000000002  0.27149  0.02269  1.0000
  C   C130      1.0  0.8854700000000001  0.24961999999999998  0.038850000000000016  1.0000
  C   C131      1.0  0.019700000000000006  0.28957  0.03425  1.0000
  C   C132      1.0  0.6126499999999999  0.23501  0.02964  1.0000
  N   N1        1.0  0.7212600000000002  0.06930999999999995  0.53636  1.0000
  N   N2        1.0  0.56985  0.94008  0.55936  1.0000
  N   N3        1.0  0.86804  0.38569  0.48964  1.0000
  N   N4        1.0  0.54048  0.036399999999999995  0.8274  1.0000
  N   N5        1.0  0.27874000000000004  0.93068  0.4636600000000001  1.0000
  N   N6        1.0  0.43011000000000005  0.05993000000000005  0.4406600000000001  1.0000
  N   N7        1.0  0.13151000000000002  0.6141  0.51027  1.0000
  N   N8        1.0  0.45953  0.96363  0.17261  1.0000
  N   N9        1.0  0.18408  0.46355  0.5328  1.0000
  N   N10       1.0  0.01016000000000004  0.44015  0.38029000000000013  1.0000
  N   N11       1.0  0.3787900000000002  0.5100100000000001  0.8961000000000002  1.0000
  N   N12       1.0  0.71327  0.17264  0.20902  1.0000
  N   N13       1.0  0.81478  0.53592  0.46702  1.0000
  N   N14       1.0  0.9889700000000001  0.55927  0.6195  1.0000
  N   N15       1.0  0.62162  0.49005999999999994  0.10404000000000002  1.0000
  N   N16       1.0  0.28677  0.82741  0.79103  1.0000
  N   N17       1.0  0.6522600000000001  0.46704999999999997  0.93118  1.0000
  N   N18       1.0  0.63094  0.61964  0.06058  1.0000
  N   N19       1.0  0.48230000000000006  0.10340999999999996  0.61353  1.0000
  N   N20       1.0  0.50394  0.79077  0.96357  1.0000
  N   N21       1.0  0.34851  0.53294  0.06914  1.0000
  N   N22       1.0  0.36972  0.38039  0.9397600000000003  1.0000
  N   N23       1.0  0.5177100000000001  0.89664  0.38652  1.0000
  N   N24       1.0  0.49616000000000005  0.20929  0.03645  1.0000
