data_image0
_chemical_formula_structural       Fe8Ag24H96C168N56
_chemical_formula_sum              "Fe8 Ag24 H96 C168 N56"
_cell_length_a       12.15176
_cell_length_b       17.14338
_cell_length_c       31.636330000000005
_cell_angle_alpha    89.99126
_cell_angle_beta     89.98343999999999
_cell_angle_gamma    90.00045

_symmetry_space_group_name_H-M    'P 1'
_symmetry_Int_Tables_number       1

loop_
  _symmetry_equiv_pos_as_xyz
  'x,y,z'

loop_
  _atom_site_type_symbol
  _atom_site_label
  _atom_site_symmetry_multiplicity
  _atom_site_fract_x
  _atom_site_fract_y
  _atom_site_fract_z
  _atom_site_occupancy
  Fe  Fe1       1.0  0.25063  0.9991099999999999  0.42378  1.0000
  Fe  Fe2       1.0  0.7495300000000003  0.99927  0.07622  1.0000
  Fe  Fe3       1.0  0.74984  0.00091  0.5762999999999998  1.0000
  Fe  Fe4       1.0  0.25053  0.00101  0.92378  1.0000
  Fe  Fe5       1.0  0.7494400000000002  0.5002  0.42824  1.0000
  Fe  Fe6       1.0  0.25059  0.49992  0.07177  1.0000
  Fe  Fe7       1.0  0.25106  0.50044  0.57176  1.0000
  Fe  Fe8       1.0  0.7490500000000002  0.50047  0.9282299999999998  1.0000
  Ag  Ag1       1.0  0.48801000000000005  0.25642  0.43508  1.0000
  Ag  Ag2       1.0  0.9116300000000002  0.17433  0.45831  1.0000
  Ag  Ag3       1.0  0.56873  0.30837  0.53073  1.0000
  Ag  Ag4       1.0  0.01173  0.7433399999999999  0.43508999999999987  1.0000
  Ag  Ag5       1.0  0.58928  0.82521  0.45841  1.0000
  Ag  Ag6       1.0  0.9319500000000002  0.69148  0.5309199999999997  1.0000
  Ag  Ag7       1.0  0.51199  0.25643  0.06492  1.0000
  Ag  Ag8       1.0  0.08836  0.1742  0.041689999999999984  1.0000
  Ag  Ag9       1.0  0.43124  0.30829  0.9692299999999998  1.0000
  Ag  Ag10      1.0  0.98837  0.7433  0.06505  1.0000
  Ag  Ag11      1.0  0.41088  0.82534  0.04154  1.0000
  Ag  Ag12      1.0  0.06817000000000001  0.69147  0.96909  1.0000
  Ag  Ag13      1.0  0.51248  0.74346  0.5649  1.0000
  Ag  Ag14      1.0  0.0884  0.82576  0.5416799999999998  1.0000
  Ag  Ag15      1.0  0.43125  0.6917  0.4692399999999999  1.0000
  Ag  Ag16      1.0  0.9884900000000002  0.25716  0.56494  1.0000
  Ag  Ag17      1.0  0.41086  0.17475  0.54158  1.0000
  Ag  Ag18      1.0  0.06809  0.30863  0.4691599999999999  1.0000
  Ag  Ag19      1.0  0.4878500000000001  0.74394  0.93502  1.0000
  Ag  Ag20      1.0  0.91169  0.82575  0.9583  1.0000
  Ag  Ag21      1.0  0.56871  0.69169  0.03068  1.0000
  Ag  Ag22      1.0  0.01138  0.25682999999999995  0.93502  1.0000
  Ag  Ag23      1.0  0.5893  0.17486  0.95833  1.0000
  Ag  Ag24      1.0  0.9318400000000001  0.30853  0.03092  1.0000
  H   H1        1.0  0.41134000000000004  0.03865  0.35087  1.0000
  H   H2        1.0  0.41807  0.04083  0.27229  1.0000
  H   H3        1.0  0.4139200000000001  0.9522400000000001  0.21268  1.0000
  H   H4        1.0  0.41409  0.95219  0.13458  1.0000
  H   H5        1.0  0.4218  0.03392  0.07493  1.0000
  H   H6        1.0  0.41442000000000007  0.03248  0.99702  1.0000
  H   H7        1.0  0.58288  0.52381  0.35585  1.0000
  H   H8        1.0  0.57556  0.52455  0.27734  1.0000
  H   H9        1.0  0.59958  0.43362  0.21763  1.0000
  H   H10       1.0  0.60026  0.43247  0.13970999999999995  1.0000
  H   H11       1.0  0.57229  0.49024  0.07912  1.0000
  H   H12       1.0  0.58075  0.48861  0.00144  1.0000
  H   H13       1.0  0.08894  0.9610700000000001  0.35096  1.0000
  H   H14       1.0  0.08181  0.9592500000000002  0.27239999999999986  1.0000
  H   H15       1.0  0.08589  0.04782  0.21263  1.0000
  H   H16       1.0  0.08593000000000002  0.04774  0.13453  1.0000
  H   H17       1.0  0.07839  0.96611  0.0748  1.0000
  H   H18       1.0  0.08605000000000002  0.9683799999999999  0.9969  1.0000
  H   H19       1.0  0.91684  0.47633000000000003  0.35593  1.0000
  H   H20       1.0  0.9245  0.47551  0.27743  1.0000
  H   H21       1.0  0.90059  0.56629  0.21759  1.0000
  H   H22       1.0  0.89994  0.56746  0.13967999999999994  1.0000
  H   H23       1.0  0.92776  0.50976  0.07897  1.0000
  H   H24       1.0  0.91891  0.51152  0.00129  1.0000
  H   H25       1.0  0.58873  0.03871  0.14917  1.0000
  H   H26       1.0  0.58197  0.0409  0.22773999999999994  1.0000
  H   H27       1.0  0.5860500000000001  0.95223  0.28739  1.0000
  H   H28       1.0  0.58599  0.95219  0.36548  1.0000
  H   H29       1.0  0.57823  0.03376  0.42513  1.0000
  H   H30       1.0  0.5856800000000001  0.03224  0.50302  1.0000
  H   H31       1.0  0.41709  0.52379  0.14409  1.0000
  H   H32       1.0  0.42449000000000003  0.52456  0.22259  1.0000
  H   H33       1.0  0.40046  0.43366  0.28237  1.0000
  H   H34       1.0  0.39971  0.43247  0.3602899999999999  1.0000
  H   H35       1.0  0.42767  0.4902000000000001  0.42083  1.0000
  H   H36       1.0  0.41921  0.48856  0.49851  1.0000
  H   H37       1.0  0.9110900000000002  0.96106  0.14909  1.0000
  H   H38       1.0  0.91814  0.9592199999999999  0.22767999999999994  1.0000
  H   H39       1.0  0.9141300000000001  0.04773  0.28734  1.0000
  H   H40       1.0  0.91421  0.047709999999999995  0.36545  1.0000
  H   H41       1.0  0.9217200000000001  0.96622  0.42522  1.0000
  H   H42       1.0  0.91414  0.9685200000000002  0.50312  1.0000
  H   H43       1.0  0.08312  0.47625  0.14405  1.0000
  H   H44       1.0  0.07552  0.4754900000000001  0.22255  1.0000
  H   H45       1.0  0.09949000000000001  0.56637  0.28237  1.0000
  H   H46       1.0  0.10008  0.56747  0.36028  1.0000
  H   H47       1.0  0.07221  0.50982  0.42099  1.0000
  H   H48       1.0  0.08108  0.51166  0.4986699999999999  1.0000
  H   H49       1.0  0.58876  0.96136  0.64907  1.0000
  H   H50       1.0  0.5819400000000001  0.9591  0.72767  1.0000
  H   H51       1.0  0.58609  0.04766  0.78735  1.0000
  H   H52       1.0  0.58602  0.04776  0.86543  1.0000
  H   H53       1.0  0.5783  0.9662299999999999  0.92505  1.0000
  H   H54       1.0  0.5856800000000001  0.9678199999999999  0.002949999999999999  1.0000
  H   H55       1.0  0.41729000000000005  0.47629999999999995  0.64419  1.0000
  H   H56       1.0  0.42454  0.47540000000000004  0.7227  1.0000
  H   H57       1.0  0.40047  0.56632  0.7824  1.0000
  H   H58       1.0  0.39972  0.56751  0.8603299999999998  1.0000
  H   H59       1.0  0.42761000000000005  0.50965  0.92091  1.0000
  H   H60       1.0  0.41903000000000007  0.51141  0.9986  1.0000
  H   H61       1.0  0.9112400000000002  0.03893  0.64908  1.0000
  H   H62       1.0  0.9181800000000002  0.04067  0.7276799999999998  1.0000
  H   H63       1.0  0.9141300000000001  0.95217  0.78733  1.0000
  H   H64       1.0  0.9142000000000002  0.9522799999999999  0.86546  1.0000
  H   H65       1.0  0.9217000000000001  0.03392  0.92512  1.0000
  H   H66       1.0  0.9141300000000001  0.03178  0.00304  1.0000
  H   H67       1.0  0.08336  0.52393  0.6440899999999998  1.0000
  H   H68       1.0  0.07562  0.52457  0.7225899999999997  1.0000
  H   H69       1.0  0.09946  0.43367  0.7824099999999998  1.0000
  H   H70       1.0  0.10004000000000002  0.4325299999999999  0.8603199999999998  1.0000
  H   H71       1.0  0.07213  0.49010999999999993  0.92103  1.0000
  H   H72       1.0  0.08089  0.48841  0.99871  1.0000
  H   H73       1.0  0.41122000000000003  0.9614499999999999  0.8508599999999997  1.0000
  H   H74       1.0  0.41793  0.9591  0.77229  1.0000
  H   H75       1.0  0.4139  0.04776  0.71267  1.0000
  H   H76       1.0  0.4140600000000001  0.0478  0.63456  1.0000
  H   H77       1.0  0.42182  0.96611  0.5749199999999998  1.0000
  H   H78       1.0  0.4145300000000001  0.96773  0.49701  1.0000
  H   H79       1.0  0.58278  0.47633000000000003  0.85584  1.0000
  H   H80       1.0  0.57557  0.47542999999999996  0.77733  1.0000
  H   H81       1.0  0.59963  0.56632  0.7176199999999998  1.0000
  H   H82       1.0  0.6003  0.56743  0.6397  1.0000
  H   H83       1.0  0.57235  0.50974  0.57915  1.0000
  H   H84       1.0  0.58087  0.51155  0.50145  1.0000
  H   H85       1.0  0.08887000000000003  0.03911  0.8508999999999998  1.0000
  H   H86       1.0  0.08175000000000003  0.04079  0.77234  1.0000
  H   H87       1.0  0.08583000000000003  0.9521999999999999  0.7126199999999998  1.0000
  H   H88       1.0  0.08589  0.9522699999999998  0.63452  1.0000
  H   H89       1.0  0.0784  0.03384  0.57476  1.0000
  H   H90       1.0  0.0861  0.03168  0.4968599999999999  1.0000
  H   H91       1.0  0.9167900000000002  0.52381  0.85594  1.0000
  H   H92       1.0  0.9245100000000002  0.52452  0.7774399999999998  1.0000
  H   H93       1.0  0.90065  0.43367  0.7176199999999998  1.0000
  H   H94       1.0  0.8999700000000002  0.43248  0.6397  1.0000
  H   H95       1.0  0.9278200000000002  0.49028  0.5790199999999998  1.0000
  H   H96       1.0  0.91904  0.48856  0.50133  1.0000
  C   C1        1.0  0.41153  0.15045  0.43035  1.0000
  C   C2        1.0  0.5677  0.36122  0.4305599999999999  1.0000
  C   C3        1.0  0.0426  0.11836  0.4323899999999999  1.0000
  C   C4        1.0  0.7002800000000002  0.25268  0.50348  1.0000
  C   C5        1.0  0.44293  0.3707  0.5577699999999998  1.0000
  C   C6        1.0  0.34042  0.02081  0.33223  1.0000
  C   C7        1.0  0.34367  0.02148  0.28832  1.0000
  C   C8        1.0  0.34275  0.97457  0.19565999999999995  1.0000
  C   C9        1.0  0.3429  0.9744500000000001  0.15167  1.0000
  C   C10       1.0  0.3453300000000001  0.01817  0.05927  1.0000
  C   C11       1.0  0.34187  0.0177  0.01541  1.0000
  C   C12       1.0  0.65647  0.51256  0.33721  1.0000
  C   C13       1.0  0.65307  0.51258  0.2932999999999999  1.0000
  C   C14       1.0  0.6646900000000002  0.46386  0.20059999999999995  1.0000
  C   C15       1.0  0.6650600000000002  0.46337  0.1566  1.0000
  C   C16       1.0  0.6520200000000002  0.49384  0.06374  1.0000
  C   C17       1.0  0.65563  0.49388999999999994  0.0199  1.0000
  C   C18       1.0  0.08882000000000001  0.84893  0.4303399999999999  1.0000
  C   C19       1.0  0.9317  0.63871  0.43055  1.0000
  C   C20       1.0  0.45860000000000006  0.88102  0.4323299999999999  1.0000
  C   C21       1.0  0.8001900000000002  0.74691  0.50373  1.0000
  C   C22       1.0  0.057980000000000004  0.62939  0.5578899999999998  1.0000
  C   C23       1.0  0.15975000000000003  0.9789299999999999  0.33227  1.0000
  C   C24       1.0  0.15625  0.9785299999999999  0.28838  1.0000
  C   C25       1.0  0.15711  0.02548  0.19563999999999998  1.0000
  C   C26       1.0  0.15705  0.025469999999999996  0.15164  1.0000
  C   C27       1.0  0.15497  0.98203  0.05921  1.0000
  C   C28       1.0  0.15854  0.98303  0.01534  1.0000
  C   C29       1.0  0.8433300000000002  0.48756  0.33725  1.0000
  C   C30       1.0  0.8469200000000002  0.48749000000000003  0.29335  1.0000
  C   C31       1.0  0.8355000000000002  0.53606  0.20057999999999995  1.0000
  C   C32       1.0  0.83515  0.53657  0.15658  1.0000
  C   C33       1.0  0.84797  0.50617  0.06365  1.0000
  C   C34       1.0  0.8441300000000002  0.50624  0.01981  1.0000
  C   C35       1.0  0.58859  0.15052  0.06967  1.0000
  C   C36       1.0  0.43226  0.36118  0.06945999999999997  1.0000
  C   C37       1.0  0.9574900000000002  0.11825999999999999  0.06764  1.0000
  C   C38       1.0  0.29957  0.25271  0.99653  1.0000
  C   C39       1.0  0.55705  0.37065  0.9421399999999998  1.0000
  C   C40       1.0  0.65959  0.02089  0.16781  1.0000
  C   C41       1.0  0.6563  0.02152  0.21170999999999995  1.0000
  C   C42       1.0  0.65721  0.97451  0.30439  1.0000
  C   C43       1.0  0.65712  0.9744599999999999  0.3483799999999999  1.0000
  C   C44       1.0  0.65481  0.018109999999999998  0.4407699999999999  1.0000
  C   C45       1.0  0.6582699999999999  0.01755  0.4846399999999999  1.0000
  C   C46       1.0  0.34353  0.5125  0.16275  1.0000
  C   C47       1.0  0.34697  0.51253  0.20665  1.0000
  C   C48       1.0  0.33531  0.4638999999999999  0.2993699999999999  1.0000
  C   C49       1.0  0.33493  0.46337999999999996  0.34338  1.0000
  C   C50       1.0  0.34795000000000004  0.49384  0.43622  1.0000
  C   C51       1.0  0.3443300000000001  0.49387999999999993  0.4800599999999999  1.0000
  C   C52       1.0  0.9112800000000001  0.8489999999999998  0.06973  1.0000
  C   C53       1.0  0.06843  0.63862  0.06953  1.0000
  C   C54       1.0  0.54158  0.8810999999999998  0.06762  1.0000
  C   C55       1.0  0.19999  0.74689  0.9962899999999998  1.0000
  C   C56       1.0  0.94214  0.62935  0.94209  1.0000
  C   C57       1.0  0.84023  0.9789599999999999  0.16777  1.0000
  C   C58       1.0  0.84369  0.9785099999999999  0.21166999999999994  1.0000
  C   C59       1.0  0.8429  0.02539  0.30435  1.0000
  C   C60       1.0  0.8430000000000002  0.02546  0.3483599999999999  1.0000
  C   C61       1.0  0.8451700000000001  0.98213  0.44082  1.0000
  C   C62       1.0  0.8416100000000002  0.98306  0.48469  1.0000
  C   C63       1.0  0.15666  0.48747  0.16272  1.0000
  C   C64       1.0  0.15312  0.4874299999999999  0.20663  1.0000
  C   C65       1.0  0.16454  0.53611  0.2993699999999999  1.0000
  C   C66       1.0  0.16486  0.5366  0.34337  1.0000
  C   C67       1.0  0.15198  0.50623  0.43632  1.0000
  C   C68       1.0  0.15583  0.50632  0.48015  1.0000
  C   C69       1.0  0.5886600000000001  0.84958  0.5697  1.0000
  C   C70       1.0  0.43249  0.63883  0.56938  1.0000
  C   C71       1.0  0.9576600000000001  0.88184  0.56762  1.0000
  C   C72       1.0  0.29955  0.74726  0.49651  1.0000
  C   C73       1.0  0.55715  0.62946  0.44214  1.0000
  C   C74       1.0  0.6596200000000002  0.9792100000000001  0.66775  1.0000
  C   C75       1.0  0.6563700000000001  0.97844  0.71166  1.0000
  C   C76       1.0  0.6572  0.02539  0.80434  1.0000
  C   C77       1.0  0.65709  0.02553  0.84831  1.0000
  C   C78       1.0  0.65477  0.9819500000000001  0.9407199999999998  1.0000
  C   C79       1.0  0.6582100000000002  0.9825500000000001  0.9845699999999997  1.0000
  C   C80       1.0  0.34366  0.48751999999999995  0.6628199999999997  1.0000
  C   C81       1.0  0.3470500000000001  0.4874299999999999  0.70673  1.0000
  C   C82       1.0  0.33534  0.53606  0.79942  1.0000
  C   C83       1.0  0.33492000000000005  0.5366  0.84344  1.0000
  C   C84       1.0  0.34787  0.50613  0.93629  1.0000
  C   C85       1.0  0.34420000000000006  0.5061  0.98013  1.0000
  C   C86       1.0  0.9115900000000002  0.1515  0.5697  1.0000
  C   C87       1.0  0.06873  0.36163  0.56949  1.0000
  C   C88       1.0  0.54155  0.11896999999999999  0.5677  1.0000
  C   C89       1.0  0.19990000000000002  0.25307999999999997  0.4962699999999999  1.0000
  C   C90       1.0  0.9421500000000002  0.37074  0.4421499999999999  1.0000
  C   C91       1.0  0.84034  0.02107  0.66775  1.0000
  C   C92       1.0  0.84379  0.02139  0.71165  1.0000
  C   C93       1.0  0.8428500000000002  0.97452  0.80432  1.0000
  C   C94       1.0  0.84297  0.97455  0.8483399999999998  1.0000
  C   C95       1.0  0.84516  0.01802  0.9407599999999998  1.0000
  C   C96       1.0  0.8415700000000003  0.01715  0.98463  1.0000
  C   C97       1.0  0.15682  0.5126  0.6627799999999998  1.0000
  C   C98       1.0  0.1532  0.51259  0.70667  1.0000
  C   C99       1.0  0.16452  0.46387  0.79943  1.0000
  C   C100      1.0  0.16482  0.4634  0.84343  1.0000
  C   C101      1.0  0.15192  0.49379  0.9363499999999998  1.0000
  C   C102      1.0  0.1557  0.49371  0.9801999999999997  1.0000
  C   C103      1.0  0.41138  0.8499499999999999  0.9303  1.0000
  C   C104      1.0  0.56746  0.63902  0.93056  1.0000
  C   C105      1.0  0.04257  0.8818299999999998  0.93239  1.0000
  C   C106      1.0  0.7004  0.74733  0.003479999999999999  1.0000
  C   C107      1.0  0.4429  0.6294  0.05776999999999999  1.0000
  C   C108      1.0  0.34031  0.97925  0.8322099999999998  1.0000
  C   C109      1.0  0.3435800000000001  0.97852  0.7883199999999998  1.0000
  C   C110      1.0  0.3427200000000001  0.02544  0.69564  1.0000
  C   C111      1.0  0.34286000000000005  0.02553  0.65164  1.0000
  C   C112      1.0  0.3453300000000001  0.98188  0.55926  1.0000
  C   C113      1.0  0.34193  0.9824499999999999  0.51539  1.0000
  C   C114      1.0  0.65639  0.48758000000000007  0.8372  1.0000
  C   C115      1.0  0.65305  0.48744999999999994  0.7933  1.0000
  C   C116      1.0  0.6647300000000002  0.53609  0.7006  1.0000
  C   C117      1.0  0.6650800000000001  0.53656  0.65661  1.0000
  C   C118      1.0  0.65208  0.50619  0.5637599999999998  1.0000
  C   C119      1.0  0.65574  0.50626  0.51991  1.0000
  C   C120      1.0  0.08856000000000003  0.15119  0.9302799999999998  1.0000
  C   C121      1.0  0.93124  0.36148  0.93053  1.0000
  C   C122      1.0  0.4584700000000001  0.11919  0.9322899999999997  1.0000
  C   C123      1.0  0.80005  0.25306  0.00379  1.0000
  C   C124      1.0  0.057760000000000006  0.3707  0.057919999999999985  1.0000
  C   C125      1.0  0.15967  0.02117  0.83224  1.0000
  C   C126      1.0  0.15617  0.02153  0.78835  1.0000
  C   C127      1.0  0.15704  0.9745400000000001  0.6956199999999998  1.0000
  C   C128      1.0  0.15701  0.97452  0.6516199999999998  1.0000
  C   C129      1.0  0.155  0.01797  0.55918  1.0000
  C   C130      1.0  0.15859  0.01704  0.51531  1.0000
  C   C131      1.0  0.84327  0.51258  0.8372599999999998  1.0000
  C   C132      1.0  0.84691  0.51255  0.79336  1.0000
  C   C133      1.0  0.8355400000000002  0.46391  0.70061  1.0000
  C   C134      1.0  0.8351700000000002  0.46337  0.6566  1.0000
  C   C135      1.0  0.84806  0.4938699999999999  0.56368  1.0000
  C   C136      1.0  0.84425  0.49387999999999993  0.5198399999999997  1.0000
  C   C137      1.0  0.24992  0.0  0.26501  1.0000
  C   C138      1.0  0.24990000000000004  1.9999999999999998e-05  0.21841  1.0000
  C   C139      1.0  0.2500200000000001  0.99996  0.12898  1.0000
  C   C140      1.0  0.25011  3.9999999999999996e-05  0.08243  1.0000
  C   C141      1.0  0.74999  9.999999999999999e-06  0.23503  1.0000
  C   C142      1.0  0.7500000000000001  0.0  0.28162  1.0000
  C   C143      1.0  0.75003  0.9999699999999999  0.37105  1.0000
  C   C144      1.0  0.75001  1.0000000000000013e-05  0.41759  1.0000
  C   C145      1.0  0.75003  0.99996  0.735  1.0000
  C   C146      1.0  0.74997  0.9999099999999999  0.7815799999999998  1.0000
  C   C147      1.0  0.7499400000000002  1.9999999999999975e-05  0.871  1.0000
  C   C148      1.0  0.7499600000000002  3.9999999999999996e-05  0.91755  1.0000
  C   C149      1.0  0.24984000000000003  0.99998  0.76499  1.0000
  C   C150      1.0  0.24984000000000003  0.9999699999999999  0.71839  1.0000
  C   C151      1.0  0.24998  1.9999999999999998e-05  0.62896  1.0000
  C   C152      1.0  0.25009  0.99996  0.5824199999999998  1.0000
  C   C153      1.0  0.7500500000000002  0.50002  0.27  1.0000
  C   C154      1.0  0.7501  0.49997  0.22339999999999993  1.0000
  C   C155      1.0  0.75011  0.49998  0.1337  1.0000
  C   C156      1.0  0.75004  0.50001  0.08705  1.0000
  C   C157      1.0  0.25  0.5  0.22997  1.0000
  C   C158      1.0  0.24993  0.5  0.27657  1.0000
  C   C159      1.0  0.24985000000000002  0.49999  0.36627  1.0000
  C   C160      1.0  0.24990000000000004  0.50003  0.41292  1.0000
  C   C161      1.0  0.25004  0.49998  0.73002  1.0000
  C   C162      1.0  0.24991000000000002  0.49999  0.77662  1.0000
  C   C163      1.0  0.24983000000000005  0.49999  0.8663199999999998  1.0000
  C   C164      1.0  0.24987  0.49993  0.9129599999999998  1.0000
  C   C165      1.0  0.75004  0.50001  0.77001  1.0000
  C   C166      1.0  0.75011  0.49999  0.72341  1.0000
  C   C167      1.0  0.75012  0.49996  0.6337099999999998  1.0000
  C   C168      1.0  0.75012  0.50003  0.5870699999999998  1.0000
  N   N1        1.0  0.36526  0.09092  0.42582  1.0000
  N   N2        1.0  0.62138  0.41801  0.42828  1.0000
  N   N3        1.0  0.11821  0.07977  0.4225299999999999  1.0000
  N   N4        1.0  0.77296  0.22204999999999997  0.4857399999999999  1.0000
  N   N5        1.0  0.37165000000000004  0.41112  0.56994  1.0000
  N   N6        1.0  0.13567  0.90823  0.42582  1.0000
  N   N7        1.0  0.8779600000000002  0.58198  0.42824  1.0000
  N   N8        1.0  0.3827700000000001  0.91932  0.42242999999999997  1.0000
  N   N9        1.0  0.7276600000000001  0.77762  0.48595  1.0000
  N   N10       1.0  0.12938  0.58907  0.57006  1.0000
  N   N11       1.0  0.63503  0.09105  0.07417  1.0000
  N   N12       1.0  0.3785  0.41792  0.07175  1.0000
  N   N13       1.0  0.8818900000000001  0.07965  0.07747999999999997  1.0000
  N   N14       1.0  0.22687  0.22204999999999997  0.01424  1.0000
  N   N15       1.0  0.6283  0.41117  0.93002  1.0000
  N   N16       1.0  0.8642100000000001  0.9081999999999998  0.07423  1.0000
  N   N17       1.0  0.12235  0.58195  0.07181  1.0000
  N   N18       1.0  0.6172900000000001  0.91948  0.07757  1.0000
  N   N19       1.0  0.27255  0.7776  0.01403  1.0000
  N   N20       1.0  0.8707  0.58905  0.9299599999999998  1.0000
  N   N21       1.0  0.63487  0.90916  0.5741299999999998  1.0000
  N   N22       1.0  0.37854  0.5822  0.57175  1.0000
  N   N23       1.0  0.8822000000000002  0.92058  0.57747  1.0000
  N   N24       1.0  0.22698  0.77791  0.5143  1.0000
  N   N25       1.0  0.62851  0.58909  0.42999  1.0000
  N   N26       1.0  0.86468  0.09223  0.57422  1.0000
  N   N27       1.0  0.12267  0.41828  0.5717699999999998  1.0000
  N   N28       1.0  0.61736  0.08066  0.57763  1.0000
  N   N29       1.0  0.27248  0.22234  0.5139999999999998  1.0000
  N   N30       1.0  0.87088  0.41115  0.42996  1.0000
  N   N31       1.0  0.365  0.90945  0.92583  1.0000
  N   N32       1.0  0.62112  0.58223  0.9282599999999998  1.0000
  N   N33       1.0  0.11806000000000003  0.92058  0.9225899999999998  1.0000
  N   N34       1.0  0.7730400000000002  0.77803  0.9857599999999997  1.0000
  N   N35       1.0  0.37163000000000007  0.58898  0.06996  1.0000
  N   N36       1.0  0.13561  0.09196  0.92579  1.0000
  N   N37       1.0  0.87744  0.41819  0.9281899999999997  1.0000
  N   N38       1.0  0.38264  0.08087  0.9224  1.0000
  N   N39       1.0  0.72765  0.22239  0.98593  1.0000
  N   N40       1.0  0.12901  0.41109  0.07012999999999997  1.0000
  N   N41       1.0  0.25015  0.9997600000000001  0.35438  1.0000
  N   N42       1.0  0.25026  0.0005  0.9931599999999998  1.0000
  N   N43       1.0  0.7498300000000001  0.99983  0.14566  1.0000
  N   N44       1.0  0.7499600000000002  0.00049  0.50689  1.0000
  N   N45       1.0  0.7499600000000002  0.00021999999999999998  0.6456199999999997  1.0000
  N   N46       1.0  0.74984  0.9997199999999999  0.006809999999999998  1.0000
  N   N47       1.0  0.25006  0.00036  0.85434  1.0000
  N   N48       1.0  0.25031  0.9996199999999998  0.4931299999999999  1.0000
  N   N49       1.0  0.7498500000000001  0.50006  0.35936  1.0000
  N   N50       1.0  0.74982  0.50012  0.99757  1.0000
  N   N51       1.0  0.25015  0.49995  0.1406  1.0000
  N   N52       1.0  0.25014  0.50015  0.50238  1.0000
  N   N53       1.0  0.25031  0.50012  0.64067  1.0000
  N   N54       1.0  0.24997000000000003  0.49995  0.00244  1.0000
  N   N55       1.0  0.74973  0.50017  0.85936  1.0000
  N   N56       1.0  0.7499600000000002  0.50006  0.4976  1.0000
