data_image0
_chemical_formula_structural       Gd24H72C168N24O96
_chemical_formula_sum              "Gd24 H72 C168 N24 O96"
_cell_length_a       20.59221
_cell_length_b       20.60643
_cell_length_c       20.63704
_cell_angle_alpha    89.97886
_cell_angle_beta     89.96380000000002
_cell_angle_gamma    89.47974

_symmetry_space_group_name_H-M    'P 1'
_symmetry_Int_Tables_number       1

loop_
  _symmetry_equiv_pos_as_xyz
  'x,y,z'

loop_
  _atom_site_type_symbol
  _atom_site_label
  _atom_site_symmetry_multiplicity
  _atom_site_fract_x
  _atom_site_fract_y
  _atom_site_fract_z
  _atom_site_occupancy
  Gd  Gd1       1.0  0.7561799999999999  0.89049  0.50851  1.0000
  Gd  Gd2       1.0  0.74558  0.10826000000000001  0.00823  1.0000
  Gd  Gd3       1.0  0.24459  0.39303000000000005  0.98538  1.0000
  Gd  Gd4       1.0  0.25808  0.60663  0.48588  1.0000
  Gd  Gd5       1.0  0.5072  0.75384  0.8899300000000001  1.0000
  Gd  Gd6       1.0  0.007670000000000001  0.74498  0.108  1.0000
  Gd  Gd7       1.0  0.99051  0.24543999999999996  0.38821000000000006  1.0000
  Gd  Gd8       1.0  0.48648  0.25592  0.60927  1.0000
  Gd  Gd9       1.0  0.8896099999999999  0.51081  0.75131  1.0000
  Gd  Gd10      1.0  0.10776  0.007560000000000001  0.7417000000000001  1.0000
  Gd  Gd11      1.0  0.3912499999999999  0.98888  0.24518000000000004  1.0000
  Gd  Gd12      1.0  0.60907  0.4852600000000001  0.25475  1.0000
  Gd  Gd13      1.0  0.24453  0.1091  0.48898  1.0000
  Gd  Gd14      1.0  0.25243  0.8937900000000001  0.9886100000000002  1.0000
  Gd  Gd15      1.0  0.75447  0.60513  0.01129  1.0000
  Gd  Gd16      1.0  0.74456  0.393  0.51158  1.0000
  Gd  Gd17      1.0  0.4918  0.24203  0.10927000000000002  1.0000
  Gd  Gd18      1.0  0.99061  0.25539  0.8904900000000001  1.0000
  Gd  Gd19      1.0  0.01145  0.75533  0.60654  1.0000
  Gd  Gd20      1.0  0.51381  0.7418400000000002  0.3914000000000001  1.0000
  Gd  Gd21      1.0  0.10907999999999998  0.49172  0.23928  1.0000
  Gd  Gd22      1.0  0.88803  0.9919000000000001  0.25469  1.0000
  Gd  Gd23      1.0  0.60669  0.00879  0.75795  1.0000
  Gd  Gd24      1.0  0.39010999999999996  0.51139  0.7414  1.0000
  H   H1        1.0  0.66267  0.64747  0.47706  1.0000
  H   H2        1.0  0.86791  0.6519200000000002  0.5249400000000001  1.0000
  H   H3        1.0  0.76707  0.58707  0.50175  1.0000
  H   H4        1.0  0.84272  0.34967  0.9764200000000001  1.0000
  H   H5        1.0  0.63798  0.34776  0.02732  1.0000
  H   H6        1.0  0.7393499999999998  0.41128  0.0023300000000000005  1.0000
  H   H7        1.0  0.342  0.15278  0.03519  1.0000
  H   H8        1.0  0.13908  0.15306  0.97771  1.0000
  H   H9        1.0  0.23999999999999996  0.09037  0.01051  1.0000
  H   H10       1.0  0.16307  0.8488400000000001  0.52894  1.0000
  H   H11       1.0  0.36634  0.84487  0.47263  1.0000
  H   H12       1.0  0.26579  0.9095100000000002  0.50245  1.0000
  H   H13       1.0  0.47253999999999996  0.66601  0.64457  1.0000
  H   H14       1.0  0.5244299999999998  0.86953  0.65484  1.0000
  H   H15       1.0  0.4988299999999999  0.7711  0.5873100000000001  1.0000
  H   H16       1.0  0.9690599999999999  0.8393700000000001  0.34983000000000003  1.0000
  H   H17       1.0  0.022009999999999995  0.6348  0.34572  1.0000
  H   H18       1.0  0.9938599999999999  0.73533  0.41023  1.0000
  H   H19       1.0  0.0328  0.33611  0.1451  1.0000
  H   H20       1.0  0.97288  0.13465  0.15096000000000004  1.0000
  H   H21       1.0  0.0037499999999999994  0.23318  0.08554000000000002  1.0000
  H   H22       1.0  0.5293  0.16032  0.85022  1.0000
  H   H23       1.0  0.4771099999999999  0.36505  0.8479800000000001  1.0000
  H   H24       1.0  0.5065  0.26421  0.9115300000000001  1.0000
  H   H25       1.0  0.64508  0.47392  0.6623  1.0000
  H   H26       1.0  0.65398  0.52104  0.8672000000000001  1.0000
  H   H27       1.0  0.58734  0.49338  0.76844  1.0000
  H   H28       1.0  0.34965  0.9763600000000001  0.84015  1.0000
  H   H29       1.0  0.34754  0.0269  0.6358100000000001  1.0000
  H   H30       1.0  0.41117999999999993  0.00104  0.73733  1.0000
  H   H31       1.0  0.14661999999999997  0.028550000000000002  0.33649  1.0000
  H   H32       1.0  0.15382  0.97653  0.13272  1.0000
  H   H33       1.0  0.08792  0.00494  0.23201000000000002  1.0000
  H   H34       1.0  0.85053  0.5279  0.15993  1.0000
  H   H35       1.0  0.84771  0.47756000000000004  0.3643600000000001  1.0000
  H   H36       1.0  0.9113799999999999  0.50823  0.26419  1.0000
  H   H37       1.0  0.33799  0.3519  0.5233200000000001  1.0000
  H   H38       1.0  0.13306  0.34794  0.47391  1.0000
  H   H39       1.0  0.2336  0.41246000000000005  0.49978  1.0000
  H   H40       1.0  0.15664  0.653  0.02961  1.0000
  H   H41       1.0  0.36064  0.6534200000000001  0.9760300000000001  1.0000
  H   H42       1.0  0.26007  0.59067  0.006420000000000001  1.0000
  H   H43       1.0  0.65484  0.84573  0.96904  1.0000
  H   H44       1.0  0.8582  0.84511  0.02471  1.0000
  H   H45       1.0  0.75703  0.9076900000000001  0.99325  1.0000
  H   H46       1.0  0.83801  0.15105  0.4646100000000001  1.0000
  H   H47       1.0  0.63633  0.15495  0.52626  1.0000
  H   H48       1.0  0.7353  0.09079000000000001  0.4908600000000001  1.0000
  H   H49       1.0  0.52343  0.33905  0.35133  1.0000
  H   H50       1.0  0.4741  0.13453  0.34819  1.0000
  H   H51       1.0  0.49876999999999994  0.23569000000000004  0.41222  1.0000
  H   H52       1.0  0.03193  0.15885  0.64941  1.0000
  H   H53       1.0  0.97505  0.36231  0.65097  1.0000
  H   H54       1.0  0.00744  0.26195  0.58776  1.0000
  H   H55       1.0  0.97177  0.65598  0.84621  1.0000
  H   H56       1.0  0.022199999999999998  0.8602400000000001  0.847  1.0000
  H   H57       1.0  0.99495  0.75822  0.90893  1.0000
  H   H58       1.0  0.47073  0.8393  0.1509  1.0000
  H   H59       1.0  0.52712  0.63574  0.1517  1.0000
  H   H60       1.0  0.49612  0.7366  0.08912000000000002  1.0000
  H   H61       1.0  0.35289  0.5241  0.33214  1.0000
  H   H62       1.0  0.3464999999999999  0.4713  0.12853  1.0000
  H   H63       1.0  0.41217999999999994  0.49513000000000007  0.2287  1.0000
  H   H64       1.0  0.6444  0.02565  0.16074  1.0000
  H   H65       1.0  0.65046  0.97237  0.3644  1.0000
  H   H66       1.0  0.58485  0.99858  0.26428  1.0000
  H   H67       1.0  0.84782  0.9664  0.66013  1.0000
  H   H68       1.0  0.8468599999999998  0.02016  0.8635900000000001  1.0000
  H   H69       1.0  0.9099099999999999  0.9911900000000001  0.76253  1.0000
  H   H70       1.0  0.14729  0.47873  0.8367800000000002  1.0000
  H   H71       1.0  0.15103  0.52631  0.6315900000000001  1.0000
  H   H72       1.0  0.08646  0.50324  0.73292  1.0000
  C   C1        1.0  0.87197  0.78687  0.52728  1.0000
  C   C2        1.0  0.64982  0.7822800000000001  0.47591000000000006  1.0000
  C   C3        1.0  0.70609  0.74082  0.48924  1.0000
  C   C4        1.0  0.81834  0.74331  0.51476  1.0000
  C   C5        1.0  0.70712  0.67338  0.48817  1.0000
  C   C6        1.0  0.82167  0.67576  0.51462  1.0000
  C   C7        1.0  0.76551  0.63986  0.50159  1.0000
  C   C8        1.0  0.6321  0.21305000000000002  0.030230000000000007  1.0000
  C   C9        1.0  0.85447  0.21478  0.97658  1.0000
  C   C10       1.0  0.7984899999999999  0.25681  0.9900100000000001  1.0000
  C   C11       1.0  0.68632  0.25581  0.01705  1.0000
  C   C12       1.0  0.7981799999999999  0.32425  0.9883900000000001  1.0000
  C   C13       1.0  0.6838699999999999  0.3234  0.01654  1.0000
  C   C14       1.0  0.7403099999999999  0.35848  0.00245  1.0000
  C   C15       1.0  0.13225  0.28768  0.96637  1.0000
  C   C16       1.0  0.35252  0.28706  0.02594  1.0000
  C   C17       1.0  0.29733  0.24473  0.01391  1.0000
  C   C18       1.0  0.18635  0.24515  0.98356  1.0000
  C   C19       1.0  0.29757  0.17758  0.02019  1.0000
  C   C20       1.0  0.18438  0.17769  0.9883300000000002  1.0000
  C   C21       1.0  0.24049  0.14302  0.00661  1.0000
  C   C22       1.0  0.37166  0.7101  0.46578  1.0000
  C   C23       1.0  0.15135  0.71446  0.52479  1.0000
  C   C24       1.0  0.20672  0.75586  0.51087  1.0000
  C   C25       1.0  0.3179  0.7535400000000001  0.48107  1.0000
  C   C26       1.0  0.20724999999999996  0.8231800000000001  0.51477  1.0000
  C   C27       1.0  0.32069  0.8210200000000001  0.4836800000000001  1.0000
  C   C28       1.0  0.26474  0.8567800000000001  0.5003000000000001  1.0000
  C   C29       1.0  0.52735  0.87042  0.79004  1.0000
  C   C30       1.0  0.47323999999999994  0.64992  0.77913  1.0000
  C   C31       1.0  0.48734  0.70683  0.73895  1.0000
  C   C32       1.0  0.51468  0.81823  0.7448600000000001  1.0000
  C   C33       1.0  0.48517999999999994  0.70936  0.67174  1.0000
  C   C34       1.0  0.51382  0.82302  0.67735  1.0000
  C   C35       1.0  0.49947  0.76826  0.63998  1.0000
  C   C36       1.0  0.029519999999999994  0.6306000000000002  0.21091  1.0000
  C   C37       1.0  0.9709199999999999  0.85179  0.21522  1.0000
  C   C38       1.0  0.9859899999999999  0.79601  0.25688  1.0000
  C   C39       1.0  0.01468  0.68413  0.25441  1.0000
  C   C40       1.0  0.9824799999999999  0.7951300000000001  0.3240700000000001  1.0000
  C   C41       1.0  0.011809999999999998  0.68095  0.32189  1.0000
  C   C42       1.0  0.99622  0.73688  0.35758  1.0000
  C   C43       1.0  0.9675  0.13127  0.28578  1.0000
  C   C44       1.0  0.02955  0.35026  0.2793800000000001  1.0000
  C   C45       1.0  0.01487  0.29426  0.23844000000000004  1.0000
  C   C46       1.0  0.98321  0.18395  0.24192  1.0000
  C   C47       1.0  0.01825  0.2927  0.17124  1.0000
  C   C48       1.0  0.9850199999999999  0.18028  0.17441  1.0000
  C   C49       1.0  0.0023099999999999996  0.23508000000000004  0.13823  1.0000
  C   C50       1.0  0.46711  0.3699  0.71364  1.0000
  C   C51       1.0  0.5226  0.14811  0.71595  1.0000
  C   C52       1.0  0.5105  0.20422  0.75791  1.0000
  C   C53       1.0  0.48261  0.31611  0.7565  1.0000
  C   C54       1.0  0.51567  0.20477000000000004  0.8249800000000002  1.0000
  C   C55       1.0  0.48672999999999994  0.31898  0.8238700000000001  1.0000
  C   C56       1.0  0.50307  0.26291  0.8589700000000002  1.0000
  C   C57       1.0  0.78869  0.53167  0.86763  1.0000
  C   C58       1.0  0.7794799999999998  0.48023  0.64594  1.0000
  C   C59       1.0  0.73915  0.4913100000000001  0.7031100000000001  1.0000
  C   C60       1.0  0.74407  0.51675  0.8152  1.0000
  C   C61       1.0  0.67192  0.48638000000000003  0.70594  1.0000
  C   C62       1.0  0.67682  0.51251  0.82036  1.0000
  C   C63       1.0  0.63988  0.49724  0.76531  1.0000
  C   C64       1.0  0.21248  0.03054  0.62887  1.0000
  C   C65       1.0  0.21474  0.97647  0.8503800000000001  1.0000
  C   C66       1.0  0.25679  0.99037  0.7951100000000001  1.0000
  C   C67       1.0  0.25546  0.01735  0.6833400000000001  1.0000
  C   C68       1.0  0.32427  0.9885000000000002  0.79544  1.0000
  C   C69       1.0  0.32313  0.01647  0.68139  1.0000
  C   C70       1.0  0.35836  0.00211  0.7379  1.0000
  C   C71       1.0  0.28886  0.9686499999999999  0.12998  1.0000
  C   C72       1.0  0.28204  0.02414  0.35108  1.0000
  C   C73       1.0  0.24086999999999997  0.01136  0.29469  1.0000
  C   C74       1.0  0.24467  0.98355  0.18296000000000004  1.0000
  C   C75       1.0  0.17343999999999998  0.01543  0.29286000000000006  1.0000
  C   C76       1.0  0.17714  0.98653  0.17897  1.0000
  C   C77       1.0  0.14067999999999997  0.00237  0.23431000000000002  1.0000
  C   C78       1.0  0.71341  0.46495  0.36814  1.0000
  C   C79       1.0  0.71594  0.51848  0.14673  1.0000
  C   C80       1.0  0.75788  0.50843  0.20294000000000004  1.0000
  C   C81       1.0  0.75632  0.4817  0.31475  1.0000
  C   C82       1.0  0.82507  0.51457  0.20416000000000004  1.0000
  C   C83       1.0  0.82361  0.48683  0.31829  1.0000
  C   C84       1.0  0.85883  0.50357  0.26249000000000006  1.0000
  C   C85       1.0  0.12902  0.21315000000000003  0.46931  1.0000
  C   C86       1.0  0.35150999999999993  0.21721000000000001  0.5208400000000001  1.0000
  C   C87       1.0  0.29504  0.25871  0.50837  1.0000
  C   C88       1.0  0.18282999999999996  0.2565  0.48223  1.0000
  C   C89       1.0  0.29373  0.32611  0.51116  1.0000
  C   C90       1.0  0.17933  0.32399  0.48383000000000004  1.0000
  C   C91       1.0  0.2353  0.35971  0.49818000000000007  1.0000
  C   C92       1.0  0.36551  0.78799  0.96603  1.0000
  C   C93       1.0  0.14455  0.78771  0.02299  1.0000
  C   C94       1.0  0.20029  0.74527  0.01081  1.0000
  C   C95       1.0  0.31175  0.74551  0.9822400000000001  1.0000
  C   C96       1.0  0.20096  0.67794  0.0158  1.0000
  C   C97       1.0  0.31478  0.67809  0.98621  1.0000
  C   C98       1.0  0.2588  0.64336  0.00302  1.0000
  C   C99       1.0  0.8650999999999999  0.71039  0.03515  1.0000
  C   C100      1.0  0.64467  0.7105800000000001  0.9759400000000001  1.0000
  C   C101      1.0  0.6996799999999999  0.75324  0.9882200000000001  1.0000
  C   C102      1.0  0.81112  0.75295  0.01805  1.0000
  C   C103      1.0  0.69932  0.8205  0.98316  1.0000
  C   C104      1.0  0.81295  0.82039  0.014000000000000004  1.0000
  C   C105      1.0  0.75656  0.8550200000000001  0.99655  1.0000
  C   C106      1.0  0.6317  0.28953  0.53761  1.0000
  C   C107      1.0  0.85136  0.28554  0.47311  1.0000
  C   C108      1.0  0.79565  0.24409000000000003  0.48639000000000004  1.0000
  C   C109      1.0  0.68501  0.24616000000000002  0.51915  1.0000
  C   C110      1.0  0.79443  0.17685  0.48045  1.0000
  C   C111      1.0  0.68177  0.1789  0.51459  1.0000
  C   C112      1.0  0.7369799999999999  0.14337  0.49499000000000004  1.0000
  C   C113      1.0  0.4709999999999999  0.12838  0.21347  1.0000
  C   C114      1.0  0.52278  0.35019  0.21643000000000004  1.0000
  C   C115      1.0  0.51066  0.29446  0.2584  1.0000
  C   C116      1.0  0.48447999999999997  0.18245  0.25658  1.0000
  C   C117      1.0  0.51216  0.29436  0.32574  1.0000
  C   C118      1.0  0.4848  0.18018  0.32405000000000006  1.0000
  C   C119      1.0  0.49863  0.23657  0.35951  1.0000
  C   C120      1.0  0.96542  0.36796  0.7852500000000001  1.0000
  C   C121      1.0  0.02588  0.1474  0.78398  1.0000
  C   C122      1.0  0.01351  0.20297  0.74187  1.0000
  C   C123      1.0  0.98301  0.31417  0.7427  1.0000
  C   C124      1.0  0.017990000000000003  0.20326999999999998  0.67459  1.0000
  C   C125      1.0  0.98643  0.31677  0.67535  1.0000
  C   C126      1.0  0.00427  0.26085  0.64039  1.0000
  C   C127      1.0  0.030059999999999996  0.8678900000000002  0.71233  1.0000
  C   C128      1.0  0.97606  0.64647  0.71113  1.0000
  C   C129      1.0  0.9883499999999998  0.70129  0.7541200000000001  1.0000
  C   C130      1.0  0.01533  0.81324  0.75454  1.0000
  C   C131      1.0  0.9845499999999999  0.70075  0.8214400000000001  1.0000
  C   C132      1.0  0.01246  0.8148700000000001  0.82194  1.0000
  C   C133      1.0  0.99725  0.758  0.85625  1.0000
  C   C134      1.0  0.53548  0.62942  0.28643  1.0000
  C   C135      1.0  0.47602999999999995  0.85034  0.28612  1.0000
  C   C136      1.0  0.48944  0.79522  0.24339  1.0000
  C   C137      1.0  0.51949  0.68362  0.24377  1.0000
  C   C138      1.0  0.48504  0.79501  0.17611  1.0000
  C   C139      1.0  0.51626  0.68124  0.17640000000000003  1.0000
  C   C140      1.0  0.49901  0.73752  0.14176  1.0000
  C   C141      1.0  0.21122  0.47186000000000006  0.12428000000000002  1.0000
  C   C142      1.0  0.21783  0.52715  0.34521  1.0000
  C   C143      1.0  0.25904  0.51122  0.28938  1.0000
  C   C144      1.0  0.25535  0.4833100000000001  0.17777  1.0000
  C   C145      1.0  0.32643  0.51167  0.28828000000000004  1.0000
  C   C146      1.0  0.32301  0.48252  0.17452  1.0000
  C   C147      1.0  0.35938  0.49605  0.23024  1.0000
  C   C148      1.0  0.78558  0.9697300000000001  0.36882  1.0000
  C   C149      1.0  0.7792199999999999  0.02613  0.14822  1.0000
  C   C150      1.0  0.73811  0.0114  0.20390000000000003  1.0000
  C   C151      1.0  0.74155  0.98304  0.31535  1.0000
  C   C152      1.0  0.67065  0.013020000000000002  0.20482  1.0000
  C   C153      1.0  0.67394  0.98347  0.31849  1.0000
  C   C154      1.0  0.63766  0.9981400000000001  0.26273  1.0000
  C   C155      1.0  0.7120899999999999  0.027909999999999997  0.8704900000000001  1.0000
  C   C156      1.0  0.71287  0.97067  0.64954  1.0000
  C   C157      1.0  0.75526  0.98343  0.70483  1.0000
  C   C158      1.0  0.75459  0.012250000000000002  0.8162  1.0000
  C   C159      1.0  0.82267  0.9797  0.7046800000000001  1.0000
  C   C160      1.0  0.8221999999999999  0.00955  0.81821  1.0000
  C   C161      1.0  0.85711  0.9934  0.76192  1.0000
  C   C162      1.0  0.2863  0.52939  0.62656  1.0000
  C   C163      1.0  0.28205  0.47924  0.8486  1.0000
  C   C164      1.0  0.24036999999999997  0.49195000000000005  0.7925200000000002  1.0000
  C   C165      1.0  0.24268  0.51715  0.68033  1.0000
  C   C166      1.0  0.17296  0.49013  0.7921300000000001  1.0000
  C   C167      1.0  0.17500999999999997  0.51638  0.6776200000000001  1.0000
  C   C168      1.0  0.13928  0.50334  0.73398  1.0000
  N   N1        1.0  0.76081  0.77628  0.50319  1.0000
  N   N2        1.0  0.74342  0.22218  0.00481  1.0000
  N   N3        1.0  0.24271  0.27896  0.9951800000000002  1.0000
  N   N4        1.0  0.2611  0.72054  0.49328000000000005  1.0000
  N   N5        1.0  0.50294  0.76003  0.77589  1.0000
  N   N6        1.0  0.0030700000000000002  0.74167  0.22167000000000003  1.0000
  N   N7        1.0  0.99676  0.24097  0.27425  1.0000
  N   N8        1.0  0.49343  0.25881  0.7232  1.0000
  N   N9        1.0  0.7755800000000002  0.50666  0.75694  1.0000
  N   N10       1.0  0.22196999999999997  0.00519  0.73997  1.0000
  N   N11       1.0  0.27683  0.9950000000000001  0.2406  1.0000
  N   N12       1.0  0.72311  0.49224  0.25765  1.0000
  N   N13       1.0  0.24042  0.22344  0.49334  1.0000
  N   N14       1.0  0.25493  0.7794900000000001  0.99378  1.0000
  N   N15       1.0  0.7548  0.7191  0.0058200000000000005  1.0000
  N   N16       1.0  0.74153  0.27909  0.5057  1.0000
  N   N17       1.0  0.49673  0.23928  0.22339  1.0000
  N   N18       1.0  0.9963399999999999  0.2578  0.7763600000000002  1.0000
  N   N19       1.0  0.00435  0.75677  0.7203600000000001  1.0000
  N   N20       1.0  0.50711  0.74024  0.27749  1.0000
  N   N21       1.0  0.22308999999999998  0.49574  0.23533  1.0000
  N   N22       1.0  0.77396  0.9956800000000001  0.25817  1.0000
  N   N23       1.0  0.72078  0.0002  0.75977  1.0000
  N   N24       1.0  0.27571  0.50631  0.73778  1.0000
  O   O1        1.0  0.86  0.84865  0.52632  1.0000
  O   O2        1.0  0.65786  0.8442500000000001  0.48046000000000005  1.0000
  O   O3        1.0  0.9295599999999999  0.76367  0.53915  1.0000
  O   O4        1.0  0.59467  0.75715  0.45989000000000013  1.0000
  O   O5        1.0  0.64323  0.1511  0.02922  1.0000
  O   O6        1.0  0.84688  0.15297  0.98349  1.0000
  O   O7        1.0  0.57475  0.23681  0.042510000000000006  1.0000
  O   O8        1.0  0.9088799999999999  0.23974  0.9577400000000001  1.0000
  O   O9        1.0  0.14308  0.34948  0.96412  1.0000
  O   O10       1.0  0.34455  0.34803  0.01369  1.0000
  O   O11       1.0  0.07557  0.26356  0.95397  1.0000
  O   O12       1.0  0.40623  0.2633  0.048690000000000004  1.0000
  O   O13       1.0  0.36014  0.64847  0.46431  1.0000
  O   O14       1.0  0.15898  0.65277  0.51626  1.0000
  O   O15       1.0  0.42893  0.73319  0.45441  1.0000
  O   O16       1.0  0.09745  0.73977  0.5455000000000001  1.0000
  O   O17       1.0  0.52643  0.85681  0.8513500000000002  1.0000
  O   O18       1.0  0.48031  0.65589  0.8409000000000002  1.0000
  O   O19       1.0  0.53913  0.9287  0.76938  1.0000
  O   O20       1.0  0.45381999999999995  0.59667  0.75291  1.0000
  O   O21       1.0  0.03232  0.64308  0.1494  1.0000
  O   O22       1.0  0.97754  0.8441  0.15352  1.0000
  O   O23       1.0  0.03912  0.57232  0.23348000000000002  1.0000
  O   O24       1.0  0.9509499999999999  0.90583  0.24023000000000003  1.0000
  O   O25       1.0  0.96754  0.1434  0.34740000000000004  1.0000
  O   O26       1.0  0.01992  0.34412  0.34085000000000004  1.0000
  O   O27       1.0  0.95418  0.07414  0.2632  1.0000
  O   O28       1.0  0.051989999999999995  0.40276000000000006  0.25371  1.0000
  O   O29       1.0  0.46398  0.35743  0.6521800000000001  1.0000
  O   O30       1.0  0.51299  0.1558  0.65472  1.0000
  O   O31       1.0  0.45714  0.42793  0.73662  1.0000
  O   O32       1.0  0.54269  0.09378  0.7403  1.0000
  O   O33       1.0  0.8501099999999999  0.53269  0.8540900000000002  1.0000
  O   O34       1.0  0.8414999999999999  0.48674  0.65257  1.0000
  O   O35       1.0  0.76675  0.54373  0.92542  1.0000
  O   O36       1.0  0.75356  0.46391000000000004  0.59122  1.0000
  O   O37       1.0  0.15056  0.02933  0.63973  1.0000
  O   O38       1.0  0.15281999999999998  0.9805100000000001  0.8411700000000001  1.0000
  O   O39       1.0  0.23635999999999996  0.04294  0.57192  1.0000
  O   O40       1.0  0.23968  0.9603400000000001  0.90568  1.0000
  O   O41       1.0  0.35048  0.96742  0.1428  1.0000
  O   O42       1.0  0.34395  0.01635  0.34401  1.0000
  O   O43       1.0  0.2666  0.95746  0.07214  1.0000
  O   O44       1.0  0.25666  0.04318  0.40533000000000013  1.0000
  O   O45       1.0  0.6519199999999999  0.46112000000000003  0.35618  1.0000
  O   O46       1.0  0.65447  0.50973  0.15508  1.0000
  O   O47       1.0  0.73697  0.45429  0.42538000000000004  1.0000
  O   O48       1.0  0.74004  0.53591  0.09143  1.0000
  O   O49       1.0  0.1411  0.15139  0.47036  1.0000
  O   O50       1.0  0.34417  0.1554  0.51327  1.0000
  O   O51       1.0  0.07143  0.23644  0.45728  1.0000
  O   O52       1.0  0.40605  0.24194  0.53934  1.0000
  O   O53       1.0  0.35391  0.8497600000000001  0.9642400000000001  1.0000
  O   O54       1.0  0.1524  0.84927  0.01415  1.0000
  O   O55       1.0  0.42246999999999996  0.7633800000000001  0.95408  1.0000
  O   O56       1.0  0.09013999999999998  0.76353  0.04257  1.0000
  O   O57       1.0  0.85386  0.64876  0.03872  1.0000
  O   O58       1.0  0.6529  0.64932  0.98668  1.0000
  O   O59       1.0  0.92235  0.73389  0.045790000000000004  1.0000
  O   O60       1.0  0.59037  0.73406  0.9543100000000001  1.0000
  O   O61       1.0  0.64329  0.351  0.5388700000000001  1.0000
  O   O62       1.0  0.84417  0.34705  0.48369  1.0000
  O   O63       1.0  0.57515  0.26624  0.5519000000000001  1.0000
  O   O64       1.0  0.90509  0.26093  0.451  1.0000
  O   O65       1.0  0.47286  0.13958  0.15173  1.0000
  O   O66       1.0  0.51659  0.3413  0.15479  1.0000
  O   O67       1.0  0.45739  0.07155  0.23677000000000004  1.0000
  O   O68       1.0  0.53934  0.40565  0.24037  1.0000
  O   O69       1.0  0.9643099999999999  0.35688  0.84694  1.0000
  O   O70       1.0  0.01669  0.15551  0.84537  1.0000
  O   O71       1.0  0.95145  0.42441000000000006  0.76084  1.0000
  O   O72       1.0  0.04576  0.09277  0.7598200000000002  1.0000
  O   O73       1.0  0.03236  0.85699  0.65053  1.0000
  O   O74       1.0  0.98377  0.6558  0.64963  1.0000
  O   O75       1.0  0.040319999999999995  0.9250200000000001  0.73653  1.0000
  O   O76       1.0  0.95748  0.59113  0.73404  1.0000
  O   O77       1.0  0.53604  0.64032  0.34812  1.0000
  O   O78       1.0  0.48385  0.8411700000000001  0.34752  1.0000
  O   O79       1.0  0.54864  0.57257  0.26281  1.0000
  O   O80       1.0  0.45672999999999997  0.90556  0.26278  1.0000
  O   O81       1.0  0.14944999999999997  0.47383  0.13642000000000004  1.0000
  O   O82       1.0  0.15588  0.52257  0.33766000000000007  1.0000
  O   O83       1.0  0.23348999999999998  0.46052  0.06635000000000002  1.0000
  O   O84       1.0  0.24354  0.54565  0.39924  1.0000
  O   O85       1.0  0.84733  0.97068  0.35695  1.0000
  O   O86       1.0  0.84121  0.01969  0.15577  1.0000
  O   O87       1.0  0.76308  0.9575299999999999  0.42633000000000004  1.0000
  O   O88       1.0  0.75362  0.04558  0.09427000000000002  1.0000
  O   O89       1.0  0.65011  0.029470000000000003  0.85991  1.0000
  O   O90       1.0  0.65137  0.9794400000000001  0.65851  1.0000
  O   O91       1.0  0.73652  0.03972  0.9272500000000001  1.0000
  O   O92       1.0  0.7368399999999999  0.95111  0.59474  1.0000
  O   O93       1.0  0.34801  0.52972  0.6391400000000002  1.0000
  O   O94       1.0  0.34381  0.48678000000000005  0.8410800000000002  1.0000
  O   O95       1.0  0.26389  0.53949  0.56844  1.0000
  O   O96       1.0  0.25696  0.46047  0.90282  1.0000
