data_image0
_chemical_formula_structural       Ni4H144W2C80N32
_chemical_formula_sum              "Ni4 H144 W2 C80 N32"
_cell_length_a       15.71578
_cell_length_b       15.74113
_cell_length_c       16.05722
_cell_angle_alpha    106.58083999999998
_cell_angle_beta     112.92271
_cell_angle_gamma    108.17746

_symmetry_space_group_name_H-M    'P 1'
_symmetry_Int_Tables_number       1

loop_
  _symmetry_equiv_pos_as_xyz
  'x,y,z'

loop_
  _atom_site_type_symbol
  _atom_site_label
  _atom_site_symmetry_multiplicity
  _atom_site_fract_x
  _atom_site_fract_y
  _atom_site_fract_z
  _atom_site_occupancy
  Ni  Ni1       1.0  0.49655000000000016  0.9964600000000002  0.9987  1.0000
  Ni  Ni2       1.0  0.49779000000000007  0.49811  0.50163  1.0000
  Ni  Ni3       1.0  0.5035300000000003  0.002920000000000053  0.4994600000000001  1.0000
  Ni  Ni4       1.0  0.0026200000000000095  0.003529999999999986  0.99988  1.0000
  H   H1        1.0  0.5500900000000004  0.9855900000000002  0.22551000000000004  1.0000
  H   H2        1.0  0.63105  0.92921  0.25192  1.0000
  H   H3        1.0  0.6951300000000002  0.9924500000000003  0.14178000000000002  1.0000
  H   H4        1.0  0.2513800000000001  0.85449  0.8876200000000002  1.0000
  H   H5        1.0  0.2307100000000001  0.7607500000000003  0.77693  1.0000
  H   H6        1.0  0.39501  0.76012  0.88531  1.0000
  H   H7        1.0  0.2993700000000002  0.7225300000000001  0.9192500000000002  1.0000
  H   H8        1.0  0.6179900000000002  0.7960900000000002  0.11287000000000001  1.0000
  H   H9        1.0  0.5891900000000002  0.8360100000000003  0.01687  1.0000
  H   H10       1.0  0.4987100000000001  0.71874  0.9933800000000003  1.0000
  H   H11       1.0  0.4051200000000001  0.8165300000000002  0.16071  1.0000
  H   H12       1.0  0.49111000000000016  0.7625600000000002  0.18013  1.0000
  H   H13       1.0  0.37678000000000017  0.7083700000000003  0.05859000000000002  1.0000
  H   H14       1.0  0.8345800000000003  0.1554000000000001  0.30045000000000005  1.0000
  H   H15       1.0  0.8038000000000002  0.05552000000000006  0.3319000000000001  1.0000
  H   H16       1.0  0.7530600000000001  0.14141  0.35226000000000013  1.0000
  H   H17       1.0  0.7596200000000002  0.1187700000000001  0.7066900000000003  1.0000
  H   H18       1.0  0.8446  0.21524000000000004  0.69907  1.0000
  H   H19       1.0  0.70049  0.11205  0.49881  1.0000
  H   H20       1.0  0.41367  0.07389999999999995  0.63513  1.0000
  H   H21       1.0  0.3517700000000001  0.13256000000000007  0.57111  1.0000
  H   H22       1.0  0.50776  0.21129  0.55732  1.0000
  H   H23       1.0  0.5406500000000001  0.2514500000000001  0.6862300000000002  1.0000
  H   H24       1.0  0.8357800000000002  0.34912  0.81209  1.0000
  H   H25       1.0  0.7599900000000005  0.2515600000000001  0.8282400000000002  1.0000
  H   H26       1.0  0.7125300000000002  0.33337000000000006  0.7945800000000001  1.0000
  H   H27       1.0  0.65942  0.22943  0.52559  1.0000
  H   H28       1.0  0.78684  0.32342  0.63177  1.0000
  H   H29       1.0  0.67434  0.3307500000000001  0.62355  1.0000
  H   H30       1.0  0.8467000000000001  0.03500000000000006  0.6037400000000002  1.0000
  H   H31       1.0  0.8881  0.1430500000000001  0.5841800000000001  1.0000
  H   H32       1.0  0.8005  0.021380000000000076  0.4781400000000001  1.0000
  H   H33       1.0  0.3928100000000002  0.89428  0.05383000000000002  1.0000
  H   H34       1.0  0.60664  0.12258000000000004  0.19381000000000007  1.0000
  H   H35       1.0  0.5942400000000002  0.12073999999999999  0.68295  1.0000
  H   H36       1.0  0.6588500000000002  0.9634900000000002  0.57266  1.0000
  H   H37       1.0  0.26009  0.32474  0.27469  1.0000
  H   H38       1.0  0.17681000000000008  0.37884  0.24790000000000006  1.0000
  H   H39       1.0  0.35065000000000024  0.5532600000000002  0.3585600000000001  1.0000
  H   H40       1.0  0.4670500000000002  0.36442  0.6124500000000002  1.0000
  H   H41       1.0  0.4839800000000001  0.4545700000000002  0.7230900000000002  1.0000
  H   H42       1.0  0.37478000000000017  0.5100700000000002  0.6148000000000002  1.0000
  H   H43       1.0  0.3030300000000002  0.38067000000000006  0.5807400000000001  1.0000
  H   H44       1.0  0.18237000000000006  0.50467  0.3868200000000001  1.0000
  H   H45       1.0  0.31865000000000016  0.57223  0.4829400000000001  1.0000
  H   H46       1.0  0.22475000000000012  0.5054200000000002  0.50641  1.0000
  H   H47       1.0  0.15534  0.24445  0.33903  1.0000
  H   H48       1.0  0.08162000000000005  0.3107700000000001  0.31942  1.0000
  H   H49       1.0  0.14897000000000007  0.31806000000000006  0.4409200000000001  1.0000
  H   H50       1.0  0.35506  0.53403  0.20005  1.0000
  H   H51       1.0  0.22341000000000008  0.47171  0.16849  1.0000
  H   H52       1.0  0.28908  0.40077  0.14805  1.0000
  H   H53       1.0  0.9116799999999999  0.05207  0.79305  1.0000
  H   H54       1.0  0.01594000000000005  0.14483000000000013  0.8009100000000001  1.0000
  H   H55       1.0  0.11283  0.20089  0.00112  1.0000
  H   H56       1.0  0.9390200000000002  0.7783000000000003  0.8646500000000001  1.0000
  H   H57       1.0  0.062180000000000124  0.7811100000000001  0.9291700000000003  1.0000
  H   H58       1.0  0.15445000000000023  0.9506100000000003  0.9429800000000002  1.0000
  H   H59       1.0  0.06597999999999998  0.8545600000000001  0.81415  1.0000
  H   H60       1.0  0.037799999999999966  0.023570000000000004  0.68847  1.0000
  H   H61       1.0  0.9234700000000001  0.93163  0.6715900000000001  1.0000
  H   H62       1.0  0.03910000000000002  0.9177800000000002  0.7055600000000001  1.0000
  H   H63       1.0  0.2041400000000001  0.13391000000000008  0.9746600000000002  1.0000
  H   H64       1.0  0.19196000000000019  0.15489000000000006  0.8686200000000002  1.0000
  H   H65       1.0  0.20761000000000016  0.05080000000000008  0.8767900000000001  1.0000
  H   H66       1.0  0.9307200000000004  0.2420000000000001  0.8960700000000001  1.0000
  H   H67       1.0  0.058910000000000066  0.30332000000000003  0.9164500000000001  1.0000
  H   H68       1.0  0.04260000000000003  0.32123  0.02201  1.0000
  H   H69       1.0  0.3403700000000001  0.33938  0.4461200000000001  1.0000
  H   H70       1.0  0.42897  0.413  0.30656  1.0000
  H   H71       1.0  0.9377800000000003  0.9107400000000001  0.8168300000000002  1.0000
  H   H72       1.0  0.8898700000000003  0.08513  0.92655  1.0000
  H   H73       1.0  0.4430299999999999  0.006080000000000016  0.77124  1.0000
  H   H74       1.0  0.3629700000000001  0.06314000000000002  0.74398  1.0000
  H   H75       1.0  0.29990000000000006  0.0025500000000000895  0.8567700000000001  1.0000
  H   H76       1.0  0.7413600000000005  0.13765000000000002  0.10879  1.0000
  H   H77       1.0  0.7626900000000002  0.23226000000000005  0.2195  1.0000
  H   H78       1.0  0.59936  0.23388000000000006  0.11131  1.0000
  H   H79       1.0  0.69466  0.26974  0.07663  1.0000
  H   H80       1.0  0.37763000000000013  0.19856000000000015  0.8835900000000001  1.0000
  H   H81       1.0  0.4050400000000001  0.15777  0.97904  1.0000
  H   H82       1.0  0.4968800000000001  0.27472  0.0034100000000000007  1.0000
  H   H83       1.0  0.5893900000000003  0.17490000000000014  0.8355500000000002  1.0000
  H   H84       1.0  0.5035200000000001  0.22914000000000004  0.81532  1.0000
  H   H85       1.0  0.6178700000000003  0.28370000000000006  0.93696  1.0000
  H   H86       1.0  0.15801000000000023  0.8398100000000002  0.6991000000000003  1.0000
  H   H87       1.0  0.18871000000000016  0.9390400000000001  0.66672  1.0000
  H   H88       1.0  0.2377500000000002  0.8516300000000004  0.6453300000000002  1.0000
  H   H89       1.0  0.2434700000000002  0.8820900000000002  0.29429000000000005  1.0000
  H   H90       1.0  0.16269000000000008  0.7869800000000001  0.3066300000000001  1.0000
  H   H91       1.0  0.31062000000000023  0.8947500000000003  0.50538  1.0000
  H   H92       1.0  0.59291  0.93226  0.36489  1.0000
  H   H93       1.0  0.6549100000000001  0.8729400000000003  0.42821000000000004  1.0000
  H   H94       1.0  0.5002000000000002  0.7951600000000002  0.44341000000000014  1.0000
  H   H95       1.0  0.4664600000000001  0.7537099999999999  0.3143  1.0000
  H   H96       1.0  0.17095  0.65193  0.19457000000000002  1.0000
  H   H97       1.0  0.2416500000000001  0.74758  0.17317000000000005  1.0000
  H   H98       1.0  0.29341  0.6689  0.20877  1.0000
  H   H99       1.0  0.35347  0.77913  0.4801  1.0000
  H   H100      1.0  0.22559000000000023  0.6834600000000002  0.37663000000000013  1.0000
  H   H101      1.0  0.3375400000000001  0.67639  0.38267  1.0000
  H   H102      1.0  0.15820000000000017  0.9659100000000004  0.39917000000000014  1.0000
  H   H103      1.0  0.12248000000000012  0.8605800000000002  0.42382000000000003  1.0000
  H   H104      1.0  0.20950000000000002  0.98399  0.52671  1.0000
  H   H105      1.0  0.60075  0.09783000000000003  0.94329  1.0000
  H   H106      1.0  0.3862000000000002  0.8711300000000004  0.8027000000000002  1.0000
  H   H107      1.0  0.4095800000000001  0.8817900000000002  0.31496000000000013  1.0000
  H   H108      1.0  0.34538000000000013  0.03960000000000001  0.42618  1.0000
  H   H109      1.0  0.7355800000000002  0.6720900000000002  0.72901  1.0000
  H   H110      1.0  0.82004  0.61937  0.75636  1.0000
  H   H111      1.0  0.6461500000000002  0.4436200000000001  0.6434900000000002  1.0000
  H   H112      1.0  0.5290500000000002  0.63258  0.39172  1.0000
  H   H113      1.0  0.51302  0.54325  0.28102  1.0000
  H   H114      1.0  0.6231600000000004  0.48849  0.38896000000000003  1.0000
  H   H115      1.0  0.69377  0.61837  0.42397  1.0000
  H   H116      1.0  0.8157400000000001  0.49439  0.6167100000000002  1.0000
  H   H117      1.0  0.67914  0.42632  0.52117  1.0000
  H   H118      1.0  0.7720100000000003  0.4934900000000001  0.49691  1.0000
  H   H119      1.0  0.84051  0.7540100000000002  0.665  1.0000
  H   H120      1.0  0.9150400000000003  0.6883700000000003  0.68522  1.0000
  H   H121      1.0  0.8479400000000001  0.6810700000000001  0.5636700000000001  1.0000
  H   H122      1.0  0.6409600000000002  0.46003  0.80114  1.0000
  H   H123      1.0  0.7728600000000002  0.52293  0.83355  1.0000
  H   H124      1.0  0.70688  0.59346  0.85479  1.0000
  H   H125      1.0  0.0870299999999999  0.94891  0.20506  1.0000
  H   H126      1.0  0.9793400000000003  0.8556  0.19236  1.0000
  H   H127      1.0  0.8887700000000002  0.8046800000000002  0.99373  1.0000
  H   H128      1.0  0.06637000000000001  0.22723000000000004  0.13452  1.0000
  H   H129      1.0  0.9432500000000003  0.22541  0.07083  1.0000
  H   H130      1.0  0.8503200000000002  0.05591  0.05569  1.0000
  H   H131      1.0  0.93801  0.15122  0.18472000000000002  1.0000
  H   H132      1.0  0.95565  0.9754200000000001  0.30393  1.0000
  H   H133      1.0  0.07308000000000003  0.06771000000000002  0.32588000000000006  1.0000
  H   H134      1.0  0.9584600000000003  0.08355  0.28998  1.0000
  H   H135      1.0  0.79749  0.87188  0.01863  1.0000
  H   H136      1.0  0.80537  0.8481300000000003  0.12218  1.0000
  H   H137      1.0  0.7920700000000003  0.9537  0.11576  1.0000
  H   H138      1.0  0.06678999999999999  0.75937  0.10038  1.0000
  H   H139      1.0  0.9363200000000002  0.6983300000000002  0.07499  1.0000
  H   H140      1.0  0.9575000000000006  0.6829900000000002  0.9725900000000002  1.0000
  H   H141      1.0  0.65511  0.65757  0.55736  1.0000
  H   H142      1.0  0.5686800000000002  0.5839900000000002  0.6972900000000002  1.0000
  H   H143      1.0  0.06573000000000002  0.09394  0.18423  1.0000
  H   H144      1.0  0.11332000000000012  0.9193800000000002  0.07376  1.0000
  W   W1        1.0  0.6036500000000005  0.8540600000000004  0.7497100000000002  1.0000
  W   W2        1.0  0.3977300000000001  0.14786  0.25005  1.0000
  C   C1        1.0  0.5848300000000002  0.9064000000000002  0.8765200000000001  1.0000
  C   C2        1.0  0.5413300000000003  0.9166900000000004  0.65422  1.0000
  C   C3        1.0  0.6959100000000005  0.018370000000000074  0.8362900000000002  1.0000
  C   C4        1.0  0.4354900000000001  0.7902900000000003  0.69071  1.0000
  C   C5        1.0  0.5045400000000002  0.8492500000000002  0.09705  1.0000
  C   C6        1.0  0.5891900000000004  0.9501100000000002  0.19535  1.0000
  C   C7        1.0  0.6734700000000002  0.03015000000000001  0.19273000000000004  1.0000
  C   C8        1.0  0.2907800000000001  0.8242200000000002  0.85363  1.0000
  C   C9        1.0  0.3534300000000001  0.78652  0.9187900000000002  1.0000
  C   C10       1.0  0.5552  0.79732  0.05182  1.0000
  C   C11       1.0  0.44054  0.7802500000000001  0.12593  1.0000
  C   C12       1.0  0.77189  0.09965  0.30064  1.0000
  C   C13       1.0  0.7016  0.2190700000000001  0.66873  1.0000
  C   C14       1.0  0.7616500000000004  0.15869000000000016  0.6606100000000003  1.0000
  C   C15       1.0  0.72842  0.08387  0.55352  1.0000
  C   C16       1.0  0.4074200000000001  0.10245  0.5793  1.0000
  C   C17       1.0  0.5148000000000003  0.18644000000000002  0.61583  1.0000
  C   C18       1.0  0.7554100000000004  0.2925000000000001  0.7827700000000002  1.0000
  C   C19       1.0  0.7048700000000001  0.27819000000000016  0.6081800000000002  1.0000
  C   C20       1.0  0.8213200000000005  0.06972000000000002  0.55505  1.0000
  C   C21       1.0  0.52951  0.70848  0.62308  1.0000
  C   C22       1.0  0.7617000000000004  0.8868000000000003  0.8451600000000002  1.0000
  C   C23       1.0  0.6818400000000003  0.8600200000000002  0.66354  1.0000
  C   C24       1.0  0.5982100000000002  0.74482  0.80829  1.0000
  C   C25       1.0  0.25177000000000005  0.4075100000000001  0.40286  1.0000
  C   C26       1.0  0.2544800000000001  0.39381  0.30466000000000004  1.0000
  C   C27       1.0  0.3373600000000002  0.48071000000000014  0.3075400000000001  1.0000
  C   C28       1.0  0.47068000000000026  0.43772000000000016  0.6463900000000002  1.0000
  C   C29       1.0  0.36762000000000017  0.4350600000000001  0.58122  1.0000
  C   C30       1.0  0.24490000000000006  0.50327  0.44796  1.0000
  C   C31       1.0  0.15366000000000007  0.3145300000000001  0.37370000000000003  1.0000
  C   C32       1.0  0.29895000000000005  0.4711700000000001  0.19971  1.0000
  C   C33       1.0  0.050420000000000055  0.03255000000000008  0.8313300000000001  1.0000
  C   C34       1.0  0.99781  0.10036000000000021  0.8392600000000002  1.0000
  C   C35       1.0  0.02985999999999999  0.17407999999999996  0.94627  1.0000
  C   C36       1.0  0.023470000000000126  0.8282000000000003  0.9206800000000003  1.0000
  C   C37       1.0  0.07101000000000006  0.8990400000000002  0.88432  1.0000
  C   C38       1.0  0.010039999999999995  0.97242  0.71737  1.0000
  C   C39       1.0  0.17028000000000007  0.09657000000000006  0.8920900000000002  1.0000
  C   C40       1.0  0.014230000000000112  0.2653900000000001  0.9450400000000002  1.0000
  C   C41       1.0  0.4031700000000001  0.08119  0.11893  1.0000
  C   C42       1.0  0.4738200000000002  0.09587000000000002  0.34870000000000007  1.0000
  C   C43       1.0  0.30491000000000007  0.9861100000000003  0.17770000000000002  1.0000
  C   C44       1.0  0.5621400000000002  0.21859  0.29894  1.0000
  C   C45       1.0  0.4896100000000002  0.14349000000000006  0.8991600000000001  1.0000
  C   C46       1.0  0.40437000000000006  0.04252000000000001  0.80112  1.0000
  C   C47       1.0  0.31989  0.9637  0.8047600000000003  1.0000
  C   C48       1.0  0.7024700000000003  0.16868000000000002  0.14294  1.0000
  C   C49       1.0  0.64027  0.20643000000000003  0.0776  1.0000
  C   C50       1.0  0.4397  0.19646000000000008  0.94447  1.0000
  C   C51       1.0  0.5539800000000005  0.21168000000000017  0.8698900000000003  1.0000
  C   C52       1.0  0.22032000000000024  0.8945700000000004  0.69761  1.0000
  C   C53       1.0  0.30597000000000013  0.78513  0.33442  1.0000
  C   C54       1.0  0.2448100000000002  0.8442600000000002  0.3425300000000001  1.0000
  C   C55       1.0  0.2800100000000001  0.9209300000000002  0.4495200000000001  1.0000
  C   C56       1.0  0.5994300000000001  0.9032200000000004  0.42032000000000014  1.0000
  C   C57       1.0  0.49230000000000024  0.8191900000000002  0.38427  1.0000
  C   C58       1.0  0.24996000000000013  0.7090100000000001  0.22085000000000002  1.0000
  C   C59       1.0  0.30666  0.72868  0.39784  1.0000
  C   C60       1.0  0.18719000000000008  0.9340300000000002  0.44974  1.0000
  C   C61       1.0  0.4622  0.28445  0.38122  1.0000
  C   C62       1.0  0.2467600000000001  0.12505  0.15127  1.0000
  C   C63       1.0  0.30808000000000013  0.12709000000000006  0.32219  1.0000
  C   C64       1.0  0.41958  0.2632  0.20136  1.0000
  C   C65       1.0  0.74508  0.5906900000000003  0.6011700000000001  1.0000
  C   C66       1.0  0.74215  0.6036100000000002  0.69917  1.0000
  C   C67       1.0  0.6593800000000001  0.51567  0.69542  1.0000
  C   C68       1.0  0.5260400000000003  0.5596600000000004  0.3575600000000001  1.0000
  C   C69       1.0  0.62937  0.56299  0.42288  1.0000
  C   C70       1.0  0.7526300000000004  0.4954600000000001  0.55582  1.0000
  C   C71       1.0  0.8429100000000003  0.68427  0.6306600000000001  1.0000
  C   C72       1.0  0.6973900000000003  0.5236200000000002  0.8026000000000002  1.0000
  C   C73       1.0  0.9494400000000002  0.97073  0.16448000000000002  1.0000
  C   C74       1.0  0.0008399999999999601  0.90182  0.15662000000000006  1.0000
  C   C75       1.0  0.9709500000000002  0.83021  0.04980000000000001  1.0000
  C   C76       1.0  0.9817500000000002  0.17813  0.07896  1.0000
  C   C77       1.0  0.9336400000000004  0.10709000000000006  0.11486000000000003  1.0000
  C   C78       1.0  0.9866800000000002  0.02822  0.27796  1.0000
  C   C79       1.0  0.8293700000000003  0.9077500000000002  0.10087000000000003  1.0000
  C   C80       1.0  0.9841600000000001  0.73746  0.04952  1.0000
  N   N1        1.0  0.5768200000000001  0.9439500000000002  0.94627  1.0000
  N   N2        1.0  0.5027300000000002  0.9443300000000001  0.59554  1.0000
  N   N3        1.0  0.7449900000000003  0.10756000000000004  0.87608  1.0000
  N   N4        1.0  0.34605000000000025  0.7535200000000001  0.6662300000000002  1.0000
  N   N5        1.0  0.4327200000000001  0.8712900000000002  0.022750000000000006  1.0000
  N   N6        1.0  0.62866  0.08733  0.14768  1.0000
  N   N7        1.0  0.5902000000000002  0.14653000000000005  0.6302900000000001  1.0000
  N   N8        1.0  0.63683  0.98744  0.51828  1.0000
  N   N9        1.0  0.4976200000000001  0.6306100000000001  0.5536600000000002  1.0000
  N   N10       1.0  0.8480200000000001  0.9065200000000002  0.9037500000000003  1.0000
  N   N11       1.0  0.7314300000000002  0.8696699999999999  0.62393  1.0000
  N   N12       1.0  0.5853500000000003  0.6797200000000001  0.8323400000000001  1.0000
  N   N13       1.0  0.34835  0.4102600000000001  0.47726  1.0000
  N   N14       1.0  0.43979  0.48109  0.35267  1.0000
  N   N15       1.0  0.016300000000000085  0.9595900000000003  0.86956  1.0000
  N   N16       1.0  0.9683000000000003  0.11759000000000004  0.9811100000000001  1.0000
  N   N17       1.0  0.4123300000000001  0.04767000000000002  0.049020000000000015  1.0000
  N   N18       1.0  0.5072100000000003  0.06215000000000002  0.40278  1.0000
  N   N19       1.0  0.25567000000000006  0.8971900000000003  0.13678  1.0000
  N   N20       1.0  0.65154  0.25651  0.32427  1.0000
  N   N21       1.0  0.5607100000000003  0.12134000000000009  0.9739200000000002  1.0000
  N   N22       1.0  0.36431000000000013  0.9060200000000003  0.84929  1.0000
  N   N23       1.0  0.4161100000000002  0.85826  0.3695200000000001  1.0000
  N   N24       1.0  0.3699300000000001  0.01748000000000001  0.48169  1.0000
  N   N25       1.0  0.49867000000000006  0.36356000000000005  0.45109  1.0000
  N   N26       1.0  0.15881  0.10419000000000003  0.09701000000000003  1.0000
  N   N27       1.0  0.25992000000000015  0.11850000000000008  0.3630000000000001  1.0000
  N   N28       1.0  0.4322400000000002  0.3272500000000001  0.17623000000000003  1.0000
  N   N29       1.0  0.64797  0.58699  0.52651  1.0000
  N   N30       1.0  0.557  0.5155000000000001  0.6508  1.0000
  N   N31       1.0  0.9875300000000002  0.045800000000000014  0.12964  1.0000
  N   N32       1.0  0.0356  0.88826  0.01803  1.0000
