data_image0
_chemical_formula_structural       Cu8H96C144N24O24
_chemical_formula_sum              "Cu8 H96 C144 N24 O24"
_cell_length_a       15.27602
_cell_length_b       19.60678
_cell_length_c       20.88904
_cell_angle_alpha    90.05483999999998
_cell_angle_beta     98.39159000000001
_cell_angle_gamma    89.86314

_space_group_name_H-M_alt    "P 1"
_space_group_IT_number       1

loop_
  _space_group_symop_operation_xyz
  'x, y, z'

loop_
  _atom_site_type_symbol
  _atom_site_label
  _atom_site_symmetry_multiplicity
  _atom_site_fract_x
  _atom_site_fract_y
  _atom_site_fract_z
  _atom_site_occupancy
  Cu  Cu1       1.0  0.67489  0.53684  0.76113  1.0000
  Cu  Cu2       1.0  0.5453700000000001  0.46013  0.8324400000000001  1.0000
  Cu  Cu3       1.0  0.67521  0.9647  0.26119  1.0000
  Cu  Cu4       1.0  0.54581  0.0413  0.33243  1.0000
  Cu  Cu5       1.0  0.32479  0.03529  0.7388100000000001  1.0000
  Cu  Cu6       1.0  0.45419  0.9586900000000002  0.66757  1.0000
  Cu  Cu7       1.0  0.32511  0.46316  0.23887  1.0000
  Cu  Cu8       1.0  0.45463  0.53987  0.16756  1.0000
  H   H1        1.0  0.6283200000000002  0.9501899999999999  0.11545000000000001  1.0000
  H   H2        1.0  0.61731  0.86444  0.026700000000000005  1.0000
  H   H3        1.0  0.69041  0.71059  0.17327  1.0000
  H   H4        1.0  0.69228  0.8028  0.25531  1.0000
  H   H5        1.0  0.67217  0.80175  0.965  1.0000
  H   H6        1.0  0.67396  0.71595  0.87861  1.0000
  H   H7        1.0  0.6506000000000002  0.55533  0.0145  1.0000
  H   H8        1.0  0.6465200000000002  0.64001  0.10124  1.0000
  H   H9        1.0  0.82878  0.62312  0.8047000000000001  1.0000
  H   H10       1.0  0.9932700000000002  0.61534  0.82211  1.0000
  H   H11       1.0  0.9656400000000003  0.4004  0.7784800000000001  1.0000
  H   H12       1.0  0.80262  0.41851999999999995  0.75817  1.0000
  H   H13       1.0  0.11276000000000003  0.57671  0.88729  1.0000
  H   H14       1.0  0.27674  0.56606  0.90373  1.0000
  H   H15       1.0  0.2605  0.41075000000000006  0.75821  1.0000
  H   H16       1.0  0.09577  0.42081  0.74028  1.0000
  H   H17       1.0  0.55912  0.03733  0.47301000000000004  1.0000
  H   H18       1.0  0.57349  0.1177  0.5642100000000001  1.0000
  H   H19       1.0  0.56278  0.28147  0.42327  1.0000
  H   H20       1.0  0.55325  0.19208  0.33802  1.0000
  H   H21       1.0  0.53028  0.19436  0.62522  1.0000
  H   H22       1.0  0.55451  0.27797  0.71396  1.0000
  H   H23       1.0  0.66427  0.41928  0.59056  1.0000
  H   H24       1.0  0.64166  0.33552  0.50052  1.0000
  H   H25       1.0  0.62893  0.55049  0.61453  1.0000
  H   H26       1.0  0.6174300000000001  0.63629  0.5260300000000001  1.0000
  H   H27       1.0  0.69002  0.78988  0.6730000000000002  1.0000
  H   H28       1.0  0.6920200000000001  0.69772  0.75474  1.0000
  H   H29       1.0  0.67196  0.69893  0.46439  1.0000
  H   H30       1.0  0.6755600000000003  0.78449  0.37851  1.0000
  H   H31       1.0  0.6515  0.94549  0.51453  1.0000
  H   H32       1.0  0.64622  0.86064  0.60101  1.0000
  H   H33       1.0  0.8303700000000002  0.8775500000000002  0.30385000000000006  1.0000
  H   H34       1.0  0.9948200000000003  0.88559  0.32122  1.0000
  H   H35       1.0  0.9654600000000002  0.10048  0.27763  1.0000
  H   H36       1.0  0.80254  0.08207  0.25733000000000006  1.0000
  H   H37       1.0  0.11339  0.92444  0.38666  1.0000
  H   H38       1.0  0.27745  0.9349800000000001  0.40354  1.0000
  H   H39       1.0  0.2609  0.08992  0.25794  1.0000
  H   H40       1.0  0.09614000000000003  0.08016  0.23977  1.0000
  H   H41       1.0  0.5596  0.46332999999999996  0.9730400000000001  1.0000
  H   H42       1.0  0.5742800000000002  0.38252  0.06371  1.0000
  H   H43       1.0  0.5628500000000002  0.21932  0.9217700000000001  1.0000
  H   H44       1.0  0.55295  0.30917  0.83713  1.0000
  H   H45       1.0  0.5300000000000002  0.30702  0.12375  1.0000
  H   H46       1.0  0.55407  0.22463  0.21310000000000004  1.0000
  H   H47       1.0  0.664  0.08131  0.09090000000000001  1.0000
  H   H48       1.0  0.6413900000000002  0.16409  0.0001  1.0000
  H   H49       1.0  0.37107  0.44950999999999997  0.38547  1.0000
  H   H50       1.0  0.38257  0.36371  0.47397  1.0000
  H   H51       1.0  0.30998  0.21012  0.327  1.0000
  H   H52       1.0  0.30798  0.30227  0.24526000000000003  1.0000
  H   H53       1.0  0.32804  0.30106  0.53561  1.0000
  H   H54       1.0  0.3244400000000001  0.2155  0.62149  1.0000
  H   H55       1.0  0.3485  0.0545  0.48547  1.0000
  H   H56       1.0  0.35378  0.13935  0.39899000000000007  1.0000
  H   H57       1.0  0.16963  0.12244  0.69615  1.0000
  H   H58       1.0  0.005180000000000027  0.1144  0.67878  1.0000
  H   H59       1.0  0.034550000000000004  0.8995100000000001  0.72237  1.0000
  H   H60       1.0  0.19747  0.91792  0.74267  1.0000
  H   H61       1.0  0.88662  0.07555  0.61334  1.0000
  H   H62       1.0  0.72255  0.06502  0.59646  1.0000
  H   H63       1.0  0.7391  0.9100799999999999  0.7420600000000002  1.0000
  H   H64       1.0  0.90386  0.91983  0.76023  1.0000
  H   H65       1.0  0.4404  0.53666  0.026950000000000005  1.0000
  H   H66       1.0  0.4257200000000001  0.61748  0.93629  1.0000
  H   H67       1.0  0.4371500000000001  0.78068  0.07823  1.0000
  H   H68       1.0  0.44705  0.69082  0.16287  1.0000
  H   H69       1.0  0.47000000000000014  0.69298  0.87625  1.0000
  H   H70       1.0  0.4459300000000002  0.77537  0.7869000000000002  1.0000
  H   H71       1.0  0.336  0.91869  0.9091  1.0000
  H   H72       1.0  0.3586100000000001  0.8359099999999999  0.9999  1.0000
  H   H73       1.0  0.3716800000000002  0.04981  0.8845400000000001  1.0000
  H   H74       1.0  0.38269  0.13555  0.9733  1.0000
  H   H75       1.0  0.30959  0.2894  0.8267300000000001  1.0000
  H   H76       1.0  0.3077200000000001  0.1972  0.74469  1.0000
  H   H77       1.0  0.32783  0.19824  0.035  1.0000
  H   H78       1.0  0.32604  0.28404  0.12139  1.0000
  H   H79       1.0  0.3494  0.44467  0.9855  1.0000
  H   H80       1.0  0.35349  0.35998  0.89876  1.0000
  H   H81       1.0  0.17122  0.37687  0.1953  1.0000
  H   H82       1.0  0.006730000000000008  0.38465  0.17789  1.0000
  H   H83       1.0  0.03436  0.5996  0.22152  1.0000
  H   H84       1.0  0.19738  0.58147  0.24183  1.0000
  H   H85       1.0  0.8872400000000003  0.42329  0.11271000000000002  1.0000
  H   H86       1.0  0.72326  0.43394  0.09627  1.0000
  H   H87       1.0  0.73951  0.58924  0.24179000000000003  1.0000
  H   H88       1.0  0.90423  0.57919  0.25972  1.0000
  H   H89       1.0  0.44088  0.9626699999999999  0.52699  1.0000
  H   H90       1.0  0.42651000000000006  0.8822900000000001  0.43579  1.0000
  H   H91       1.0  0.4372200000000001  0.71852  0.57673  1.0000
  H   H92       1.0  0.4467500000000002  0.80791  0.66198  1.0000
  H   H93       1.0  0.46972  0.80563  0.37478  1.0000
  H   H94       1.0  0.44549  0.72202  0.28604  1.0000
  H   H95       1.0  0.33573  0.58072  0.40944  1.0000
  H   H96       1.0  0.35835000000000006  0.66448  0.49948000000000004  1.0000
  C   C1        1.0  0.64201  0.8964  0.12564  1.0000
  C   C2        1.0  0.63706  0.84813  0.07648000000000002  1.0000
  C   C3        1.0  0.65722  0.77927  0.09142  1.0000
  C   C4        1.0  0.6762000000000002  0.76286  0.15759  1.0000
  C   C5        1.0  0.6784  0.81417  0.20382  1.0000
  C   C6        1.0  0.6593600000000002  0.72764  0.04013  1.0000
  C   C7        1.0  0.667  0.74802  0.9765500000000001  1.0000
  C   C8        1.0  0.66913  0.7001  0.9277900000000001  1.0000
  C   C9        1.0  0.66333  0.63025  0.94094  1.0000
  C   C10       1.0  0.6559600000000002  0.60935  0.00412  1.0000
  C   C11       1.0  0.6544600000000003  0.6574  0.05305  1.0000
  C   C12       1.0  0.86235  0.57515  0.79845  1.0000
  C   C13       1.0  0.9539300000000002  0.56993  0.80909  1.0000
  C   C14       1.0  0.9950500000000002  0.50669  0.8016700000000001  1.0000
  C   C15       1.0  0.9386800000000002  0.45119  0.7834100000000002  1.0000
  C   C16       1.0  0.84751  0.46047000000000005  0.7727900000000001  1.0000
  C   C17       1.0  0.09223  0.49938  0.8126100000000002  1.0000
  C   C18       1.0  0.14447  0.54058  0.85841  1.0000
  C   C19       1.0  0.23622  0.5345  0.86823  1.0000
  C   C20       1.0  0.27839  0.48745  0.83232  1.0000
  C   C21       1.0  0.2268800000000001  0.44622000000000006  0.78655  1.0000
  C   C22       1.0  0.13495000000000004  0.45188  0.77697  1.0000
  C   C23       1.0  0.37780000000000014  0.48277  0.84268  1.0000
  C   C24       1.0  0.66256  0.57962  0.88721  1.0000
  C   C25       1.0  0.56133  0.0919  0.46464000000000005  1.0000
  C   C26       1.0  0.56885  0.1382  0.51541  1.0000
  C   C27       1.0  0.57175  0.20840999999999998  0.50263  1.0000
  C   C28       1.0  0.56442  0.22801999999999997  0.43722  1.0000
  C   C29       1.0  0.55765  0.17883  0.38893  1.0000
  C   C30       1.0  0.5832300000000002  0.25887  0.55564  1.0000
  C   C31       1.0  0.5595800000000002  0.24342000000000003  0.6166900000000001  1.0000
  C   C32       1.0  0.57273  0.29061  0.667  1.0000
  C   C33       1.0  0.61016  0.35444  0.65775  1.0000
  C   C34       1.0  0.63407  0.37013  0.59707  1.0000
  C   C35       1.0  0.6207000000000003  0.32312  0.5467100000000001  1.0000
  C   C36       1.0  0.6256000000000003  0.40523  0.71192  1.0000
  C   C37       1.0  0.64215  0.60425  0.62493  1.0000
  C   C38       1.0  0.63707  0.65253  0.57585  1.0000
  C   C39       1.0  0.6570000000000003  0.72136  0.5908800000000001  1.0000
  C   C40       1.0  0.6758800000000003  0.73769  0.6571  1.0000
  C   C41       1.0  0.6781000000000003  0.68639  0.70324  1.0000
  C   C42       1.0  0.65921  0.77305  0.53968  1.0000
  C   C43       1.0  0.66724  0.75271  0.4761  1.0000
  C   C44       1.0  0.6701100000000002  0.80065  0.42755  1.0000
  C   C45       1.0  0.6642100000000001  0.8705599999999999  0.44082  1.0000
  C   C46       1.0  0.6566900000000002  0.89142  0.50405  1.0000
  C   C47       1.0  0.6546000000000002  0.84333  0.55282  1.0000
  C   C48       1.0  0.8634600000000002  0.92562  0.29766  1.0000
  C   C49       1.0  0.95504  0.93095  0.30829  1.0000
  C   C50       1.0  0.9957  0.9942600000000001  0.301  1.0000
  C   C51       1.0  0.9389  0.04966  0.28264000000000006  1.0000
  C   C52       1.0  0.84778  0.04023  0.27201  1.0000
  C   C53       1.0  0.09281000000000002  0.00166  0.31208  1.0000
  C   C54       1.0  0.14516000000000007  0.96049  0.35793  1.0000
  C   C55       1.0  0.2369  0.96648  0.36791000000000007  1.0000
  C   C56       1.0  0.2788400000000001  0.01348  0.33202  1.0000
  C   C57       1.0  0.2272  0.054610000000000006  0.28618  1.0000
  C   C58       1.0  0.13531  0.04908  0.2765  1.0000
  C   C59       1.0  0.37819000000000014  0.01856  0.34252  1.0000
  C   C60       1.0  0.6626800000000003  0.92133  0.3871200000000001  1.0000
  C   C61       1.0  0.5617  0.40878  0.9643300000000001  1.0000
  C   C62       1.0  0.56932  0.36222  0.014790000000000003  1.0000
  C   C63       1.0  0.5718800000000003  0.29204  0.00164  1.0000
  C   C64       1.0  0.5645  0.27268  0.9361300000000001  1.0000
  C   C65       1.0  0.55761  0.32215  0.8881400000000002  1.0000
  C   C66       1.0  0.58305  0.24167  0.05468  1.0000
  C   C67       1.0  0.5593500000000001  0.25776  0.11562000000000001  1.0000
  C   C68       1.0  0.57241  0.21111000000000002  0.16633  1.0000
  C   C69       1.0  0.60989  0.14701  0.15757  1.0000
  C   C70       1.0  0.63378  0.13067  0.09695  1.0000
  C   C71       1.0  0.6204300000000003  0.17715  0.046180000000000006  1.0000
  C   C72       1.0  0.62548  0.09639  0.21187  1.0000
  C   C73       1.0  0.35785  0.39575  0.37507  1.0000
  C   C74       1.0  0.36293  0.34747  0.42415  1.0000
  C   C75       1.0  0.34300000000000014  0.27863  0.40912000000000004  1.0000
  C   C76       1.0  0.32412000000000013  0.26231  0.3429  1.0000
  C   C77       1.0  0.32190000000000013  0.3136  0.29676  1.0000
  C   C78       1.0  0.34079  0.22693999999999998  0.46032  1.0000
  C   C79       1.0  0.33276  0.24729  0.5239000000000001  1.0000
  C   C80       1.0  0.32989  0.19934  0.5724500000000001  1.0000
  C   C81       1.0  0.33579  0.12944  0.55918  1.0000
  C   C82       1.0  0.34331  0.10858  0.49595000000000006  1.0000
  C   C83       1.0  0.3454000000000001  0.15666  0.44718  1.0000
  C   C84       1.0  0.13654  0.07437  0.70234  1.0000
  C   C85       1.0  0.044950000000000025  0.06904  0.69171  1.0000
  C   C86       1.0  0.004299999999999976  0.00574  0.699  1.0000
  C   C87       1.0  0.06109999999999998  0.95033  0.71736  1.0000
  C   C88       1.0  0.15222  0.95976  0.72799  1.0000
  C   C89       1.0  0.9071900000000002  0.99834  0.68792  1.0000
  C   C90       1.0  0.8548400000000003  0.03951  0.64207  1.0000
  C   C91       1.0  0.7631  0.03351  0.63209  1.0000
  C   C92       1.0  0.7211600000000004  0.98651  0.66798  1.0000
  C   C93       1.0  0.7728000000000003  0.94538  0.71382  1.0000
  C   C94       1.0  0.8646899999999998  0.95092  0.7235  1.0000
  C   C95       1.0  0.62181  0.98143  0.65749  1.0000
  C   C96       1.0  0.33732  0.07866  0.61288  1.0000
  C   C97       1.0  0.4383  0.59121  0.03567  1.0000
  C   C98       1.0  0.4306800000000001  0.63778  0.9852100000000001  1.0000
  C   C99       1.0  0.42811  0.70796  0.99836  1.0000
  C   C100      1.0  0.4355  0.72732  0.06387  1.0000
  C   C101      1.0  0.4423900000000001  0.67784  0.11186000000000001  1.0000
  C   C102      1.0  0.41695  0.75833  0.94532  1.0000
  C   C103      1.0  0.44065  0.74223  0.88439  1.0000
  C   C104      1.0  0.42759  0.78889  0.83367  1.0000
  C   C105      1.0  0.39011000000000007  0.85298  0.8424300000000002  1.0000
  C   C106      1.0  0.36622  0.8693299999999999  0.9030500000000001  1.0000
  C   C107      1.0  0.37957000000000013  0.82285  0.9538200000000001  1.0000
  C   C108      1.0  0.37452  0.9036099999999999  0.7881300000000001  1.0000
  C   C109      1.0  0.35799000000000003  0.1036  0.87436  1.0000
  C   C110      1.0  0.3629400000000001  0.15187  0.92352  1.0000
  C   C111      1.0  0.34278  0.22073  0.90858  1.0000
  C   C112      1.0  0.32380000000000003  0.23713  0.8424100000000001  1.0000
  C   C113      1.0  0.3216  0.18582  0.79618  1.0000
  C   C114      1.0  0.34064000000000016  0.27235  0.9598700000000001  1.0000
  C   C115      1.0  0.333  0.25197  0.02345  1.0000
  C   C116      1.0  0.33087  0.29989  0.07221  1.0000
  C   C117      1.0  0.33668  0.36974  0.05906000000000001  1.0000
  C   C118      1.0  0.3440400000000001  0.39064  0.99588  1.0000
  C   C119      1.0  0.34555  0.3426  0.94695  1.0000
  C   C120      1.0  0.13765000000000005  0.42484000000000005  0.20155  1.0000
  C   C121      1.0  0.04607  0.43006  0.19091  1.0000
  C   C122      1.0  0.004950000000000001  0.49330000000000007  0.19833  1.0000
  C   C123      1.0  0.061320000000000006  0.54881  0.21659  1.0000
  C   C124      1.0  0.15249  0.53952  0.22721  1.0000
  C   C125      1.0  0.90777  0.50062  0.18739  1.0000
  C   C126      1.0  0.85554  0.45942000000000005  0.14159  1.0000
  C   C127      1.0  0.76378  0.46548999999999996  0.13177  1.0000
  C   C128      1.0  0.7216100000000003  0.51254  0.16768000000000002  1.0000
  C   C129      1.0  0.7731200000000003  0.55378  0.21345000000000006  1.0000
  C   C130      1.0  0.8650500000000002  0.54811  0.22303  1.0000
  C   C131      1.0  0.6222000000000002  0.51722  0.15732  1.0000
  C   C132      1.0  0.33744000000000013  0.42037  0.11279  1.0000
  C   C133      1.0  0.4386700000000002  0.9081000000000001  0.53536  1.0000
  C   C134      1.0  0.43115  0.8618  0.4846  1.0000
  C   C135      1.0  0.42825  0.79159  0.49737  1.0000
  C   C136      1.0  0.43557999999999997  0.77198  0.56278  1.0000
  C   C137      1.0  0.4423500000000002  0.8211599999999999  0.61107  1.0000
  C   C138      1.0  0.41677  0.74112  0.44436000000000003  1.0000
  C   C139      1.0  0.4404200000000001  0.75658  0.38331000000000004  1.0000
  C   C140      1.0  0.42727000000000004  0.70939  0.333  1.0000
  C   C141      1.0  0.3898500000000002  0.64555  0.34225  1.0000
  C   C142      1.0  0.36593  0.62986  0.40293  1.0000
  C   C143      1.0  0.37930000000000014  0.67687  0.45329  1.0000
  C   C144      1.0  0.3744000000000001  0.59476  0.28808  1.0000
  N   N1        1.0  0.66401  0.88052  0.18872  1.0000
  N   N2        1.0  0.8092400000000002  0.52155  0.7800500000000001  1.0000
  N   N3        1.0  0.54173  0.5304  0.7633500000000001  1.0000
  N   N4        1.0  0.5019400000000003  0.58473  0.76265  1.0000
  N   N5        1.0  0.46452  0.63698  0.7585300000000001  1.0000
  N   N6        1.0  0.55729  0.11153  0.40237  1.0000
  N   N7        1.0  0.6639400000000002  0.62007  0.6880600000000001  1.0000
  N   N8        1.0  0.80986  0.97918  0.27938  1.0000
  N   N9        1.0  0.54213  0.97123  0.26305  1.0000
  N   N10       1.0  0.50275  0.9168900000000001  0.26284  1.0000
  N   N11       1.0  0.46561  0.86465  0.25926  1.0000
  N   N12       1.0  0.5573  0.38942  0.9019400000000001  1.0000
  N   N13       1.0  0.33606000000000014  0.37992  0.31194  1.0000
  N   N14       1.0  0.19014  0.020820000000000005  0.72062  1.0000
  N   N15       1.0  0.45787  0.02876  0.7369500000000001  1.0000
  N   N16       1.0  0.49726  0.08312  0.73716  1.0000
  N   N17       1.0  0.53439  0.13533  0.7407400000000001  1.0000
  N   N18       1.0  0.4427  0.61058  0.09806000000000001  1.0000
  N   N19       1.0  0.33598  0.11948  0.81128  1.0000
  N   N20       1.0  0.19077000000000002  0.4784399999999999  0.21995000000000003  1.0000
  N   N21       1.0  0.4582700000000001  0.4696000000000001  0.23665  1.0000
  N   N22       1.0  0.4980700000000001  0.4152600000000001  0.23736  1.0000
  N   N23       1.0  0.53548  0.36301  0.24148  1.0000
  N   N24       1.0  0.4427100000000001  0.88847  0.59763  1.0000
  O   O1        1.0  0.42203  0.52169  0.8831400000000001  1.0000
  O   O2        1.0  0.41239  0.43809000000000003  0.8083600000000001  1.0000
  O   O3        1.0  0.6844600000000002  0.60308  0.83414  1.0000
  O   O4        1.0  0.63992  0.51871  0.8962300000000001  1.0000
  O   O5        1.0  0.60433  0.3904  0.7664  1.0000
  O   O6        1.0  0.6624100000000003  0.46149  0.69785  1.0000
  O   O7        1.0  0.42251  0.9798  0.38312  1.0000
  O   O8        1.0  0.41248  0.0634  0.30836  1.0000
  O   O9        1.0  0.68427  0.89803  0.33385  1.0000
  O   O10       1.0  0.6398900000000002  0.9823  0.39631000000000005  1.0000
  O   O11       1.0  0.6043  0.11131  0.26641  1.0000
  O   O12       1.0  0.66243  0.04  0.19778  1.0000
  O   O13       1.0  0.57749  0.02019  0.61688  1.0000
  O   O14       1.0  0.58752  0.9366000000000001  0.69165  1.0000
  O   O15       1.0  0.31574  0.10196  0.66615  1.0000
  O   O16       1.0  0.36011  0.01769  0.60369  1.0000
  O   O17       1.0  0.3957000000000001  0.88869  0.73359  1.0000
  O   O18       1.0  0.33757  0.95999  0.80222  1.0000
  O   O19       1.0  0.57797  0.4783  0.11686  1.0000
  O   O20       1.0  0.5876100000000001  0.5619  0.19164  1.0000
  O   O21       1.0  0.31554  0.39692  0.16586  1.0000
  O   O22       1.0  0.3600800000000001  0.48128000000000004  0.10377  1.0000
  O   O23       1.0  0.39567  0.6096  0.2336  1.0000
  O   O24       1.0  0.33759  0.5385  0.30216000000000004  1.0000
