data_image0
_chemical_formula_structural       Zn8H84C120N12O28
_chemical_formula_sum              "Zn8 H84 C120 N12 O28"
_cell_length_a       16.42398
_cell_length_b       17.26982
_cell_length_c       18.578880000000005
_cell_angle_alpha    90.00852000000002
_cell_angle_beta     89.9466
_cell_angle_gamma    95.3115

_space_group_name_H-M_alt    "P 1"
_space_group_IT_number       1

loop_
  _space_group_symop_operation_xyz
  'x, y, z'

loop_
  _atom_site_type_symbol
  _atom_site_label
  _atom_site_symmetry_multiplicity
  _atom_site_fract_x
  _atom_site_fract_y
  _atom_site_fract_z
  _atom_site_occupancy
  Zn  Zn1       1.0  0.49403  0.47511  0.56824  1.0000
  Zn  Zn2       1.0  0.6711399999999997  0.50233  0.55848  1.0000
  Zn  Zn3       1.0  0.50613  0.024749999999999994  0.06757  1.0000
  Zn  Zn4       1.0  0.32871  0.99763  0.06004000000000001  1.0000
  Zn  Zn5       1.0  0.5059799999999998  0.52489  0.4317599999999999  1.0000
  Zn  Zn6       1.0  0.3288699999999999  0.49767  0.44152  1.0000
  Zn  Zn7       1.0  0.49387999999999993  0.9752500000000001  0.9324299999999999  1.0000
  Zn  Zn8       1.0  0.67129  0.00236  0.9399499999999998  1.0000
  H   H1        1.0  0.4396  0.12535  0.83408  1.0000
  H   H2        1.0  0.72518  0.34825  0.65891  1.0000
  H   H3        1.0  0.13855  0.64785  0.5253499999999999  1.0000
  H   H4        1.0  0.30004  0.13812  0.87496  1.0000
  H   H5        1.0  0.15630999999999995  0.13732  0.8347  1.0000
  H   H6        1.0  0.12445  0.17103  0.7077  1.0000
  H   H7        1.0  0.23885  0.20398999999999995  0.62118  1.0000
  H   H8        1.0  0.3820299999999999  0.20190999999999998  0.65988  1.0000
  H   H9        1.0  0.70799  0.18379999999999994  0.78767  1.0000
  H   H10       1.0  0.45495  0.29432  0.70988  1.0000
  H   H11       1.0  0.8585799999999998  0.29541  0.61375  1.0000
  H   H12       1.0  0.9994599999999999  0.27429  0.65252  1.0000
  H   H13       1.0  0.03133  0.26143  0.78336  1.0000
  H   H14       1.0  0.92169  0.27124  0.87418  1.0000
  H   H15       1.0  0.78104  0.2931  0.83542  1.0000
  H   H16       1.0  0.91328  0.60105  0.54176  1.0000
  H   H17       1.0  0.14856  0.77412  0.58341  1.0000
  H   H18       1.0  0.9754999999999999  0.93324  0.51692  1.0000
  H   H19       1.0  0.10523000000000002  0.90772  0.57891  1.0000
  H   H20       1.0  0.89125  0.82356  0.45842  1.0000
  H   H21       1.0  0.93418  0.69041  0.46218  1.0000
  H   H22       1.0  0.56023  0.37453  0.3343499999999999  1.0000
  H   H23       1.0  0.27489  0.15165  0.15929  1.0000
  H   H24       1.0  0.86183  0.85155  0.02338  1.0000
  H   H25       1.0  0.69969  0.36198  0.37491  1.0000
  H   H26       1.0  0.84335  0.36282  0.33447  1.0000
  H   H27       1.0  0.87531  0.3288199999999999  0.20747  1.0000
  H   H28       1.0  0.76094  0.29582  0.12107  1.0000
  H   H29       1.0  0.61775  0.29776  0.15999  1.0000
  H   H30       1.0  0.29171  0.31619  0.28795  1.0000
  H   H31       1.0  0.5449199999999997  0.20559  0.21017  1.0000
  H   H32       1.0  0.14144  0.20443  0.11379  1.0000
  H   H33       1.0  0.0005499999999999965  0.22579999999999997  0.15261  1.0000
  H   H34       1.0  0.96846  0.23866999999999997  0.28345  1.0000
  H   H35       1.0  0.07790999999999998  0.22858999999999993  0.37427  1.0000
  H   H36       1.0  0.21858  0.20664999999999994  0.33541  1.0000
  H   H37       1.0  0.08723999999999997  0.89936  0.04161  1.0000
  H   H38       1.0  0.85171  0.72602  0.08357  1.0000
  H   H39       1.0  0.024089999999999997  0.56629  0.01667  1.0000
  H   H40       1.0  0.89462  0.59223  0.07901  1.0000
  H   H41       1.0  0.10899999999999999  0.67581  0.95849  1.0000
  H   H42       1.0  0.06650999999999997  0.8092099999999998  0.9623900000000001  1.0000
  H   H43       1.0  0.56041  0.87465  0.16592  1.0000
  H   H44       1.0  0.27483  0.65174  0.34109  1.0000
  H   H45       1.0  0.86146  0.35215  0.47465000000000007  1.0000
  H   H46       1.0  0.69997  0.86188  0.12504  1.0000
  H   H47       1.0  0.8436899999999998  0.86267  0.1653  1.0000
  H   H48       1.0  0.87556  0.82896  0.2923  1.0000
  H   H49       1.0  0.7611599999999997  0.796  0.37882  1.0000
  H   H50       1.0  0.6179699999999998  0.7980899999999997  0.34012  1.0000
  H   H51       1.0  0.29201  0.81619  0.21233  1.0000
  H   H52       1.0  0.54506  0.7056799999999998  0.29012  1.0000
  H   H53       1.0  0.14142  0.70458  0.38625  1.0000
  H   H54       1.0  0.0005499999999999829  0.7256999999999999  0.34748  1.0000
  H   H55       1.0  0.9686799999999998  0.7385699999999997  0.21663999999999997  1.0000
  H   H56       1.0  0.07830999999999996  0.7287599999999997  0.12582  1.0000
  H   H57       1.0  0.21896  0.7069  0.16458  1.0000
  H   H58       1.0  0.08672  0.39894  0.4582399999999999  1.0000
  H   H59       1.0  0.85145  0.22588  0.41659  1.0000
  H   H60       1.0  0.024499999999999994  0.06675  0.48308  1.0000
  H   H61       1.0  0.8947699999999997  0.09227  0.42109  1.0000
  H   H62       1.0  0.10875999999999997  0.17644  0.54158  1.0000
  H   H63       1.0  0.06583  0.30959  0.53782  1.0000
  H   H64       1.0  0.43977  0.62547  0.66565  1.0000
  H   H65       1.0  0.7251099999999998  0.84835  0.84071  1.0000
  H   H66       1.0  0.13818  0.14844  0.97662  1.0000
  H   H67       1.0  0.30032  0.63801  0.62509  1.0000
  H   H68       1.0  0.15665  0.63718  0.66553  1.0000
  H   H69       1.0  0.12469  0.67118  0.79253  1.0000
  H   H70       1.0  0.23905999999999994  0.70417  0.8789300000000001  1.0000
  H   H71       1.0  0.38225  0.70224  0.84001  1.0000
  H   H72       1.0  0.7083  0.68381  0.71205  1.0000
  H   H73       1.0  0.45508999999999994  0.7944  0.78983  1.0000
  H   H74       1.0  0.85857  0.79556  0.8862099999999999  1.0000
  H   H75       1.0  0.99945  0.7742  0.8473899999999999  1.0000
  H   H76       1.0  0.031540000000000006  0.76133  0.71655  1.0000
  H   H77       1.0  0.9221  0.7714  0.62573  1.0000
  H   H78       1.0  0.7814199999999999  0.79334  0.66459  1.0000
  H   H79       1.0  0.9127599999999998  0.10064  0.95839  1.0000
  H   H80       1.0  0.1483  0.27398  0.9164300000000001  1.0000
  H   H81       1.0  0.97592  0.4337  0.98333  1.0000
  H   H82       1.0  0.10539  0.40777  0.92099  1.0000
  H   H83       1.0  0.891  0.32419  0.04151  1.0000
  H   H84       1.0  0.9334899999999998  0.19078  0.03761  1.0000
  C   C1        1.0  0.28641  0.15298999999999993  0.8195  1.0000
  C   C2        1.0  0.20561  0.15273  0.79663  1.0000
  C   C3        1.0  0.18767  0.17178999999999997  0.72542  1.0000
  C   C4        1.0  0.25181  0.19043  0.67699  1.0000
  C   C5        1.0  0.3330499999999999  0.19062  0.69887  1.0000
  C   C6        1.0  0.3511699999999999  0.17253  0.77075  1.0000
  C   C7        1.0  0.50403  0.20260999999999996  0.77149  1.0000
  C   C8        1.0  0.5790099999999998  0.17362  0.7946599999999999  1.0000
  C   C9        1.0  0.65311  0.20937  0.77076  1.0000
  C   C10       1.0  0.6586  0.2742299999999999  0.7239899999999999  1.0000
  C   C11       1.0  0.58389  0.30368  0.70142  1.0000
  C   C12       1.0  0.50968  0.2682  0.72594  1.0000
  C   C13       1.0  0.58147  0.10403  0.84303  1.0000
  C   C14       1.0  0.58136  0.37197  0.6520199999999999  1.0000
  C   C15       1.0  0.81064  0.2937399999999999  0.72201  1.0000
  C   C16       1.0  0.87309  0.29027999999999987  0.67058  1.0000
  C   C17       1.0  0.95202  0.27838  0.69283  1.0000
  C   C18       1.0  0.9696999999999998  0.27055  0.76598  1.0000
  C   C19       1.0  0.90786  0.2754  0.81718  1.0000
  C   C20       1.0  0.8286599999999997  0.28709  0.79565  1.0000
  C   C21       1.0  0.8241399999999998  0.46854999999999997  0.52037  1.0000
  C   C22       1.0  0.91483  0.48336999999999997  0.50959  1.0000
  C   C23       1.0  0.95186  0.55798  0.52184  1.0000
  C   C24       1.0  0.0364  0.57696  0.51235  1.0000
  C   C25       1.0  0.04425000000000001  0.72253  0.52396  1.0000
  C   C26       1.0  0.0922  0.78536  0.5560899999999999  1.0000
  C   C27       1.0  0.99498  0.87476  0.51851  1.0000
  C   C28       1.0  0.06763999999999998  0.86033  0.55333  1.0000
  C   C29       1.0  0.94746  0.81291  0.48625  1.0000
  C   C30       1.0  0.97112  0.73735  0.48882  1.0000
  C   C31       1.0  0.7132999999999998  0.3469299999999999  0.31946  1.0000
  C   C32       1.0  0.7941  0.34719  0.29648  1.0000
  C   C33       1.0  0.8120799999999998  0.32802  0.22527999999999998  1.0000
  C   C34       1.0  0.74798  0.30932  0.17692  1.0000
  C   C35       1.0  0.66673  0.30908999999999986  0.19889  1.0000
  C   C36       1.0  0.6486  0.3273  0.27078  1.0000
  C   C37       1.0  0.49579999999999996  0.29738  0.27164  1.0000
  C   C38       1.0  0.42082  0.32633  0.29513  1.0000
  C   C39       1.0  0.3467599999999999  0.2908499999999999  0.27099999999999996  1.0000
  C   C40       1.0  0.34127  0.22598  0.22416  1.0000
  C   C41       1.0  0.41593999999999987  0.1963  0.20161  1.0000
  C   C42       1.0  0.49010999999999993  0.23176  0.22602  1.0000
  C   C43       1.0  0.41842  0.39536  0.34432  1.0000
  C   C44       1.0  0.4181199999999999  0.12788  0.15219999999999997  1.0000
  C   C45       1.0  0.18925  0.20635  0.22204  1.0000
  C   C46       1.0  0.12689  0.20974  0.17062  1.0000
  C   C47       1.0  0.047929999999999987  0.22167  0.19291  1.0000
  C   C48       1.0  0.03011  0.22947  0.26607  1.0000
  C   C49       1.0  0.09183  0.22451  0.31725999999999993  1.0000
  C   C50       1.0  0.17106  0.21284  0.29569  1.0000
  C   C51       1.0  0.17563  0.03273  0.02182  1.0000
  C   C52       1.0  0.08514  0.01708  0.00976  1.0000
  C   C53       1.0  0.04845999999999999  0.9422399999999999  0.02171  1.0000
  C   C54       1.0  0.96397  0.9228  0.01204  1.0000
  C   C55       1.0  0.95621  0.77722  0.02399  1.0000
  C   C56       1.0  0.90804  0.71456  0.05622  1.0000
  C   C57       1.0  0.004959999999999996  0.6249  0.01848  1.0000
  C   C58       1.0  0.9323699999999998  0.63952  0.05340999999999999  1.0000
  C   C59       1.0  0.05279999999999999  0.68665  0.98632  1.0000
  C   C60       1.0  0.02941  0.76229  0.9889500000000001  1.0000
  C   C61       1.0  0.7135899999999997  0.8470099999999998  0.1805  1.0000
  C   C62       1.0  0.79439  0.8472699999999997  0.20336999999999997  1.0000
  C   C63       1.0  0.8123299999999998  0.8282  0.27458  1.0000
  C   C64       1.0  0.7482  0.8095599999999997  0.32301  1.0000
  C   C65       1.0  0.6669499999999998  0.80937  0.30113  1.0000
  C   C66       1.0  0.64883  0.82747  0.22925  1.0000
  C   C67       1.0  0.49598  0.79738  0.22851  1.0000
  C   C68       1.0  0.4209999999999998  0.8263799999999998  0.20534  1.0000
  C   C69       1.0  0.3469  0.79063  0.22924  1.0000
  C   C70       1.0  0.3414  0.72577  0.27601  1.0000
  C   C71       1.0  0.41612  0.69632  0.29857999999999996  1.0000
  C   C72       1.0  0.49033  0.7317899999999999  0.27406  1.0000
  C   C73       1.0  0.41853999999999997  0.8959699999999998  0.15697  1.0000
  C   C74       1.0  0.41864999999999997  0.62802  0.34798  1.0000
  C   C75       1.0  0.18936  0.70625  0.27799  1.0000
  C   C76       1.0  0.12691  0.70972  0.32942  1.0000
  C   C77       1.0  0.047979999999999995  0.72162  0.30717  1.0000
  C   C78       1.0  0.030300000000000004  0.72945  0.23402000000000003  1.0000
  C   C79       1.0  0.09215  0.72459  0.18282  1.0000
  C   C80       1.0  0.17135  0.7129  0.20435  1.0000
  C   C81       1.0  0.17587  0.53145  0.47962999999999995  1.0000
  C   C82       1.0  0.08516999999999995  0.5166199999999997  0.49040999999999996  1.0000
  C   C83       1.0  0.04814999999999999  0.44200999999999996  0.47814999999999996  1.0000
  C   C84       1.0  0.9636  0.42303  0.4876499999999999  1.0000
  C   C85       1.0  0.95575  0.27746  0.47603999999999996  1.0000
  C   C86       1.0  0.90781  0.21463  0.4439  1.0000
  C   C87       1.0  0.00503  0.12524  0.48149  1.0000
  C   C88       1.0  0.9323699999999998  0.13967  0.44667  1.0000
  C   C89       1.0  0.05254  0.18709  0.51375  1.0000
  C   C90       1.0  0.02888  0.26264  0.51118  1.0000
  C   C91       1.0  0.2867  0.65307  0.68054  1.0000
  C   C92       1.0  0.20589999999999994  0.65281  0.70351  1.0000
  C   C93       1.0  0.18792  0.67197  0.77472  1.0000
  C   C94       1.0  0.25202999999999987  0.69067  0.82308  1.0000
  C   C95       1.0  0.3332800000000001  0.6909  0.8011  1.0000
  C   C96       1.0  0.35139999999999993  0.6727  0.72922  1.0000
  C   C97       1.0  0.50421  0.7026199999999999  0.72836  1.0000
  C   C98       1.0  0.57919  0.6736699999999999  0.70487  1.0000
  C   C99       1.0  0.65325  0.7091399999999998  0.729  1.0000
  C   C100      1.0  0.6587399999999999  0.77401  0.77584  1.0000
  C   C101      1.0  0.58406  0.8037  0.7983899999999999  1.0000
  C   C102      1.0  0.50989  0.76823  0.7739799999999999  1.0000
  C   C103      1.0  0.5815899999999998  0.60463  0.65568  1.0000
  C   C104      1.0  0.5818799999999997  0.87211  0.8477999999999999  1.0000
  C   C105      1.0  0.81075  0.79365  0.77796  1.0000
  C   C106      1.0  0.87312  0.7902499999999998  0.82938  1.0000
  C   C107      1.0  0.95208  0.77833  0.80709  1.0000
  C   C108      1.0  0.9698899999999998  0.77052  0.73393  1.0000
  C   C109      1.0  0.90817  0.77548  0.68274  1.0000
  C   C110      1.0  0.8289400000000001  0.78716  0.70431  1.0000
  C   C111      1.0  0.82437  0.96726  0.97818  1.0000
  C   C112      1.0  0.91487  0.98291  0.99024  1.0000
  C   C113      1.0  0.95154  0.05776  0.97829  1.0000
  C   C114      1.0  0.036029999999999986  0.0772  0.98796  1.0000
  C   C115      1.0  0.0438  0.22277  0.9759999999999999  1.0000
  C   C116      1.0  0.09197  0.28543  0.94378  1.0000
  C   C117      1.0  0.99504  0.3750899999999999  0.98152  1.0000
  C   C118      1.0  0.06762999999999997  0.36047  0.94659  1.0000
  C   C119      1.0  0.9471999999999998  0.31335  0.01368  1.0000
  C   C120      1.0  0.9706  0.23771  0.01105  1.0000
  N   N1        1.0  0.43072  0.16814  0.79622  1.0000
  N   N2        1.0  0.73191  0.30646  0.69787  1.0000
  N   N3        1.0  0.07498999999999999  0.64994  0.526  1.0000
  N   N4        1.0  0.56907  0.33184  0.29628  1.0000
  N   N5        1.0  0.26807  0.19381  0.19798  1.0000
  N   N6        1.0  0.9254699999999999  0.84982  0.02572  1.0000
  N   N7        1.0  0.56929  0.83185  0.20378  1.0000
  N   N8        1.0  0.26809  0.69354  0.30213  1.0000
  N   N9        1.0  0.9250199999999997  0.35005  0.474  1.0000
  N   N10       1.0  0.4309399999999999  0.6681499999999998  0.70371  1.0000
  N   N11       1.0  0.73194  0.8061899999999997  0.80202  1.0000
  N   N12       1.0  0.07454  0.15018  0.9742799999999999  1.0000
  O   O1        1.0  0.50991  0.39063  0.63627  1.0000
  O   O2        1.0  0.64908  0.40573  0.6293399999999999  1.0000
  O   O3        1.0  0.51231  0.0688  0.8615600000000001  1.0000
  O   O4        1.0  0.65119  0.08562  0.86209  1.0000
  O   O5        1.0  0.78964  0.52331  0.55257  1.0000
  O   O6        1.0  0.7859399999999999  0.40611  0.49829  1.0000
  O   O7        1.0  0.58404  0.4881  0.49505000000000005  1.0000
  O   O8        1.0  0.48929  0.10963  0.13512  1.0000
  O   O9        1.0  0.35003  0.09371  0.13083  1.0000
  O   O10       1.0  0.48762999999999995  0.43012  0.36318  1.0000
  O   O11       1.0  0.34884999999999994  0.41395  0.36371  1.0000
  O   O12       1.0  0.21048  0.9763000000000001  0.05075  1.0000
  O   O13       1.0  0.21331  0.09718  0.00405  1.0000
  O   O14       1.0  0.4155999999999999  0.0118  0.99597  1.0000
  O   O15       1.0  0.4900999999999999  0.60936  0.36373  1.0000
  O   O16       1.0  0.35093  0.5942699999999999  0.37066  1.0000
  O   O17       1.0  0.4877  0.9311999999999999  0.13844  1.0000
  O   O18       1.0  0.34882  0.91438  0.13791  1.0000
  O   O19       1.0  0.2103699999999999  0.47667999999999994  0.44743  1.0000
  O   O20       1.0  0.21406  0.59388  0.50171  1.0000
  O   O21       1.0  0.4159699999999999  0.5119  0.5049499999999999  1.0000
  O   O22       1.0  0.51072  0.8903699999999999  0.86488  1.0000
  O   O23       1.0  0.64997  0.90629  0.8691700000000001  1.0000
  O   O24       1.0  0.51237  0.5698799999999999  0.63682  1.0000
  O   O25       1.0  0.65115  0.58604  0.63629  1.0000
  O   O26       1.0  0.78952  0.02369  0.94925  1.0000
  O   O27       1.0  0.78669  0.90281  0.9959499999999999  1.0000
  O   O28       1.0  0.5843999999999998  0.9882  0.00403  1.0000
