data_image0
_chemical_formula_structural       Ca12H96C120N24O72
_chemical_formula_sum              "Ca12 H96 C120 N24 O72"
_cell_length_a       15.57752
_cell_length_b       16.28872
_cell_length_c       16.38353
_cell_angle_alpha    101.86386
_cell_angle_beta     94.13503
_cell_angle_gamma    93.31723999999998

_symmetry_space_group_name_H-M    'P 1'
_symmetry_Int_Tables_number       1

loop_
  _symmetry_equiv_pos_as_xyz
  'x,y,z'

loop_
  _atom_site_type_symbol
  _atom_site_label
  _atom_site_symmetry_multiplicity
  _atom_site_fract_x
  _atom_site_fract_y
  _atom_site_fract_z
  _atom_site_occupancy
  Ca  Ca1       1.0  0.61137  0.89059  0.7176000000000002  1.0000
  Ca  Ca2       1.0  0.62004  0.6406  0.6750100000000002  1.0000
  Ca  Ca3       1.0  0.18824000000000002  0.4847800000000002  0.8920100000000002  1.0000
  Ca  Ca4       1.0  0.89572  0.28612  0.11002000000000003  1.0000
  Ca  Ca5       1.0  0.8821  0.32647  0.35872  1.0000
  Ca  Ca6       1.0  0.31295  0.10075999999999999  0.511  1.0000
  Ca  Ca7       1.0  0.38863000000000003  0.10941000000000002  0.28238000000000013  1.0000
  Ca  Ca8       1.0  0.37998  0.3594  0.32499  1.0000
  Ca  Ca9       1.0  0.81177  0.51522  0.10799  1.0000
  Ca  Ca10      1.0  0.10428000000000003  0.7138900000000002  0.8899700000000003  1.0000
  Ca  Ca11      1.0  0.11788  0.6735100000000003  0.64127  1.0000
  Ca  Ca12      1.0  0.6870799999999999  0.8991900000000002  0.4889900000000001  1.0000
  H   H1        1.0  0.52257  0.27784000000000003  0.7275000000000003  1.0000
  H   H2        1.0  0.71286  0.47552  0.7091500000000002  1.0000
  H   H3        1.0  0.7691800000000001  0.30521  0.8703200000000002  1.0000
  H   H4        1.0  0.56439  0.10788000000000006  0.9364100000000002  1.0000
  H   H5        1.0  0.67384  0.09543000000000006  0.9667100000000002  1.0000
  H   H6        1.0  0.41709  0.48828000000000005  0.6109700000000002  1.0000
  H   H7        1.0  0.34347000000000005  0.4007900000000001  0.6099600000000002  1.0000
  H   H8        1.0  0.92528  0.59299  0.8242  1.0000
  H   H9        1.0  0.96519  0.55336  0.7254100000000002  1.0000
  H   H10       1.0  0.62888  0.6569700000000002  0.10559000000000003  1.0000
  H   H11       1.0  0.46684  0.45507000000000003  0.16024000000000005  1.0000
  H   H12       1.0  0.36817  0.60004  0.9906500000000003  1.0000
  H   H13       1.0  0.41795  0.79499  0.8546000000000002  1.0000
  H   H14       1.0  0.5181300000000001  0.8312900000000001  0.9125300000000002  1.0000
  H   H15       1.0  0.72686  0.4637  0.3099000000000001  1.0000
  H   H16       1.0  0.66033  0.36933  0.2854100000000001  1.0000
  H   H17       1.0  0.17675  0.3870900000000001  0.07071  1.0000
  H   H18       1.0  0.24481  0.30234  0.049290000000000014  1.0000
  H   H19       1.0  0.71963  0.20601  0.9116900000000002  1.0000
  H   H20       1.0  0.47169000000000005  0.31628000000000006  0.6163400000000002  1.0000
  H   H21       1.0  0.84966  0.45835  0.7007800000000002  1.0000
  H   H22       1.0  0.39692  0.69487  0.9367800000000002  1.0000
  H   H23       1.0  0.56057  0.42459  0.21132000000000006  1.0000
  H   H24       1.0  0.34464  0.42037  0.16457  1.0000
  H   H25       1.0  0.97332  0.27148  0.72295  1.0000
  H   H26       1.0  0.78321  0.28421  0.52122  1.0000
  H   H27       1.0  0.72957  0.12658  0.69442  1.0000
  H   H28       1.0  0.93703  0.06483999999999998  0.89385  1.0000
  H   H29       1.0  0.82837  0.03485000000000005  0.9071200000000003  1.0000
  H   H30       1.0  0.0751  0.38675  0.5123800000000002  1.0000
  H   H31       1.0  0.14987999999999996  0.38539  0.59934  1.0000
  H   H32       1.0  0.57362  0.1708  0.4039100000000001  1.0000
  H   H33       1.0  0.53211  0.27018000000000003  0.44174000000000013  1.0000
  H   H34       1.0  0.87163  0.8956800000000003  0.3407600000000001  1.0000
  H   H35       1.0  0.031020000000000034  0.8425200000000003  0.5473500000000002  1.0000
  H   H36       1.0  0.13251  0.007120000000000021  0.4014200000000001  1.0000
  H   H37       1.0  0.08507  0.14443  0.20669000000000007  1.0000
  H   H38       1.0  0.98448  0.08805000000000002  0.16912000000000005  1.0000
  H   H39       1.0  0.77336  0.69036  0.5327700000000002  1.0000
  H   H40       1.0  0.84207  0.71168  0.62536  1.0000
  H   H41       1.0  0.32117  0.9282900000000001  0.6193800000000003  1.0000
  H   H42       1.0  0.25289  0.94765  0.70279  1.0000
  H   H43       1.0  0.77914  0.09011000000000007  0.7969800000000002  1.0000
  H   H44       1.0  0.024150000000000005  0.3798  0.68315  1.0000
  H   H45       1.0  0.64708  0.29505  0.5384600000000003  1.0000
  H   H46       1.0  0.10511  0.06155999999999999  0.30691  1.0000
  H   H47       1.0  0.93979  0.7878100000000002  0.5722300000000002  1.0000
  H   H48       1.0  0.15308000000000002  0.8349600000000003  0.5835200000000003  1.0000
  H   H49       1.0  0.47743  0.72217  0.2725  1.0000
  H   H50       1.0  0.28715000000000007  0.52448  0.2908500000000001  1.0000
  H   H51       1.0  0.23082  0.69479  0.12968000000000005  1.0000
  H   H52       1.0  0.43563  0.89211  0.06358000000000003  1.0000
  H   H53       1.0  0.32617  0.90456  0.033270000000000015  1.0000
  H   H54       1.0  0.5829200000000001  0.51173  0.3890200000000001  1.0000
  H   H55       1.0  0.6565399999999999  0.59922  0.39004  1.0000
  H   H56       1.0  0.07473  0.40701000000000004  0.17580000000000007  1.0000
  H   H57       1.0  0.03482000000000001  0.44664000000000004  0.2745800000000001  1.0000
  H   H58       1.0  0.37113000000000007  0.3430300000000002  0.8944100000000003  1.0000
  H   H59       1.0  0.53316  0.5449400000000001  0.8397600000000002  1.0000
  H   H60       1.0  0.63183  0.39997  0.009360000000000004  1.0000
  H   H61       1.0  0.58206  0.20501  0.14541000000000007  1.0000
  H   H62       1.0  0.48188000000000003  0.16872000000000004  0.08747000000000003  1.0000
  H   H63       1.0  0.27315  0.53629  0.6901000000000003  1.0000
  H   H64       1.0  0.33967  0.63067  0.71458  1.0000
  H   H65       1.0  0.82326  0.61292  0.9293100000000002  1.0000
  H   H66       1.0  0.75519  0.69766  0.9507100000000003  1.0000
  H   H67       1.0  0.28038  0.79398  0.08830000000000003  1.0000
  H   H68       1.0  0.52832  0.68372  0.3836500000000001  1.0000
  H   H69       1.0  0.15035000000000004  0.5416500000000001  0.2992100000000001  1.0000
  H   H70       1.0  0.60309  0.30513  0.06322  1.0000
  H   H71       1.0  0.43944000000000005  0.5754100000000002  0.7886800000000003  1.0000
  H   H72       1.0  0.6553699999999999  0.57965  0.83543  1.0000
  H   H73       1.0  0.02670000000000002  0.7285100000000001  0.2770400000000001  1.0000
  H   H74       1.0  0.21679000000000007  0.7157700000000001  0.4787700000000001  1.0000
  H   H75       1.0  0.27045  0.8734  0.3055600000000001  1.0000
  H   H76       1.0  0.06297  0.93516  0.10615000000000002  1.0000
  H   H77       1.0  0.17164  0.96514  0.09288  1.0000
  H   H78       1.0  0.9249  0.61325  0.4876200000000001  1.0000
  H   H79       1.0  0.8501300000000002  0.61462  0.4006500000000001  1.0000
  H   H80       1.0  0.42640000000000006  0.8292000000000002  0.5960700000000002  1.0000
  H   H81       1.0  0.46796  0.72983  0.55822  1.0000
  H   H82       1.0  0.12841000000000005  0.10432000000000011  0.6591800000000002  1.0000
  H   H83       1.0  0.96904  0.15752000000000002  0.4526500000000001  1.0000
  H   H84       1.0  0.86752  0.9928900000000002  0.5985900000000002  1.0000
  H   H85       1.0  0.91494  0.8556000000000002  0.7932700000000003  1.0000
  H   H86       1.0  0.015530000000000033  0.9119800000000002  0.8308400000000002  1.0000
  H   H87       1.0  0.22669000000000006  0.3096500000000001  0.4672100000000001  1.0000
  H   H88       1.0  0.15796  0.28835  0.37463000000000013  1.0000
  H   H89       1.0  0.67881  0.07159000000000003  0.3805400000000001  1.0000
  H   H90       1.0  0.74719  0.05233  0.29723  1.0000
  H   H91       1.0  0.22087000000000007  0.9098800000000001  0.20301000000000005  1.0000
  H   H92       1.0  0.97585  0.6202000000000002  0.3168400000000001  1.0000
  H   H93       1.0  0.35294000000000003  0.70493  0.4615500000000001  1.0000
  H   H94       1.0  0.8949  0.93849  0.69306  1.0000
  H   H95       1.0  0.060230000000000006  0.21220000000000003  0.42775000000000013  1.0000
  H   H96       1.0  0.84685  0.16507000000000002  0.41648000000000013  1.0000
  C   C1        1.0  0.6427300000000001  0.2818500000000001  0.7990200000000002  1.0000
  C   C2        1.0  0.58645  0.3106500000000002  0.7423100000000002  1.0000
  C   C3        1.0  0.61089  0.38126  0.71092  1.0000
  C   C4        1.0  0.69461  0.4195500000000001  0.7323500000000002  1.0000
  C   C5        1.0  0.75126  0.39112  0.7889  1.0000
  C   C6        1.0  0.72447  0.3235700000000002  0.8241100000000002  1.0000
  C   C7        1.0  0.60825  0.20699000000000006  0.8300100000000002  1.0000
  C   C8        1.0  0.62937  0.10481000000000003  0.9148700000000002  1.0000
  C   C9        1.0  0.62655  0.027140000000000063  0.8438800000000002  1.0000
  C   C10       1.0  0.54738  0.4253300000000001  0.6661500000000002  1.0000
  C   C11       1.0  0.40572  0.41988  0.58958  1.0000
  C   C12       1.0  0.39944  0.40106  0.4940200000000001  1.0000
  C   C13       1.0  0.83614  0.43938  0.81966  1.0000
  C   C14       1.0  0.9460499999999998  0.53663  0.7837600000000002  1.0000
  C   C15       1.0  0.026860000000000012  0.5118  0.8262100000000002  1.0000
  C   C16       1.0  0.50005  0.63847  0.04472  1.0000
  C   C17       1.0  0.56679  0.6212800000000003  0.09983000000000003  1.0000
  C   C18       1.0  0.55593  0.5554000000000002  0.14220000000000005  1.0000
  C   C19       1.0  0.47601  0.50861  0.13119000000000006  1.0000
  C   C20       1.0  0.40852999999999995  0.52575  0.07809000000000003  1.0000
  C   C21       1.0  0.4209  0.5905  0.034290000000000015  1.0000
  C   C22       1.0  0.52263  0.70108  0.99168  1.0000
  C   C23       1.0  0.47785  0.77445  0.8812700000000002  1.0000
  C   C24       1.0  0.52388  0.73025  0.80732  1.0000
  C   C25       1.0  0.63184  0.52849  0.18881  1.0000
  C   C26       1.0  0.68852  0.41998000000000013  0.2581200000000001  1.0000
  C   C27       1.0  0.75074  0.3803  0.19651  1.0000
  C   C28       1.0  0.32674000000000003  0.47054  0.06022000000000002  1.0000
  C   C29       1.0  0.23215  0.35847999999999997  0.0957  1.0000
  C   C30       1.0  0.20959000000000003  0.33201  0.17721000000000006  1.0000
  C   C31       1.0  0.85448  0.19938000000000006  0.7181200000000002  1.0000
  C   C32       1.0  0.9098499999999996  0.25566  0.68901  1.0000
  C   C33       1.0  0.8850100000000001  0.28535  0.6173900000000002  1.0000
  C   C34       1.0  0.80169  0.26252000000000003  0.5781100000000002  1.0000
  C   C35       1.0  0.74583  0.20645000000000008  0.6069900000000003  1.0000
  C   C36       1.0  0.7732  0.17276000000000005  0.6756300000000002  1.0000
  C   C37       1.0  0.88985  0.17054000000000002  0.7941500000000002  1.0000
  C   C38       1.0  0.8719  0.08674  0.89737  1.0000
  C   C39       1.0  0.8756099999999998  0.15799000000000005  0.9748300000000002  1.0000
  C   C40       1.0  0.94742  0.33064  0.57412  1.0000
  C   C41       1.0  0.08794  0.4076600000000001  0.5804600000000002  1.0000
  C   C42       1.0  0.09556000000000003  0.5037  0.6000600000000003  1.0000
  C   C43       1.0  0.66139  0.17542  0.55776  1.0000
  C   C44       1.0  0.55198  0.21186  0.4591300000000001  1.0000
  C   C45       1.0  0.47117  0.17049  0.48298000000000013  1.0000
  C   C46       1.0  0.0007099999999999989  0.95462  0.36135  1.0000
  C   C47       1.0  0.9331899999999999  0.90089  0.3778900000000001  1.0000
  C   C48       1.0  0.94291  0.8593600000000001  0.4445400000000001  1.0000
  C   C49       1.0  0.0224  0.87002  0.4927600000000001  1.0000
  C   C50       1.0  0.09060999999999998  0.92147  0.47615000000000013  1.0000
  C   C51       1.0  0.07947000000000001  0.96432  0.4105200000000001  1.0000
  C   C52       1.0  0.97927  0.007550000000000003  0.29798  1.0000
  C   C53       1.0  0.025150000000000006  0.11812000000000006  0.22626000000000004  1.0000
  C   C54       1.0  0.97933  0.19286000000000011  0.2703  1.0000
  C   C55       1.0  0.86684  0.8134100000000001  0.4704800000000001  1.0000
  C   C56       1.0  0.81257  0.7412500000000001  0.5767200000000002  1.0000
  C   C57       1.0  0.7518899999999998  0.80329  0.6191700000000002  1.0000
  C   C58       1.0  0.17174  0.93894  0.5328400000000002  1.0000
  C   C59       1.0  0.26584  0.90221  0.64615  1.0000
  C   C60       1.0  0.28916000000000003  0.81937  0.6711700000000003  1.0000
  C   C61       1.0  0.35728  0.71815  0.20098000000000005  1.0000
  C   C62       1.0  0.41356  0.68936  0.25768  1.0000
  C   C63       1.0  0.38912  0.61874  0.2890800000000001  1.0000
  C   C64       1.0  0.3054  0.58045  0.26765  1.0000
  C   C65       1.0  0.24875000000000003  0.60888  0.21110000000000007  1.0000
  C   C66       1.0  0.27554  0.67643  0.17589  1.0000
  C   C67       1.0  0.39175  0.79301  0.16999000000000006  1.0000
  C   C68       1.0  0.37064  0.89519  0.08512  1.0000
  C   C69       1.0  0.37346  0.97286  0.15611000000000005  1.0000
  C   C70       1.0  0.45262  0.57467  0.33385  1.0000
  C   C71       1.0  0.59429  0.58012  0.4104200000000001  1.0000
  C   C72       1.0  0.60057  0.59894  0.50598  1.0000
  C   C73       1.0  0.16387  0.56062  0.18033000000000005  1.0000
  C   C74       1.0  0.05396  0.46337  0.21624000000000004  1.0000
  C   C75       1.0  0.97315  0.48821000000000003  0.17379000000000006  1.0000
  C   C76       1.0  0.49996  0.36154000000000003  0.9552900000000002  1.0000
  C   C77       1.0  0.43322  0.37872  0.9001700000000002  1.0000
  C   C78       1.0  0.44408  0.44460000000000005  0.8578100000000002  1.0000
  C   C79       1.0  0.524  0.49138  0.8688100000000002  1.0000
  C   C80       1.0  0.59149  0.47424  0.9219000000000003  1.0000
  C   C81       1.0  0.57911  0.4095  0.9657100000000002  1.0000
  C   C82       1.0  0.47737  0.29892  0.008330000000000004  1.0000
  C   C83       1.0  0.52216  0.22555  0.11873000000000003  1.0000
  C   C84       1.0  0.47613  0.2697500000000001  0.19267000000000006  1.0000
  C   C85       1.0  0.36816  0.47151  0.81119  1.0000
  C   C86       1.0  0.31149  0.5800200000000002  0.7418800000000002  1.0000
  C   C87       1.0  0.24927  0.6197000000000003  0.80348  1.0000
  C   C88       1.0  0.67327  0.52947  0.9397800000000002  1.0000
  C   C89       1.0  0.76787  0.6415200000000001  0.9043000000000002  1.0000
  C   C90       1.0  0.79043  0.66799  0.8227900000000002  1.0000
  C   C91       1.0  0.14554000000000003  0.8006  0.2818700000000001  1.0000
  C   C92       1.0  0.09016  0.74433  0.3109800000000001  1.0000
  C   C93       1.0  0.11500000000000002  0.7146400000000003  0.38261  1.0000
  C   C94       1.0  0.19832  0.73746  0.4218800000000001  1.0000
  C   C95       1.0  0.25418  0.79353  0.39301000000000014  1.0000
  C   C96       1.0  0.22681000000000004  0.8272300000000004  0.3243600000000001  1.0000
  C   C97       1.0  0.11016  0.82945  0.20585000000000006  1.0000
  C   C98       1.0  0.12811  0.91325  0.10263000000000003  1.0000
  C   C99       1.0  0.12439000000000001  0.842  0.02517000000000001  1.0000
  C   C100      1.0  0.05259000000000003  0.6693600000000004  0.4258800000000001  1.0000
  C   C101      1.0  0.91206  0.59234  0.4195300000000001  1.0000
  C   C102      1.0  0.90445  0.4963000000000001  0.3999300000000001  1.0000
  C   C103      1.0  0.33862  0.82456  0.44224000000000013  1.0000
  C   C104      1.0  0.44804  0.78814  0.54085  1.0000
  C   C105      1.0  0.52885  0.82953  0.517  1.0000
  C   C106      1.0  0.9993  0.04541000000000005  0.6386300000000003  1.0000
  C   C107      1.0  0.06683000000000003  0.09915000000000003  0.6221000000000002  1.0000
  C   C108      1.0  0.05711  0.1407  0.55547  1.0000
  C   C109      1.0  0.97763  0.13001000000000004  0.50723  1.0000
  C   C110      1.0  0.90942  0.07854  0.52383  1.0000
  C   C111      1.0  0.92055  0.035690000000000055  0.5894600000000002  1.0000
  C   C112      1.0  0.02074000000000002  0.9924400000000001  0.7019300000000003  1.0000
  C   C113      1.0  0.97487  0.88189  0.7737000000000003  1.0000
  C   C114      1.0  0.020680000000000018  0.80715  0.7296700000000003  1.0000
  C   C115      1.0  0.13316999999999996  0.18661  0.52951  1.0000
  C   C116      1.0  0.18745999999999996  0.25877  0.42326  1.0000
  C   C117      1.0  0.24813  0.1967200000000001  0.3808100000000001  1.0000
  C   C118      1.0  0.82825  0.06110000000000002  0.4671800000000001  1.0000
  C   C119      1.0  0.73414  0.09776000000000003  0.3538300000000001  1.0000
  C   C120      1.0  0.7108  0.18061  0.32879  1.0000
  N   N1        1.0  0.65754  0.18201000000000006  0.8912200000000002  1.0000
  N   N2        1.0  0.47467  0.38081  0.62804  1.0000
  N   N3        1.0  0.87667  0.47131999999999996  0.76065  1.0000
  N   N4        1.0  0.45789  0.7219400000000001  0.9402200000000002  1.0000
  N   N5        1.0  0.61926  0.4595700000000001  0.22094000000000005  1.0000
  N   N6        1.0  0.30747  0.4186700000000001  0.11038000000000003  1.0000
  N   N7        1.0  0.84168  0.11020000000000006  0.8204500000000002  1.0000
  N   N8        1.0  0.01929000000000002  0.37005000000000005  0.6190000000000002  1.0000
  N   N9        1.0  0.62062  0.23491000000000006  0.5253500000000002  1.0000
  N   N10       1.0  0.04467  0.05774  0.27777  1.0000
  N   N11       1.0  0.8807200000000001  0.7789400000000003  0.5378400000000002  1.0000
  N   N12       1.0  0.19066000000000005  0.8887700000000002  0.5852700000000002  1.0000
  N   N13       1.0  0.34247  0.81799  0.10877000000000003  1.0000
  N   N14       1.0  0.52534  0.61919  0.3719600000000001  1.0000
  N   N15       1.0  0.12334000000000002  0.52868  0.23935000000000006  1.0000
  N   N16       1.0  0.54212  0.27807  0.05979000000000002  1.0000
  N   N17       1.0  0.38074999999999987  0.54044  0.7790500000000002  1.0000
  N   N18       1.0  0.69256  0.58132  0.8896100000000002  1.0000
  N   N19       1.0  0.15832  0.8898  0.17954000000000006  1.0000
  N   N20       1.0  0.98071  0.62995  0.3810000000000001  1.0000
  N   N21       1.0  0.37939999999999996  0.76507  0.4746400000000001  1.0000
  N   N22       1.0  0.95535  0.9422600000000001  0.7221600000000002  1.0000
  N   N23       1.0  0.1193  0.22109000000000006  0.4621500000000001  1.0000
  N   N24       1.0  0.8092900000000001  0.11126000000000001  0.41476000000000013  1.0000
  O   O1        1.0  0.53699  0.17051000000000008  0.8015400000000003  1.0000
  O   O2        1.0  0.67503  0.02651000000000006  0.7828500000000003  1.0000
  O   O3        1.0  0.57706  0.96403  0.8485200000000003  1.0000
  O   O4        1.0  0.55963  0.5031  0.6703600000000002  1.0000
  O   O5        1.0  0.32918  0.41615000000000013  0.4572200000000001  1.0000
  O   O6        1.0  0.46357  0.37207  0.45612000000000014  1.0000
  O   O7        1.0  0.86596  0.4523100000000001  0.8939000000000002  1.0000
  O   O8        1.0  0.05608000000000002  0.4400900000000001  0.8042300000000002  1.0000
  O   O9        1.0  0.0693  0.57052  0.88286  1.0000
  O   O10       1.0  0.5981200000000002  0.7299300000000002  0.9924500000000003  1.0000
  O   O11       1.0  0.52398  0.65045  0.7899300000000002  1.0000
  O   O12       1.0  0.5613600000000001  0.7738200000000002  0.7618  1.0000
  O   O13       1.0  0.70613  0.5668  0.19444000000000006  1.0000
  O   O14       1.0  0.81352  0.34511  0.22557000000000005  1.0000
  O   O15       1.0  0.74069  0.38451000000000013  0.11926000000000003  1.0000
  O   O16       1.0  0.27730000000000005  0.47204000000000007  0.9959200000000002  1.0000
  O   O17       1.0  0.26093000000000005  0.36517  0.24246000000000006  1.0000
  O   O18       1.0  0.14419  0.28327  0.1741  1.0000
  O   O19       1.0  0.96117  0.20039000000000007  0.8300500000000002  1.0000
  O   O20       1.0  0.82584  0.21889000000000006  0.9765000000000003  1.0000
  O   O21       1.0  0.92763  0.15391  0.036780000000000014  1.0000
  O   O22       1.0  0.93473  0.32615000000000016  0.4965700000000001  1.0000
  O   O23       1.0  0.16834  0.53894  0.59111  1.0000
  O   O24       1.0  0.03022  0.54355  0.62313  1.0000
  O   O25       1.0  0.63222  0.10055000000000007  0.5437600000000002  1.0000
  O   O26       1.0  0.44246999999999986  0.19271000000000005  0.5541600000000002  1.0000
  O   O27       1.0  0.42835  0.11441  0.42413  1.0000
  O   O28       1.0  0.90414  0.007540000000000024  0.2677000000000001  1.0000
  O   O29       1.0  0.97417  0.20675000000000007  0.34910000000000013  1.0000
  O   O30       1.0  0.94743  0.24234000000000003  0.22704000000000005  1.0000
  O   O31       1.0  0.79204  0.80969  0.4331800000000001  1.0000
  O   O32       1.0  0.69173  0.7739700000000003  0.6558000000000003  1.0000
  O   O33       1.0  0.7612900000000001  0.88133  0.6162400000000002  1.0000
  O   O34       1.0  0.22091  0.003140000000000048  0.5315900000000002  1.0000
  O   O35       1.0  0.23784000000000002  0.7541600000000002  0.6380800000000002  1.0000
  O   O36       1.0  0.35533  0.8216400000000001  0.7191300000000003  1.0000
  O   O37       1.0  0.46302  0.82949  0.19846000000000005  1.0000
  O   O38       1.0  0.32499  0.97349  0.21714  1.0000
  O   O39       1.0  0.42295  0.03596000000000001  0.15146000000000007  1.0000
  O   O40       1.0  0.44038  0.49690000000000006  0.3296400000000001  1.0000
  O   O41       1.0  0.67083  0.58385  0.5427800000000003  1.0000
  O   O42       1.0  0.53644  0.62792  0.54388  1.0000
  O   O43       1.0  0.13405  0.54769  0.10610000000000003  1.0000
  O   O44       1.0  0.94393  0.55991  0.19578000000000007  1.0000
  O   O45       1.0  0.93071  0.42949  0.11713000000000003  1.0000
  O   O46       1.0  0.40189  0.27007  0.007550000000000002  1.0000
  O   O47       1.0  0.47603000000000006  0.34956000000000015  0.21008000000000004  1.0000
  O   O48       1.0  0.43865  0.22618  0.23819000000000007  1.0000
  O   O49       1.0  0.29388  0.43320000000000003  0.8055600000000003  1.0000
  O   O50       1.0  0.18647999999999995  0.65489  0.77443  1.0000
  O   O51       1.0  0.25932000000000005  0.61549  0.8807300000000002  1.0000
  O   O52       1.0  0.72269  0.52799  0.0041  1.0000
  O   O53       1.0  0.7390900000000002  0.63483  0.7575400000000002  1.0000
  O   O54       1.0  0.8558299999999998  0.71671  0.8258900000000002  1.0000
  O   O55       1.0  0.03884000000000001  0.7996000000000002  0.16994000000000006  1.0000
  O   O56       1.0  0.17417  0.7811  0.0235  1.0000
  O   O57       1.0  0.07238000000000003  0.8460900000000001  0.9632100000000002  1.0000
  O   O58       1.0  0.06528000000000002  0.67384  0.50342  1.0000
  O   O59       1.0  0.83167  0.46105  0.40889  1.0000
  O   O60       1.0  0.96979  0.45644  0.37687  1.0000
  O   O61       1.0  0.36778999999999995  0.8994300000000001  0.4562400000000001  1.0000
  O   O62       1.0  0.55756  0.8073  0.4458200000000001  1.0000
  O   O63       1.0  0.5716500000000001  0.8856100000000002  0.5758500000000002  1.0000
  O   O64       1.0  0.0959  0.99239  0.73208  1.0000
  O   O65       1.0  0.025840000000000026  0.7932400000000002  0.6508800000000002  1.0000
  O   O66       1.0  0.052560000000000016  0.75767  0.7729500000000002  1.0000
  O   O67       1.0  0.20796000000000003  0.19028000000000012  0.5668100000000003  1.0000
  O   O68       1.0  0.3083  0.22602000000000008  0.3441700000000001  1.0000
  O   O69       1.0  0.23872  0.11869  0.38376  1.0000
  O   O70       1.0  0.77908  0.9968700000000001  0.46838000000000013  1.0000
  O   O71       1.0  0.76213  0.24581000000000003  0.36191  1.0000
  O   O72       1.0  0.64467  0.17839  0.28077  1.0000
