data_image0
_chemical_formula_structural       Cd4H86C128N6O24
_chemical_formula_sum              "Cd4 H86 C128 N6 O24"
_cell_length_a       14.27167
_cell_length_b       14.811130000000002
_cell_length_c       16.41769
_cell_angle_alpha    112.08804999999998
_cell_angle_beta     103.89251
_cell_angle_gamma    99.91358999999999

_space_group_name_H-M_alt    "P 1"
_space_group_IT_number       1

loop_
  _space_group_symop_operation_xyz
  'x, y, z'

loop_
  _atom_site_type_symbol
  _atom_site_label
  _atom_site_symmetry_multiplicity
  _atom_site_fract_x
  _atom_site_fract_y
  _atom_site_fract_z
  _atom_site_occupancy
  Cd  Cd1       1.0  0.35737  0.4400100000000001  0.5937300000000002  1.0000
  Cd  Cd2       1.0  0.64263  0.55999  0.40627000000000013  1.0000
  Cd  Cd3       1.0  0.06709  0.10992  0.12062000000000003  1.0000
  Cd  Cd4       1.0  0.9329  0.89007  0.8793700000000001  1.0000
  H   H1        1.0  0.12283999999999999  0.48219  0.14319000000000007  1.0000
  H   H2        1.0  0.8888299999999998  0.14391999999999996  0.33838  1.0000
  H   H3        1.0  0.14922000000000005  0.35051  0.19547000000000006  1.0000
  H   H4        1.0  0.7416399999999997  0.9957800000000001  0.6711600000000002  1.0000
  H   H5        1.0  0.7048199999999998  0.31529000000000007  0.9266200000000001  1.0000
  H   H6        1.0  0.09871000000000003  0.06152000000000006  0.4000800000000001  1.0000
  H   H7        1.0  0.8984200000000001  0.42463000000000006  0.9272300000000001  1.0000
  H   H8        1.0  0.5272999999999998  0.87621  0.20230000000000006  1.0000
  H   H9        1.0  0.9075799999999999  0.76659  0.3234400000000001  1.0000
  H   H10       1.0  0.29288  0.23456  0.06474  1.0000
  H   H11       1.0  0.8925900000000001  0.13406000000000012  0.9820600000000003  1.0000
  H   H12       1.0  0.51299  0.002889999999999993  0.41051  1.0000
  H   H13       1.0  0.8575500000000001  0.2574200000000001  0.9187800000000003  1.0000
  H   H14       1.0  0.57647  0.72785  0.17051  1.0000
  H   H15       1.0  0.70711  0.76544  0.93526  1.0000
  H   H16       1.0  0.4263499999999999  0.9955799999999998  0.23264000000000007  1.0000
  H   H17       1.0  0.47464999999999996  0.14077999999999996  0.38076  1.0000
  H   H18       1.0  0.48271  0.51759  0.8623200000000002  1.0000
  H   H19       1.0  0.34939  0.17124  0.70473  1.0000
  H   H20       1.0  0.4726899999999999  0.12378999999999993  0.79769  1.0000
  H   H21       1.0  0.30527000000000004  0.64378  0.5295900000000001  1.0000
  H   H22       1.0  0.52535  0.8592200000000001  0.6192400000000002  1.0000
  H   H23       1.0  0.72509  0.9741800000000002  0.4491000000000001  1.0000
  H   H24       1.0  0.12555000000000002  0.9329400000000001  0.8248900000000002  1.0000
  H   H25       1.0  0.21547000000000002  0.4845900000000001  0.8836300000000002  1.0000
  H   H26       1.0  0.0021800000000000547  0.06081000000000007  0.6004300000000002  1.0000
  H   H27       1.0  0.2177199999999999  0.21727999999999997  0.4193  1.0000
  H   H28       1.0  0.79326  0.6153200000000001  0.3175100000000001  1.0000
  H   H29       1.0  0.84523  0.13291000000000003  0.4720000000000001  1.0000
  H   H30       1.0  0.8507699999999998  0.64949  0.80453  1.0000
  H   H31       1.0  0.65124  0.56734  0.8731400000000002  1.0000
  H   H32       1.0  0.20528999999999994  0.77469  0.43864  1.0000
  H   H33       1.0  0.49597  0.8422300000000001  0.3451200000000001  1.0000
  H   H34       1.0  0.7250199999999999  0.29861  0.16839  1.0000
  H   H35       1.0  0.7144099999999998  0.013070000000000154  0.8959400000000002  1.0000
  H   H36       1.0  0.29643  0.8437900000000002  0.4131800000000001  1.0000
  H   H37       1.0  0.2951799999999999  0.68471  0.07338000000000001  1.0000
  H   H38       1.0  0.9123799999999997  0.48292999999999997  0.22567  1.0000
  H   H39       1.0  0.50403  0.15777  0.65488  1.0000
  H   H40       1.0  0.51729  0.48241  0.13768  1.0000
  H   H41       1.0  0.25835  0.004220000000000002  0.32884  1.0000
  H   H42       1.0  0.34759  0.42981  0.2760000000000001  1.0000
  H   H43       1.0  0.4354299999999999  0.30733999999999995  0.4335500000000001  1.0000
  H   H44       1.0  0.10739999999999997  0.86593  0.01794  1.0000
  H   H45       1.0  0.6947199999999998  0.35622  0.47041  1.0000
  H   H46       1.0  0.6524  0.57019  0.72399  1.0000
  H   H47       1.0  0.8771499999999998  0.51781  0.85681  1.0000
  H   H48       1.0  0.6506000000000001  0.8287600000000003  0.29526000000000013  1.0000
  H   H49       1.0  0.17527000000000006  0.32263000000000003  0.8995300000000003  1.0000
  H   H50       1.0  0.08148  0.60589  0.31492  1.0000
  H   H51       1.0  0.08761000000000004  0.51707  0.7743300000000002  1.0000
  H   H52       1.0  0.8744499999999997  0.06706000000000002  0.17511000000000004  1.0000
  H   H53       1.0  0.7947099999999998  0.22531  0.56136  1.0000
  H   H54       1.0  0.14244999999999997  0.74258  0.08122000000000003  1.0000
  H   H55       1.0  0.2749099999999999  0.025810000000000003  0.5509  1.0000
  H   H56       1.0  0.5645599999999995  0.69266  0.56645  1.0000
  H   H57       1.0  0.9185200000000001  0.39411  0.68508  1.0000
  H   H58       1.0  0.24391999999999994  0.85222  0.9425700000000001  1.0000
  H   H59       1.0  0.3383699999999999  0.52019  0.025260000000000008  1.0000
  H   H60       1.0  0.34875999999999996  0.43266  0.12686000000000003  1.0000
  H   H61       1.0  0.2749700000000001  0.70139  0.8316100000000002  1.0000
  H   H62       1.0  0.10156999999999994  0.57537  0.07277  1.0000
  H   H63       1.0  0.48699999999999977  0.99711  0.5894900000000002  1.0000
  H   H64       1.0  0.42351999999999995  0.2721499999999999  0.82949  1.0000
  H   H65       1.0  0.7845199999999999  0.51541  0.11637000000000003  1.0000
  H   H66       1.0  0.6616199999999999  0.47981000000000007  0.9747400000000002  1.0000
  H   H67       1.0  0.28559  0.98693  0.10406000000000003  1.0000
  H   H68       1.0  0.38509  0.34310000000000007  0.9212400000000001  1.0000
  H   H69       1.0  0.46505999999999986  0.32341  0.6961900000000001  1.0000
  H   H70       1.0  0.7822799999999998  0.78272  0.5807  1.0000
  H   H71       1.0  0.11116000000000006  0.8560800000000001  0.6616200000000002  1.0000
  H   H72       1.0  0.6149099999999997  0.6569  0.07876  1.0000
  H   H73       1.0  0.5736399999999998  0.004420000000000029  0.76735  1.0000
  H   H74       1.0  0.73643  0.23928000000000008  0.7786500000000002  1.0000
  H   H75       1.0  0.9413199999999996  0.84552  0.14946  1.0000
  H   H76       1.0  0.70357  0.1562  0.58682  1.0000
  H   H77       1.0  0.53494  0.67659  0.30381000000000014  1.0000
  H   H78       1.0  0.9012899999999998  0.93848  0.59992  1.0000
  H   H79       1.0  0.1547600000000001  0.8670900000000001  0.5279900000000002  1.0000
  H   H80       1.0  0.20672999999999994  0.38468  0.68249  1.0000
  H   H81       1.0  0.26355999999999996  0.76072  0.22134000000000004  1.0000
  H   H82       1.0  0.9978099999999999  0.9391900000000001  0.39956000000000014  1.0000
  H   H83       1.0  0.8247199999999998  0.6773699999999999  0.10047  1.0000
  H   H84       1.0  0.7560699999999998  0.14778  0.05743  1.0000
  H   H85       1.0  0.09240999999999995  0.23341  0.67656  1.0000
  H   H86       1.0  0.05867000000000006  0.15448000000000014  0.8505400000000002  1.0000
  C   C1        1.0  0.9073599999999999  0.09975000000000016  0.7557700000000003  1.0000
  C   C2        1.0  0.32584999999999986  0.4999  0.29528  1.0000
  C   C3        1.0  0.6837499999999999  0.45553  0.61763  1.0000
  C   C4        1.0  0.8350900000000001  0.07581999999999997  0.32871  1.0000
  C   C5        1.0  0.9805699999999999  0.9533100000000001  0.46367000000000014  1.0000
  C   C6        1.0  0.18933000000000003  0.9302400000000001  0.5970200000000002  1.0000
  C   C7        1.0  0.9736699999999998  0.3780600000000001  0.7320000000000002  1.0000
  C   C8        1.0  0.6998799999999998  0.89801  0.30262  1.0000
  C   C9        1.0  0.46306999999999987  0.6344500000000001  0.9472900000000002  1.0000
  C   C10       1.0  0.08512  0.13395  0.53762  1.0000
  C   C11       1.0  0.12069  0.13124  0.46399  1.0000
  C   C12       1.0  0.05295999999999997  0.71498  0.26037000000000005  1.0000
  C   C13       1.0  0.8805999999999996  0.66105  0.14689000000000002  1.0000
  C   C14       1.0  0.16865000000000002  0.8795000000000001  0.30362000000000006  1.0000
  C   C15       1.0  0.08484  0.33272  0.13484  1.0000
  C   C16       1.0  0.05847999999999993  0.7880899999999998  0.98459  1.0000
  C   C17       1.0  0.5130599999999998  0.81374  0.39745  1.0000
  C   C18       1.0  0.8313499999999998  0.12050000000000007  0.6963800000000002  1.0000
  C   C19       1.0  0.72033  0.31208  0.79923  1.0000
  C   C20       1.0  0.85038  0.21142000000000005  0.68742  1.0000
  C   C21       1.0  0.4651299999999998  0.86944  0.14512000000000005  1.0000
  C   C22       1.0  0.25749  0.02030000000000006  0.6103000000000002  1.0000
  C   C23       1.0  0.27862  0.09868000000000003  0.7769000000000001  1.0000
  C   C24       1.0  0.14178000000000002  0.4284200000000001  0.8441900000000002  1.0000
  C   C25       1.0  0.29829  0.64551  0.11776000000000003  1.0000
  C   C26       1.0  0.28755999999999987  0.63674  0.40916  1.0000
  C   C27       1.0  0.8241699999999997  0.91932  0.00176  1.0000
  C   C28       1.0  0.47192999999999985  0.17795000000000002  0.4509600000000001  1.0000
  C   C29       1.0  0.31624999999999986  0.54447  0.38237  1.0000
  C   C30       1.0  0.52807  0.8220500000000001  0.54904  1.0000
  C   C31       1.0  0.8833699999999998  0.003710000000000072  0.7661900000000003  1.0000
  C   C32       1.0  0.17974999999999994  0.0016499999999999783  0.83679  1.0000
  C   C33       1.0  0.21682999999999997  0.08360000000000001  0.92453  1.0000
  C   C34       1.0  0.8202499999999998  0.9983499999999998  0.16321000000000002  1.0000
  C   C35       1.0  0.11663  0.99629  0.23381000000000005  1.0000
  C   C36       1.0  0.01942  0.04668999999999999  0.53633  1.0000
  C   C37       1.0  0.59198  0.7259999999999998  0.10773  1.0000
  C   C38       1.0  0.48693  0.18626  0.60255  1.0000
  C   C39       1.0  0.88298  0.77286  0.3824800000000001  1.0000
  C   C40       1.0  0.31265000000000004  0.5463  0.23407000000000006  1.0000
  C   C41       1.0  0.55734  0.20995  0.9456900000000001  1.0000
  C   C42       1.0  0.23149999999999998  0.77515  0.38111  1.0000
  C   C43       1.0  0.9316199999999998  0.55273  0.2175  1.0000
  C   C44       1.0  0.0012900000000000613  0.1714000000000001  0.8062400000000002  1.0000
  C   C45       1.0  0.06836999999999994  0.44727  0.7825  1.0000
  C   C46       1.0  0.02633  0.62194  0.268  1.0000
  C   C47       1.0  0.6160699999999999  0.3690600000000001  0.12779000000000001  1.0000
  C   C48       1.0  0.4509599999999999  0.27089  0.47974000000000006  1.0000
  C   C49       1.0  0.11939000000000007  0.3389500000000001  0.8531100000000001  1.0000
  C   C50       1.0  0.30487999999999993  0.8568500000000001  0.9999100000000001  1.0000
  C   C51       1.0  0.96878  0.45278  0.98512  1.0000
  C   C52       1.0  0.7213699999999997  0.90132  0.22309  1.0000
  C   C53       1.0  0.40801  0.27399999999999997  0.89227  1.0000
  C   C54       1.0  0.5338299999999998  0.72091  0.37348  1.0000
  C   C55       1.0  0.79234  0.99298  0.23817000000000005  1.0000
  C   C56       1.0  0.9470399999999999  0.28502000000000005  0.7396300000000002  1.0000
  C   C57       1.0  0.7124299999999998  0.36326  0.59084  1.0000
  C   C58       1.0  0.6632799999999998  0.50346  0.55286  1.0000
  C   C59       1.0  0.9987099999999999  0.8286  0.19375000000000006  1.0000
  C   C60       1.0  0.7329099999999997  0.31867  0.65204  1.0000
  C   C61       1.0  0.17582000000000006  0.08068000000000004  0.9982400000000001  1.0000
  C   C62       1.0  0.2901600000000001  0.1735600000000001  0.9399800000000003  1.0000
  C   C63       1.0  0.51278  0.8687300000000001  0.4884700000000001  1.0000
  C   C64       1.0  0.36107000000000006  0.5548000000000001  0.7744000000000002  1.0000
  C   C65       1.0  0.76849  0.22485000000000008  0.6188900000000003  1.0000
  C   C66       1.0  0.9151599999999998  0.6672799999999999  0.8651600000000002  1.0000
  C   C67       1.0  0.7425  0.9797000000000001  0.3897  1.0000
  C   C68       1.0  0.48721  0.13127  0.51152  1.0000
  C   C69       1.0  0.8184299999999998  0.68863  0.37821  1.0000
  C   C70       1.0  0.50377  0.28399000000000013  0.9641900000000002  1.0000
  C   C71       1.0  0.33671  0.49654  0.44714000000000004  1.0000
  C   C72       1.0  0.8793  0.8687600000000001  0.5360100000000002  1.0000
  C   C73       1.0  0.5348599999999998  0.1305600000000001  0.8548800000000002  1.0000
  C   C74       1.0  0.70984  0.82644  0.06002  1.0000
  C   C75       1.0  0.2845699999999999  0.63954  0.26142  1.0000
  C   C76       1.0  0.67212  0.0683700000000001  0.9108600000000002  1.0000
  C   C77       1.0  0.53692  0.3655399999999999  0.05271  1.0000
  C   C78       1.0  0.7831599999999997  0.9164  0.07547  1.0000
  C   C79       1.0  0.9878499999999998  0.38165  0.02432000000000001  1.0000
  C   C80       1.0  0.70171  0.35448999999999997  0.8822300000000001  1.0000
  C   C81       1.0  0.3291099999999999  0.50377  0.14735000000000006  1.0000
  C   C82       1.0  0.11701999999999993  0.22713999999999995  0.61751  1.0000
  C   C83       1.0  0.50136  0.030309999999999993  0.47786  1.0000
  C   C84       1.0  0.07752  0.71834  0.019180000000000006  1.0000
  C   C85       1.0  0.27966  0.68791  0.20077000000000003  1.0000
  C   C86       1.0  0.4962199999999999  0.71601  0.0358  1.0000
  C   C87       1.0  0.33415000000000006  0.7050800000000002  0.8897700000000001  1.0000
  C   C88       1.0  0.9300699999999998  0.5938200000000001  0.8956200000000002  1.0000
  C   C89       1.0  0.3222799999999999  0.5522  0.08997  1.0000
  C   C90       1.0  0.18155999999999997  0.31136999999999987  0.62179  1.0000
  C   C91       1.0  0.06991999999999997  0.40617  0.10438  1.0000
  C   C92       1.0  0.9769199999999998  0.7347499999999999  0.19897  1.0000
  C   C93       1.0  0.59136  0.06300000000000011  0.8378500000000002  1.0000
  C   C94       1.0  0.4086399999999998  0.9369999999999998  0.16214  1.0000
  C   C95       1.0  0.8131799999999999  0.7818400000000001  0.5259100000000002  1.0000
  C   C96       1.0  0.44266  0.7900499999999999  0.05431  1.0000
  C   C97       1.0  0.64053  0.21609  0.01968  1.0000
  C   C98       1.0  0.26708  0.68133  0.34796  1.0000
  C   C99       1.0  0.012149999999999992  0.61835  0.97568  1.0000
  C   C100      1.0  0.54903  0.72911  0.52025  1.0000
  C   C101      1.0  0.09263  0.90025  0.24423000000000006  1.0000
  C   C102      1.0  0.92247  0.28166  0.9808200000000002  1.0000
  C   C103      1.0  0.66584  0.29492  0.11022000000000003  1.0000
  C   C104      1.0  0.023070000000000028  0.26525  0.8010300000000002  1.0000
  C   C105      1.0  0.20765000000000006  0.007020000000000153  0.7618300000000002  1.0000
  C   C106      1.0  0.16491000000000006  0.92418  0.67129  1.0000
  C   C107      1.0  0.94151  0.2119  0.01541  1.0000
  C   C108      1.0  0.9148799999999998  0.86605  0.4623800000000001  1.0000
  C   C109      1.0  0.68734  0.4537000000000001  0.7659300000000002  1.0000
  C   C110      1.0  0.69512  0.14315  9e-05  1.0000
  C   C111      1.0  0.6741399999999997  0.5001  0.7047200000000002  1.0000
  C   C112      1.0  0.3235100000000001  0.1804400000000001  0.8683200000000002  1.0000
  C   C113      1.0  0.32787  0.93163  0.08914000000000002  1.0000
  C   C114      1.0  0.8582199999999996  0.57158  0.15581  1.0000
  C   C115      1.0  0.81066  0.06975000000000006  0.4029800000000001  1.0000
  C   C116      1.0  0.46616  0.27909000000000006  0.6265200000000002  1.0000
  C   C117      1.0  0.3001199999999999  0.10199000000000005  0.69738  1.0000
  C   C118      1.0  0.6708899999999999  0.49623  0.85264  1.0000
  C   C119      1.0  0.031220000000000008  0.54722  0.014870000000000003  1.0000
  C   C120      1.0  0.63893  0.4452  0.22559000000000007  1.0000
  C   C121      1.0  0.14961999999999992  0.78858  0.31258  1.0000
  C   C122      1.0  0.18681  0.21816  0.47409  1.0000
  C   C123      1.0  0.49863999999999997  0.96969  0.5221400000000002  1.0000
  C   C124      1.0  0.7154199999999998  0.3604599999999999  0.73857  1.0000
  C   C125      1.0  0.6777099999999998  0.44779999999999986  0.91003  1.0000
  C   C126      1.0  0.35947  0.7839100000000001  0.9803200000000002  1.0000
  C   C127      1.0  0.3839300000000001  0.6309400000000001  0.8722100000000003  1.0000
  C   C128      1.0  0.6764799999999997  0.81955  0.13168  1.0000
  N   N1        1.0  0.21725000000000005  0.3073500000000001  0.5519100000000001  1.0000
  N   N2        1.0  0.021879999999999993  0.23611  0.09127  1.0000
  N   N3        1.0  0.5537  0.6795700000000001  0.4341100000000001  1.0000
  N   N4        1.0  0.78275  0.69265  0.44809  1.0000
  N   N5        1.0  0.44629000000000013  0.32043000000000005  0.5658900000000001  1.0000
  N   N6        1.0  0.9781199999999998  0.76389  0.9087200000000002  1.0000
  O   O1        1.0  0.33763  0.40536  0.41898000000000013  1.0000
  O   O2        1.0  0.7911199999999998  0.8408000000000001  0.9214300000000002  1.0000
  O   O3        1.0  0.10499999999999995  0.003970000000000024  0.98408  1.0000
  O   O4        1.0  0.41672999999999993  0.49272  0.75858  1.0000
  O   O5        1.0  0.29258  0.55299  0.7082400000000001  1.0000
  O   O6        1.0  0.26088  0.94929  0.3518000000000001  1.0000
  O   O7        1.0  0.64741  0.4454000000000001  0.4649600000000001  1.0000
  O   O8        1.0  0.49201999999999985  0.44069999999999987  0.06770000000000002  1.0000
  O   O9        1.0  0.73911  0.05071000000000018  0.6482000000000002  1.0000
  O   O10       1.0  0.2779799999999999  0.68195  0.4943  1.0000
  O   O11       1.0  0.5832699999999998  0.50728  0.24142000000000005  1.0000
  O   O12       1.0  0.7940999999999999  0.9444900000000003  0.7302900000000002  1.0000
  O   O13       1.0  0.6623599999999997  0.59464  0.58102  1.0000
  O   O14       1.0  0.20886999999999994  0.15919999999999998  0.07856  1.0000
  O   O15       1.0  0.7220099999999998  0.31805  0.5057  1.0000
  O   O16       1.0  0.70742  0.44700000000000006  0.29176000000000013  1.0000
  O   O17       1.0  0.32784  0.25448  0.02500000000000001  1.0000
  O   O18       1.0  0.6721600000000001  0.7455099999999999  0.9750000000000002  1.0000
  O   O19       1.0  0.3525799999999999  0.5545999999999998  0.53504  1.0000
  O   O20       1.0  0.5079799999999999  0.5593  0.9323000000000002  1.0000
  O   O21       1.0  0.04104000000000002  0.012870000000000038  0.18589000000000006  1.0000
  O   O22       1.0  0.20588999999999993  0.055510000000000004  0.26971  1.0000
  O   O23       1.0  0.8949999999999998  0.99603  0.015920000000000007  1.0000
  O   O24       1.0  0.9589500000000001  0.9871299999999998  0.8141000000000002  1.0000
