data_image0
_chemical_formula_structural       Zn8H96C148N24O36
_chemical_formula_sum              "Zn8 H96 C148 N24 O36"
_cell_length_a       11.47629
_cell_length_b       20.24325
_cell_length_c       29.67795
_cell_angle_alpha    90.02074
_cell_angle_beta     98.78642
_cell_angle_gamma    89.99371

_space_group_name_H-M_alt    "P 1"
_space_group_IT_number       1

loop_
  _space_group_symop_operation_xyz
  'x, y, z'

loop_
  _atom_site_type_symbol
  _atom_site_label
  _atom_site_symmetry_multiplicity
  _atom_site_fract_x
  _atom_site_fract_y
  _atom_site_fract_z
  _atom_site_occupancy
  Zn  Zn1       1.0  0.5409300000000001  0.92229  0.5482500000000002  1.0000
  Zn  Zn2       1.0  0.52852  0.57847  0.45568  1.0000
  Zn  Zn3       1.0  0.45913000000000004  0.4225499999999999  0.9517300000000002  1.0000
  Zn  Zn4       1.0  0.47151  0.07834999999999999  0.044330000000000015  1.0000
  Zn  Zn5       1.0  0.45907999999999993  0.0777  0.4517500000000001  1.0000
  Zn  Zn6       1.0  0.47149  0.42153  0.5443200000000001  1.0000
  Zn  Zn7       1.0  0.54087  0.57744  0.04827000000000001  1.0000
  Zn  Zn8       1.0  0.5285  0.92165  0.9556700000000002  1.0000
  H   H1        1.0  0.3953900000000001  0.60719  0.7082500000000002  1.0000
  H   H2        1.0  0.3725700000000001  0.61172  0.7754100000000003  1.0000
  H   H3        1.0  0.54844  0.6978199999999998  0.54346  1.0000
  H   H4        1.0  0.45447  0.56505  0.6451400000000003  1.0000
  H   H5        1.0  0.4770100000000001  0.77529  0.6717000000000002  1.0000
  H   H6        1.0  0.4320800000000001  0.56593  0.8455500000000002  1.0000
  H   H7        1.0  0.52081  0.69595  0.96038  1.0000
  H   H8        1.0  0.4571100000000001  0.77676  0.8246900000000003  1.0000
  H   H9        1.0  0.31101000000000006  0.8881299999999999  0.48009  1.0000
  H   H10       1.0  0.09368000000000005  0.88708  0.4795000000000001  1.0000
  H   H11       1.0  0.15907999999999994  0.9608699999999999  0.61781  1.0000
  H   H12       1.0  0.37352000000000013  0.9612099999999999  0.6115200000000002  1.0000
  H   H13       1.0  0.937  0.8419499999999999  0.50293  1.0000
  H   H14       1.0  0.7208099999999998  0.84568  0.5064800000000002  1.0000
  H   H15       1.0  0.76112  0.99972  0.59853  1.0000
  H   H16       1.0  0.97923  0.0042  0.59877  1.0000
  H   H17       1.0  0.3074  0.51132  0.4022500000000001  1.0000
  H   H18       1.0  0.09033000000000004  0.5078799999999999  0.4010400000000001  1.0000
  H   H19       1.0  0.13760000000000008  0.65006  0.5111500000000002  1.0000
  H   H20       1.0  0.35171  0.6502599999999998  0.50549  1.0000
  H   H21       1.0  0.93605  0.47805  0.4295700000000001  1.0000
  H   H22       1.0  0.71826  0.48257999999999995  0.4286600000000001  1.0000
  H   H23       1.0  0.7359  0.66901  0.48512000000000005  1.0000
  H   H24       1.0  0.9543799999999999  0.6748999999999999  0.48673  1.0000
  H   H25       1.0  0.6047  0.10725  0.79175  1.0000
  H   H26       1.0  0.62752  0.11163999999999999  0.72455  1.0000
  H   H27       1.0  0.45168000000000014  0.19804  0.9565100000000002  1.0000
  H   H28       1.0  0.54551  0.06518  0.85486  1.0000
  H   H29       1.0  0.52309  0.27545  0.8283  1.0000
  H   H30       1.0  0.5679  0.06578  0.6542400000000003  1.0000
  H   H31       1.0  0.47917  0.19598  0.53958  1.0000
  H   H32       1.0  0.5429300000000001  0.27655  0.6753500000000002  1.0000
  H   H33       1.0  0.68896  0.38825  0.0199  1.0000
  H   H34       1.0  0.90631  0.38706  0.02048000000000001  1.0000
  H   H35       1.0  0.84094  0.46081999999999995  0.8821900000000003  1.0000
  H   H36       1.0  0.6265300000000001  0.46128  0.8885100000000002  1.0000
  H   H37       1.0  0.06320000000000012  0.34196  0.9970200000000002  1.0000
  H   H38       1.0  0.27940000000000015  0.3458699999999999  0.9935500000000003  1.0000
  H   H39       1.0  0.23889000000000002  0.49981999999999993  0.9015200000000001  1.0000
  H   H40       1.0  0.020760000000000008  0.50415  0.90121  1.0000
  H   H41       1.0  0.69262  0.01126  0.09772000000000002  1.0000
  H   H42       1.0  0.90972  0.007889999999999998  0.09895  1.0000
  H   H43       1.0  0.8623800000000001  0.15003999999999998  0.9888900000000003  1.0000
  H   H44       1.0  0.6482600000000001  0.15018  0.9945500000000003  1.0000
  H   H45       1.0  0.06395  0.97804  0.07043  1.0000
  H   H46       1.0  0.28175  0.9825199999999998  0.07135  1.0000
  H   H47       1.0  0.26418  0.16891999999999996  0.01489  1.0000
  H   H48       1.0  0.04569  0.17484  0.013280000000000002  1.0000
  H   H49       1.0  0.60462  0.39281  0.2917500000000001  1.0000
  H   H50       1.0  0.62744  0.38828  0.22459000000000007  1.0000
  H   H51       1.0  0.45157  0.30216999999999994  0.45654  1.0000
  H   H52       1.0  0.5455400000000001  0.43494  0.3548600000000001  1.0000
  H   H53       1.0  0.5230000000000001  0.22470999999999994  0.3283000000000001  1.0000
  H   H54       1.0  0.56793  0.43407  0.15445  1.0000
  H   H55       1.0  0.47919999999999996  0.30405  0.03962  1.0000
  H   H56       1.0  0.54289  0.22324  0.17531000000000005  1.0000
  H   H57       1.0  0.68899  0.11187  0.5199100000000002  1.0000
  H   H58       1.0  0.90633  0.11291  0.5205  1.0000
  H   H59       1.0  0.84093  0.03913  0.38219  1.0000
  H   H60       1.0  0.62649  0.03878  0.38848  1.0000
  H   H61       1.0  0.06301000000000001  0.15804  0.49706000000000006  1.0000
  H   H62       1.0  0.2792  0.15432  0.49352  1.0000
  H   H63       1.0  0.23888999999999996  0.0002799999999999999  0.4014700000000001  1.0000
  H   H64       1.0  0.020770000000000014  0.99579  0.40123000000000003  1.0000
  H   H65       1.0  0.6926  0.4886799999999999  0.59775  1.0000
  H   H66       1.0  0.9096799999999999  0.49212  0.5989600000000003  1.0000
  H   H67       1.0  0.86241  0.34993  0.48885  1.0000
  H   H68       1.0  0.6483  0.34972999999999993  0.49451000000000006  1.0000
  H   H69       1.0  0.06396000000000007  0.52195  0.5704300000000002  1.0000
  H   H70       1.0  0.28174  0.51742  0.57134  1.0000
  H   H71       1.0  0.26411  0.33099  0.51488  1.0000
  H   H72       1.0  0.045620000000000036  0.32509999999999994  0.5132700000000001  1.0000
  H   H73       1.0  0.39531  0.8927399999999999  0.20825  1.0000
  H   H74       1.0  0.37248  0.88835  0.27545  1.0000
  H   H75       1.0  0.54833  0.8019599999999998  0.043490000000000015  1.0000
  H   H76       1.0  0.4545  0.9348099999999999  0.14514000000000005  1.0000
  H   H77       1.0  0.47692  0.72455  0.17170000000000005  1.0000
  H   H78       1.0  0.43211  0.93421  0.34576  1.0000
  H   H79       1.0  0.52084  0.80401  0.4604200000000001  1.0000
  H   H80       1.0  0.45707999999999993  0.7234399999999999  0.32465  1.0000
  H   H81       1.0  0.31105000000000005  0.61174  0.9801000000000002  1.0000
  H   H82       1.0  0.09369999999999999  0.61293  0.97952  1.0000
  H   H83       1.0  0.15907  0.53918  0.11781000000000003  1.0000
  H   H84       1.0  0.37348  0.5387199999999999  0.11149  1.0000
  H   H85       1.0  0.9367999999999999  0.65803  0.002970000000000001  1.0000
  H   H86       1.0  0.72061  0.65412  0.006450000000000002  1.0000
  H   H87       1.0  0.76112  0.50017  0.09848000000000003  1.0000
  H   H88       1.0  0.9792499999999998  0.49584  0.09879000000000003  1.0000
  H   H89       1.0  0.30739000000000005  0.98874  0.9022800000000001  1.0000
  H   H90       1.0  0.09029000000000006  0.99211  0.9010500000000002  1.0000
  H   H91       1.0  0.13763  0.84996  0.011110000000000004  1.0000
  H   H92       1.0  0.35175  0.84982  0.005450000000000002  1.0000
  H   H93       1.0  0.9360600000000001  0.021949999999999997  0.9295700000000002  1.0000
  H   H94       1.0  0.7182600000000002  0.01747  0.9286500000000002  1.0000
  H   H95       1.0  0.7358300000000002  0.83108  0.9851100000000003  1.0000
  H   H96       1.0  0.95431  0.82515  0.9867200000000003  1.0000
  C   C1        1.0  0.5316600000000001  0.81204  0.5904200000000002  1.0000
  C   C2        1.0  0.51435  0.7427699999999998  0.60624  1.0000
  C   C3        1.0  0.52514  0.68923  0.57717  1.0000
  C   C4        1.0  0.50395  0.6250799999999999  0.59165  1.0000
  C   C5        1.0  0.47062  0.6153499999999998  0.63462  1.0000
  C   C6        1.0  0.45998  0.6688699999999999  0.6636700000000002  1.0000
  C   C7        1.0  0.48319000000000006  0.7330599999999999  0.6496300000000002  1.0000
  C   C8        1.0  0.51621  0.56622  0.56187  1.0000
  C   C9        1.0  0.4495199999999999  0.6900899999999998  0.74635  1.0000
  C   C10       1.0  0.44075  0.67013  0.82911  1.0000
  C   C11       1.0  0.44811999999999996  0.61587  0.8587  1.0000
  C   C12       1.0  0.47805  0.62463  0.90585  1.0000
  C   C13       1.0  0.49964000000000003  0.68823  0.9237400000000002  1.0000
  C   C14       1.0  0.49105999999999994  0.7424599999999998  0.8941000000000001  1.0000
  C   C15       1.0  0.46257  0.73387  0.84684  1.0000
  C   C16       1.0  0.48752999999999996  0.56551  0.9366400000000003  1.0000
  C   C17       1.0  0.50796  0.8110199999999997  0.9130900000000002  1.0000
  C   C18       1.0  0.27311  0.9046699999999999  0.50963  1.0000
  C   C19       1.0  0.15195  0.9033199999999999  0.50984  1.0000
  C   C20       1.0  0.10631000000000007  0.92416  0.5488100000000002  1.0000
  C   C21       1.0  0.18785  0.94558  0.58614  1.0000
  C   C22       1.0  0.30767  0.94567  0.5831400000000002  1.0000
  C   C23       1.0  0.9779899999999999  0.9234199999999998  0.55041  1.0000
  C   C24       1.0  0.90241  0.8784599999999999  0.52432  1.0000
  C   C25       1.0  0.78202  0.8797199999999998  0.52626  1.0000
  C   C26       1.0  0.8049100000000001  0.9657499999999998  0.5780900000000002  1.0000
  C   C27       1.0  0.9261700000000002  0.96761  0.5780400000000002  1.0000
  C   C28       1.0  0.26571  0.54107  0.4258300000000001  1.0000
  C   C29       1.0  0.14453  0.5391399999999998  0.42566  1.0000
  C   C30       1.0  0.09381  0.57821  0.45664  1.0000
  C   C31       1.0  0.17032  0.6188799999999999  0.4859900000000001  1.0000
  C   C32       1.0  0.29047  0.6186  0.4836200000000001  1.0000
  C   C33       1.0  0.96535  0.5769  0.4576900000000001  1.0000
  C   C34       1.0  0.8962199999999998  0.5221199999999999  0.44162  1.0000
  C   C35       1.0  0.77504  0.52363  0.44149  1.0000
  C   C36       1.0  0.7850199999999999  0.62808  0.4732900000000001  1.0000
  C   C37       1.0  0.90655  0.63058  0.4741800000000001  1.0000
  C   C38       1.0  0.46835000000000004  0.31223999999999996  0.9095800000000003  1.0000
  C   C39       1.0  0.48575000000000007  0.24303  0.8937100000000002  1.0000
  C   C40       1.0  0.4749800000000001  0.18958  0.9227800000000002  1.0000
  C   C41       1.0  0.49610000000000015  0.12547  0.9082400000000002  1.0000
  C   C42       1.0  0.52942  0.11553  0.8653200000000001  1.0000
  C   C43       1.0  0.54012  0.16902  0.8362900000000001  1.0000
  C   C44       1.0  0.5169200000000002  0.23321999999999998  0.8503300000000003  1.0000
  C   C45       1.0  0.48354  0.06707  0.93822  1.0000
  C   C46       1.0  0.5504800000000001  0.19005999999999998  0.7536100000000002  1.0000
  C   C47       1.0  0.5592000000000001  0.17001  0.6708500000000002  1.0000
  C   C48       1.0  0.55192  0.1158  0.6412200000000002  1.0000
  C   C49       1.0  0.5220500000000001  0.12468  0.5941100000000002  1.0000
  C   C50       1.0  0.50038  0.18824999999999997  0.5762200000000002  1.0000
  C   C51       1.0  0.50894  0.24244  0.60588  1.0000
  C   C52       1.0  0.53741  0.23374  0.65314  1.0000
  C   C53       1.0  0.51255  0.06562  0.56328  1.0000
  C   C54       1.0  0.4920600000000001  0.31098999999999993  0.5869300000000002  1.0000
  C   C55       1.0  0.72692  0.40471999999999997  0.99037  1.0000
  C   C56       1.0  0.8480799999999998  0.40332  0.9901500000000002  1.0000
  C   C57       1.0  0.8937399999999999  0.42412999999999995  0.9511800000000002  1.0000
  C   C58       1.0  0.8122000000000001  0.44554999999999995  0.9138600000000002  1.0000
  C   C59       1.0  0.6923900000000001  0.4457  0.9168700000000001  1.0000
  C   C60       1.0  0.02208  0.42343  0.9495900000000002  1.0000
  C   C61       1.0  0.09773000000000005  0.37850999999999996  0.97568  1.0000
  C   C62       1.0  0.2181400000000001  0.37988  0.9737800000000002  1.0000
  C   C63       1.0  0.19513999999999998  0.46586  0.92196  1.0000
  C   C64       1.0  0.0738600000000001  0.46762  0.9219700000000001  1.0000
  C   C65       1.0  0.73432  0.04100999999999999  0.07416  1.0000
  C   C66       1.0  0.85551  0.03913  0.07433  1.0000
  C   C67       1.0  0.90622  0.0782  0.04337000000000001  1.0000
  C   C68       1.0  0.8296799999999999  0.11885  0.014040000000000004  1.0000
  C   C69       1.0  0.70953  0.11854  0.0164  1.0000
  C   C70       1.0  0.03468  0.07688  0.04232000000000002  1.0000
  C   C71       1.0  0.10379999999999999  0.022099999999999998  0.058400000000000014  1.0000
  C   C72       1.0  0.22499  0.02358  0.05853000000000001  1.0000
  C   C73       1.0  0.21505999999999997  0.12801  0.02673  1.0000
  C   C74       1.0  0.09352  0.13052999999999998  0.02584  1.0000
  C   C75       1.0  0.4683399999999999  0.18795999999999996  0.40958  1.0000
  C   C76       1.0  0.48566000000000004  0.25722999999999996  0.3937600000000001  1.0000
  C   C77       1.0  0.47487  0.31077  0.4228300000000001  1.0000
  C   C78       1.0  0.49606000000000006  0.37492  0.40835000000000005  1.0000
  C   C79       1.0  0.52939  0.38464999999999994  0.36538  1.0000
  C   C80       1.0  0.54003  0.33112  0.33633000000000013  1.0000
  C   C81       1.0  0.51682  0.26694  0.35036  1.0000
  C   C82       1.0  0.48380000000000006  0.43377999999999994  0.43813000000000013  1.0000
  C   C83       1.0  0.55049  0.30991  0.25365  1.0000
  C   C84       1.0  0.55926  0.32986  0.17089000000000004  1.0000
  C   C85       1.0  0.55189  0.38412  0.1413  1.0000
  C   C86       1.0  0.52196  0.3753699999999999  0.09415000000000003  1.0000
  C   C87       1.0  0.50037  0.31177  0.07626  1.0000
  C   C88       1.0  0.5089500000000001  0.25754  0.10590000000000002  1.0000
  C   C89       1.0  0.53743  0.2661299999999999  0.15316000000000005  1.0000
  C   C90       1.0  0.51248  0.43449  0.06336000000000001  1.0000
  C   C91       1.0  0.49204999999999993  0.18897999999999998  0.08691000000000003  1.0000
  C   C92       1.0  0.7269  0.09533  0.49037000000000003  1.0000
  C   C93       1.0  0.84805  0.09667  0.4901600000000001  1.0000
  C   C94       1.0  0.8937  0.07583999999999999  0.45119000000000004  1.0000
  C   C95       1.0  0.81216  0.054419999999999996  0.4138600000000001  1.0000
  C   C96       1.0  0.69234  0.05433  0.4168600000000001  1.0000
  C   C97       1.0  0.022020000000000053  0.07656999999999999  0.4495900000000001  1.0000
  C   C98       1.0  0.09760000000000006  0.12153999999999997  0.4756800000000001  1.0000
  C   C99       1.0  0.21799000000000004  0.12027999999999998  0.4737400000000001  1.0000
  C   C100      1.0  0.19510000000000002  0.03423999999999999  0.4219100000000001  1.0000
  C   C101      1.0  0.07384000000000004  0.03239  0.4219600000000001  1.0000
  C   C102      1.0  0.7343  0.45893  0.57417  1.0000
  C   C103      1.0  0.85548  0.4608599999999999  0.57434  1.0000
  C   C104      1.0  0.9062  0.42178  0.5433600000000001  1.0000
  C   C105      1.0  0.82969  0.38111  0.51401  1.0000
  C   C106      1.0  0.70954  0.3813899999999999  0.51638  1.0000
  C   C107      1.0  0.03465  0.4231  0.54231  1.0000
  C   C108      1.0  0.10379000000000004  0.47787999999999997  0.55838  1.0000
  C   C109      1.0  0.22497000000000011  0.4763699999999999  0.5585100000000002  1.0000
  C   C110      1.0  0.21499  0.37190999999999996  0.52671  1.0000
  C   C111      1.0  0.0934600000000001  0.36942  0.5258200000000002  1.0000
  C   C112      1.0  0.53166  0.68776  0.09042000000000003  1.0000
  C   C113      1.0  0.51426  0.75697  0.10628000000000003  1.0000
  C   C114      1.0  0.52503  0.8104199999999998  0.07722  1.0000
  C   C115      1.0  0.50391  0.87452  0.09175000000000003  1.0000
  C   C116      1.0  0.47058999999999995  0.8844699999999999  0.13468000000000005  1.0000
  C   C117      1.0  0.45989  0.83098  0.16371000000000005  1.0000
  C   C118      1.0  0.4830900000000001  0.76677  0.14967  1.0000
  C   C119      1.0  0.51647  0.9329199999999999  0.061780000000000015  1.0000
  C   C120      1.0  0.44953000000000004  0.80994  0.24639000000000005  1.0000
  C   C121      1.0  0.44081  0.82999  0.32915  1.0000
  C   C122      1.0  0.44809  0.8841999999999999  0.3587800000000001  1.0000
  C   C123      1.0  0.47795999999999994  0.8753099999999998  0.40589  1.0000
  C   C124      1.0  0.49963  0.8117399999999999  0.4237800000000001  1.0000
  C   C125      1.0  0.4910700000000001  0.7575599999999999  0.39412000000000014  1.0000
  C   C126      1.0  0.4626  0.7662599999999999  0.3468600000000001  1.0000
  C   C127      1.0  0.48745999999999995  0.9343699999999998  0.43672  1.0000
  C   C128      1.0  0.50795  0.6890099999999999  0.41307000000000005  1.0000
  C   C129      1.0  0.27309  0.5952699999999997  0.009630000000000003  1.0000
  C   C130      1.0  0.15193  0.5966799999999999  0.009850000000000003  1.0000
  C   C131      1.0  0.10625999999999998  0.57587  0.048820000000000016  1.0000
  C   C132      1.0  0.1878  0.55444  0.08614000000000002  1.0000
  C   C133      1.0  0.30762  0.5543  0.08313000000000002  1.0000
  C   C134      1.0  0.97793  0.57657  0.05041000000000002  1.0000
  C   C135      1.0  0.90227  0.62148  0.02432000000000001  1.0000
  C   C136      1.0  0.78187  0.62012  0.026220000000000007  1.0000
  C   C137      1.0  0.80487  0.53413  0.07804  1.0000
  C   C138      1.0  0.92615  0.53237  0.07803000000000003  1.0000
  C   C139      1.0  0.26568  0.95898  0.9258400000000002  1.0000
  C   C140      1.0  0.1445000000000001  0.9608699999999999  0.9256700000000002  1.0000
  C   C141      1.0  0.09378000000000004  0.9218  0.9566300000000002  1.0000
  C   C142      1.0  0.1703300000000001  0.8811399999999999  0.9859600000000002  1.0000
  C   C143      1.0  0.29048000000000007  0.8814499999999997  0.9836000000000003  1.0000
  C   C144      1.0  0.9653300000000001  0.92312  0.9576800000000002  1.0000
  C   C145      1.0  0.8962  0.9779  0.9416  1.0000
  C   C146      1.0  0.7750100000000001  0.97641  0.9414700000000003  1.0000
  C   C147      1.0  0.7849500000000001  0.8719799999999999  0.9732700000000002  1.0000
  C   C148      1.0  0.9064900000000001  0.8694699999999997  0.9741600000000002  1.0000
  N   N1        1.0  0.42192  0.6546999999999998  0.7056300000000002  1.0000
  N   N2        1.0  0.4070599999999999  0.65749  0.78211  1.0000
  N   N3        1.0  0.35007  0.9258499999999997  0.54545  1.0000
  N   N4        1.0  0.73339  0.92295  0.5524500000000002  1.0000
  N   N5        1.0  0.33819  0.57962  0.45454  1.0000
  N   N6        1.0  0.71961  0.57573  0.4568100000000001  1.0000
  N   N7        1.0  0.57822  0.15477999999999997  0.7943400000000003  1.0000
  N   N8        1.0  0.59272  0.15734  0.7178500000000002  1.0000
  N   N9        1.0  0.64999  0.42594  0.9545500000000002  1.0000
  N   N10       1.0  0.2667300000000001  0.42315  0.9476200000000001  1.0000
  N   N11       1.0  0.66182  0.07953  0.04545000000000001  1.0000
  N   N12       1.0  0.28046  0.07565  0.04322  1.0000
  N   N13       1.0  0.5780900000000001  0.34528999999999993  0.2943700000000001  1.0000
  N   N14       1.0  0.5929500000000001  0.34251  0.21789000000000006  1.0000
  N   N15       1.0  0.64994  0.07414  0.4545500000000001  1.0000
  N   N16       1.0  0.26662  0.07705  0.4475400000000001  1.0000
  N   N17       1.0  0.6618200000000001  0.42037999999999986  0.5454600000000002  1.0000
  N   N18       1.0  0.28039000000000003  0.42427  0.54319  1.0000
  N   N19       1.0  0.42179  0.84521  0.20566  1.0000
  N   N20       1.0  0.40728999999999993  0.8426599999999999  0.28215000000000007  1.0000
  N   N21       1.0  0.35001999999999994  0.5740599999999999  0.04545000000000001  1.0000
  N   N22       1.0  0.73328  0.5768499999999999  0.05238000000000002  1.0000
  N   N23       1.0  0.33819000000000005  0.9204599999999998  0.9545500000000002  1.0000
  N   N24       1.0  0.71955  0.92434  0.9567800000000002  1.0000
  O   O1        1.0  0.53674  0.8599899999999998  0.6179400000000003  1.0000
  O   O2        1.0  0.53753  0.8199299999999999  0.5475900000000001  1.0000
  O   O3        1.0  0.53704  0.5727199999999999  0.97745  1.0000
  O   O4        1.0  0.44550000000000006  0.5112  0.9185000000000002  1.0000
  O   O5        1.0  0.56602  0.5734  0.52697  1.0000
  O   O6        1.0  0.47688  0.51145  0.57528  1.0000
  O   O7        1.0  0.5314300000000001  0.81693  0.9568800000000002  1.0000
  O   O8        1.0  0.49723  0.86053  0.88677  1.0000
  O   O9        1.0  0.50201  0.7430199999999999  0.7500700000000002  1.0000
  O   O10       1.0  0.46324  0.36019999999999996  0.8820900000000003  1.0000
  O   O11       1.0  0.46245000000000014  0.32005999999999996  0.9524000000000002  1.0000
  O   O12       1.0  0.46289  0.07297  0.5225  1.0000
  O   O13       1.0  0.55461  0.0113  0.5813700000000002  1.0000
  O   O14       1.0  0.43417000000000006  0.07545  0.9731300000000003  1.0000
  O   O15       1.0  0.5220000000000001  0.011989999999999999  0.9250000000000002  1.0000
  O   O16       1.0  0.4686  0.3169499999999999  0.54313  1.0000
  O   O17       1.0  0.5028  0.3604399999999999  0.6133  1.0000
  O   O18       1.0  0.4980200000000001  0.24299999999999997  0.7499000000000001  1.0000
  O   O19       1.0  0.4632699999999999  0.14  0.38206  1.0000
  O   O20       1.0  0.46248000000000006  0.18006999999999998  0.4524100000000001  1.0000
  O   O21       1.0  0.46296  0.42728  0.022550000000000008  1.0000
  O   O22       1.0  0.55451  0.48879999999999996  0.0815  1.0000
  O   O23       1.0  0.43398  0.4265899999999999  0.4730300000000001  1.0000
  O   O24       1.0  0.5231200000000001  0.48855  0.4247200000000001  1.0000
  O   O25       1.0  0.46857999999999994  0.18307  0.043120000000000006  1.0000
  O   O26       1.0  0.50277  0.13946999999999998  0.11323000000000003  1.0000
  O   O27       1.0  0.498  0.25697  0.24993  1.0000
  O   O28       1.0  0.53677  0.6397999999999998  0.11791000000000003  1.0000
  O   O29       1.0  0.53756  0.67993  0.0476  1.0000
  O   O30       1.0  0.53712  0.92703  0.4775000000000001  1.0000
  O   O31       1.0  0.44539999999999996  0.9886999999999999  0.4186300000000001  1.0000
  O   O32       1.0  0.56584  0.9245499999999999  0.02687000000000001  1.0000
  O   O33       1.0  0.47800999999999993  0.98801  0.07500000000000002  1.0000
  O   O34       1.0  0.53141  0.6830499999999999  0.45687000000000005  1.0000
  O   O35       1.0  0.49721  0.6395599999999999  0.3867000000000001  1.0000
  O   O36       1.0  0.50199  0.7569999999999998  0.2501  1.0000
