data_image0
_chemical_formula_structural       Cd10H116C148N8O44
_chemical_formula_sum              "Cd10 H116 C148 N8 O44"
_cell_length_a       9.90263
_cell_length_b       15.41795
_cell_length_c       24.945229999999995
_cell_angle_alpha    89.92096
_cell_angle_beta     96.79911
_cell_angle_gamma    90.28346

_symmetry_space_group_name_H-M    'P 1'
_symmetry_Int_Tables_number       1

loop_
  _symmetry_equiv_pos_as_xyz
  'x,y,z'

loop_
  _atom_site_type_symbol
  _atom_site_label
  _atom_site_symmetry_multiplicity
  _atom_site_fract_x
  _atom_site_fract_y
  _atom_site_fract_z
  _atom_site_occupancy
  Cd  Cd1       1.0  0.16624  0.59358  0.53571  1.0000
  Cd  Cd2       1.0  0.24674  0.8485000000000003  0.9832499999999997  1.0000
  Cd  Cd3       1.0  0.33618999999999993  0.09338  0.9644999999999998  1.0000
  Cd  Cd4       1.0  0.25224  0.3472300000000001  0.51637  1.0000
  Cd  Cd5       1.0  0.83376  0.4064200000000001  0.46428999999999987  1.0000
  Cd  Cd6       1.0  0.75326  0.1515  0.016749999999999998  1.0000
  Cd  Cd7       1.0  0.66381  0.90662  0.0355  1.0000
  Cd  Cd8       1.0  0.7477599999999999  0.6527700000000002  0.4836299999999999  1.0000
  Cd  Cd9       1.0  0.0  0.0  0.0  1.0000
  Cd  Cd10      1.0  0.5  0.5  0.4999999999999999  1.0000
  H   H1        1.0  0.26271999999999995  0.62202  0.4007199999999999  1.0000
  H   H2        1.0  0.24865  0.78624  0.11356999999999999  1.0000
  H   H3        1.0  0.84193  0.53591  0.34758  1.0000
  H   H4        1.0  0.6987  0.52791  0.2600799999999999  1.0000
  H   H5        1.0  0.66242  0.55922  0.16182  1.0000
  H   H6        1.0  0.84759  0.6313500000000002  0.11746999999999999  1.0000
  H   H7        1.0  0.06500000000000002  0.6689900000000002  0.16943  1.0000
  H   H8        1.0  0.3354  0.6936300000000002  0.28506999999999993  1.0000
  H   H9        1.0  0.27189  0.6608400000000002  0.21900999999999995  1.0000
  H   H10       1.0  0.09335  0.01945  0.18703  1.0000
  H   H11       1.0  0.06534999999999999  0.06291  0.28048  1.0000
  H   H12       1.0  0.09361999999999998  0.03221  0.37883999999999995  1.0000
  H   H13       1.0  0.18161000000000002  0.8875400000000002  0.41215  1.0000
  H   H14       1.0  0.23586  0.77555  0.3489599999999999  1.0000
  H   H15       1.0  0.97455  0.62924  0.62915  1.0000
  H   H16       1.0  0.9852700000000001  0.67596  0.7246699999999998  1.0000
  H   H17       1.0  0.42388  0.68807  0.7289399999999998  1.0000
  H   H18       1.0  0.39364  0.6418  0.6329699999999999  1.0000
  H   H19       1.0  0.024820000000000036  0.7868700000000002  0.78082  1.0000
  H   H20       1.0  0.04359999999999997  0.83913  0.8757199999999999  1.0000
  H   H21       1.0  0.42500999999999994  0.7279100000000002  0.9106299999999998  1.0000
  H   H22       1.0  0.4167  0.66501  0.8189199999999999  1.0000
  H   H23       1.0  0.8953600000000002  0.65181  0.00051  1.0000
  H   H24       1.0  0.03361999999999997  0.6868800000000003  0.9649  1.0000
  H   H25       1.0  0.05595000000000001  0.6789800000000003  0.03635  1.0000
  H   H26       1.0  0.040609999999999966  0.8880200000000003  0.5501299999999999  1.0000
  H   H27       1.0  0.16222999999999999  0.8011200000000003  0.5487099999999999  1.0000
  H   H28       1.0  0.06233  0.8097800000000003  0.60272  1.0000
  H   H29       1.0  0.8619800000000001  0.01844000000000001  0.08075999999999998  1.0000
  H   H30       1.0  0.23677  0.12277  0.09918  1.0000
  H   H31       1.0  0.25137  0.2836300000000001  0.3866799999999999  1.0000
  H   H32       1.0  0.65543  0.03436  0.15223999999999996  1.0000
  H   H33       1.0  0.80035  0.02803  0.23989999999999995  1.0000
  H   H34       1.0  0.83673  0.05947  0.33803999999999995  1.0000
  H   H35       1.0  0.6522  0.13095  0.3823399999999999  1.0000
  H   H36       1.0  0.43566000000000005  0.1687  0.3301599999999999  1.0000
  H   H37       1.0  0.16565  0.19248000000000007  0.21466  1.0000
  H   H38       1.0  0.22857000000000002  0.15929  0.28067  1.0000
  H   H39       1.0  0.40580999999999984  0.51923  0.31364  1.0000
  H   H40       1.0  0.4351400000000001  0.56362  0.22032  1.0000
  H   H41       1.0  0.4070800000000001  0.53377  0.12185999999999998  1.0000
  H   H42       1.0  0.31851  0.38907000000000014  0.08817999999999997  1.0000
  H   H43       1.0  0.2641  0.27599  0.15105  1.0000
  H   H44       1.0  0.52553  0.12949  0.8705099999999999  1.0000
  H   H45       1.0  0.51421  0.17586000000000004  0.77481  1.0000
  H   H46       1.0  0.07603999999999997  0.18770000000000006  0.77142  1.0000
  H   H47       1.0  0.10690999999999996  0.14179  0.8675799999999998  1.0000
  H   H48       1.0  0.4752  0.28752  0.71906  1.0000
  H   H49       1.0  0.45716000000000007  0.3390700000000001  0.6239  1.0000
  H   H50       1.0  0.07422  0.22743  0.5894799999999999  1.0000
  H   H51       1.0  0.08232999999999997  0.16452  0.68135  1.0000
  H   H52       1.0  0.6036  0.1505  0.49952999999999986  1.0000
  H   H53       1.0  0.46549000000000007  0.18438000000000002  0.53529  1.0000
  H   H54       1.0  0.44283  0.17661  0.46384  1.0000
  H   H55       1.0  0.45767  0.3859800000000001  0.9504099999999998  1.0000
  H   H56       1.0  0.33815  0.29724  0.95209  1.0000
  H   H57       1.0  0.43638999999999994  0.308  0.8977199999999999  1.0000
  H   H58       1.0  0.63894  0.52029  0.41907999999999995  1.0000
  H   H59       1.0  0.7372800000000002  0.37798  0.59928  1.0000
  H   H60       1.0  0.75135  0.21376  0.88644  1.0000
  H   H61       1.0  0.15807  0.46409  0.65242  1.0000
  H   H62       1.0  0.30129999999999996  0.47209  0.7399199999999998  1.0000
  H   H63       1.0  0.33758  0.44078  0.83818  1.0000
  H   H64       1.0  0.15241  0.36866  0.88253  1.0000
  H   H65       1.0  0.9350000000000002  0.33102  0.8305699999999999  1.0000
  H   H66       1.0  0.6646000000000001  0.3063700000000001  0.71493  1.0000
  H   H67       1.0  0.7281099999999999  0.33917  0.7809899999999997  1.0000
  H   H68       1.0  0.9066499999999998  0.9805500000000003  0.81297  1.0000
  H   H69       1.0  0.93465  0.93709  0.7195199999999999  1.0000
  H   H70       1.0  0.9063799999999999  0.9677900000000003  0.6211599999999999  1.0000
  H   H71       1.0  0.81839  0.11246  0.5878499999999999  1.0000
  H   H72       1.0  0.76414  0.22445  0.65104  1.0000
  H   H73       1.0  0.025449999999999987  0.37076  0.3708499999999999  1.0000
  H   H74       1.0  0.014730000000000007  0.3240400000000001  0.27533  1.0000
  H   H75       1.0  0.57612  0.3119300000000001  0.27105999999999997  1.0000
  H   H76       1.0  0.60636  0.3582  0.36703  1.0000
  H   H77       1.0  0.9751800000000002  0.21313000000000004  0.21918  1.0000
  H   H78       1.0  0.9564  0.16087000000000007  0.12428  1.0000
  H   H79       1.0  0.57499  0.27209  0.08937  1.0000
  H   H80       1.0  0.5833  0.3349900000000001  0.18107999999999996  1.0000
  H   H81       1.0  0.10463999999999997  0.34819  0.99949  1.0000
  H   H82       1.0  0.96638  0.31313000000000013  0.0351  1.0000
  H   H83       1.0  0.94405  0.32102  0.9636499999999999  1.0000
  H   H84       1.0  0.9593900000000001  0.11198000000000001  0.44987  1.0000
  H   H85       1.0  0.83777  0.19889  0.45128999999999997  1.0000
  H   H86       1.0  0.93767  0.19022  0.39728  1.0000
  H   H87       1.0  0.1380099999999999  0.98157  0.9192399999999997  1.0000
  H   H88       1.0  0.7632299999999999  0.8772300000000002  0.90082  1.0000
  H   H89       1.0  0.74863  0.7163700000000002  0.61332  1.0000
  H   H90       1.0  0.34457  0.9656400000000003  0.84776  1.0000
  H   H91       1.0  0.19964999999999994  0.9719700000000002  0.7600999999999998  1.0000
  H   H92       1.0  0.16326999999999994  0.94054  0.6619599999999998  1.0000
  H   H93       1.0  0.3478  0.86906  0.61766  1.0000
  H   H94       1.0  0.56434  0.83131  0.66984  1.0000
  H   H95       1.0  0.8343399999999999  0.80752  0.7853399999999999  1.0000
  H   H96       1.0  0.7714300000000001  0.84071  0.71933  1.0000
  H   H97       1.0  0.5941899999999999  0.48077  0.6863699999999998  1.0000
  H   H98       1.0  0.56486  0.4363900000000001  0.7796799999999999  1.0000
  H   H99       1.0  0.5929199999999999  0.46623  0.8781399999999998  1.0000
  H   H100      1.0  0.68149  0.6109300000000002  0.9118199999999999  1.0000
  H   H101      1.0  0.7359  0.72401  0.84895  1.0000
  H   H102      1.0  0.47447  0.87051  0.12949  1.0000
  H   H103      1.0  0.48579  0.82414  0.22518999999999997  1.0000
  H   H104      1.0  0.92395  0.8123  0.22858  1.0000
  H   H105      1.0  0.8930900000000002  0.8582200000000002  0.13242  1.0000
  H   H106      1.0  0.5248  0.7124800000000001  0.28093999999999997  1.0000
  H   H107      1.0  0.5428399999999999  0.6609300000000002  0.3760999999999999  1.0000
  H   H108      1.0  0.9257800000000002  0.77257  0.41052  1.0000
  H   H109      1.0  0.91767  0.8354900000000002  0.31865  1.0000
  H   H110      1.0  0.3964  0.8495000000000003  0.50047  1.0000
  H   H111      1.0  0.5345  0.8156300000000002  0.4647099999999999  1.0000
  H   H112      1.0  0.55716  0.82339  0.5361599999999999  1.0000
  H   H113      1.0  0.54232  0.61402  0.04959  1.0000
  H   H114      1.0  0.66185  0.7027700000000002  0.047909999999999994  1.0000
  H   H115      1.0  0.56361  0.692  0.10228  1.0000
  H   H116      1.0  0.36106  0.47971  0.58092  1.0000
  C   C1        1.0  0.061270000000000026  0.5636500000000002  0.41724  1.0000
  C   C2        1.0  0.045789999999999983  0.5821900000000002  0.35816999999999993  1.0000
  C   C3        1.0  0.92315  0.56425  0.32747999999999994  1.0000
  C   C4        1.0  0.9018800000000001  0.5822700000000002  0.27171  1.0000
  C   C5        1.0  0.77752  0.55996  0.24018999999999993  1.0000
  C   C6        1.0  0.7576100000000001  0.57738  0.18557  1.0000
  C   C7        1.0  0.863  0.61742  0.16054999999999997  1.0000
  C   C8        1.0  0.9854  0.6396000000000002  0.18997999999999998  1.0000
  C   C9        1.0  0.00899999999999998  0.62364  0.24657999999999994  1.0000
  C   C10       1.0  0.13322999999999996  0.64645  0.27851999999999993  1.0000
  C   C11       1.0  0.15254999999999996  0.62291  0.3329399999999999  1.0000
  C   C12       1.0  0.24568  0.6951100000000002  0.25483  1.0000
  C   C13       1.0  0.21210000000000004  0.78817  0.23857999999999993  1.0000
  C   C14       1.0  0.21052  0.8116600000000003  0.18442999999999996  1.0000
  C   C15       1.0  0.1662  0.8958600000000002  0.16572  1.0000
  C   C16       1.0  0.12789  0.9560900000000002  0.20207  1.0000
  C   C17       1.0  0.13698  0.9372900000000002  0.25782  1.0000
  C   C18       1.0  0.10257  0.00012999999999999996  0.29559  1.0000
  C   C19       1.0  0.11724999999999998  0.98287  0.35026  1.0000
  C   C20       1.0  0.16686  0.9009800000000002  0.3689799999999999  1.0000
  C   C21       1.0  0.19724999999999998  0.8374600000000002  0.33328999999999986  1.0000
  C   C22       1.0  0.18228000000000003  0.85267  0.27656  1.0000
  C   C23       1.0  0.156  0.91732  0.10693999999999997  1.0000
  C   C24       1.0  0.07181999999999993  0.6433000000000002  0.6527999999999998  1.0000
  C   C25       1.0  0.07900000000000001  0.67012  0.7062299999999999  1.0000
  C   C26       1.0  0.20659000000000002  0.6873800000000002  0.73543  1.0000
  C   C27       1.0  0.32230999999999993  0.6748  0.7089999999999999  1.0000
  C   C28       1.0  0.3063  0.64903  0.6552  1.0000
  C   C29       1.0  0.21798999999999996  0.7201  0.7914699999999999  1.0000
  C   C30       1.0  0.11375000000000005  0.7705600000000002  0.80869  1.0000
  C   C31       1.0  0.12503  0.8015500000000002  0.86126  1.0000
  C   C32       1.0  0.33710999999999997  0.73858  0.8808299999999999  1.0000
  C   C33       1.0  0.33211  0.70405  0.82908  1.0000
  C   C34       1.0  0.9382900000000001  0.7890100000000002  0.006969999999999999  1.0000
  C   C35       1.0  0.98281  0.69583  0.00118  1.0000
  C   C36       1.0  0.95088  0.76338  0.53035  1.0000
  C   C37       1.0  0.061689999999999995  0.81953  0.55901  1.0000
  C   C38       1.0  0.43437  0.0623  0.08277999999999998  1.0000
  C   C39       1.0  0.4524599999999999  0.08174000000000002  0.14169999999999996  1.0000
  C   C40       1.0  0.5751799999999999  0.06357  0.17224999999999993  1.0000
  C   C41       1.0  0.5975399999999998  0.08205000000000003  0.22797999999999996  1.0000
  C   C42       1.0  0.72158  0.05983  0.25962999999999997  1.0000
  C   C43       1.0  0.7416  0.07717000000000003  0.31425  1.0000
  C   C44       1.0  0.63683  0.11713000000000003  0.33926  1.0000
  C   C45       1.0  0.51496  0.13934  0.30973  1.0000
  C   C46       1.0  0.4912  0.12343000000000001  0.25316999999999995  1.0000
  C   C47       1.0  0.36725  0.1464  0.22135999999999997  1.0000
  C   C48       1.0  0.34721  0.12331000000000003  0.16693  1.0000
  C   C49       1.0  0.25504  0.19433000000000006  0.24507  1.0000
  C   C50       1.0  0.28835  0.28746000000000005  0.26159  1.0000
  C   C51       1.0  0.28941000000000006  0.31048  0.31579999999999997  1.0000
  C   C52       1.0  0.33283  0.39506  0.33459  1.0000
  C   C53       1.0  0.37173  0.45573  0.29838  1.0000
  C   C54       1.0  0.36357  0.4372600000000001  0.24263  1.0000
  C   C55       1.0  0.39812  0.50072  0.20502999999999993  1.0000
  C   C56       1.0  0.38342  0.48398  0.15031999999999998  1.0000
  C   C57       1.0  0.33356  0.4020100000000001  0.13139999999999996  1.0000
  C   C58       1.0  0.30309  0.33789  0.16692  1.0000
  C   C59       1.0  0.3182400000000001  0.35252  0.22371  1.0000
  C   C60       1.0  0.34132  0.41686  0.39326  1.0000
  C   C61       1.0  0.42826000000000003  0.14362  0.8470399999999999  1.0000
  C   C62       1.0  0.42077999999999993  0.17022  0.7935399999999998  1.0000
  C   C63       1.0  0.29312  0.18741000000000005  0.76459  1.0000
  C   C64       1.0  0.17763  0.17474  0.79127  1.0000
  C   C65       1.0  0.19396  0.14918  0.84514  1.0000
  C   C66       1.0  0.28160999999999997  0.2201  0.70852  1.0000
  C   C67       1.0  0.38624  0.2708300000000001  0.69119  1.0000
  C   C68       1.0  0.37529  0.30152  0.63852  1.0000
  C   C69       1.0  0.16239  0.23815000000000006  0.6192299999999998  1.0000
  C   C70       1.0  0.16721  0.20372000000000007  0.67103  1.0000
  C   C71       1.0  0.5610399999999999  0.28727  0.4929299999999999  1.0000
  C   C72       1.0  0.51608  0.19385  0.4989499999999999  1.0000
  C   C73       1.0  0.55089  0.26277  0.96982  1.0000
  C   C74       1.0  0.43803  0.31724000000000013  0.9415  1.0000
  C   C75       1.0  0.93873  0.4363500000000001  0.58276  1.0000
  C   C76       1.0  0.9542100000000001  0.41781  0.64183  1.0000
  C   C77       1.0  0.07684999999999997  0.43575  0.6725199999999999  1.0000
  C   C78       1.0  0.09812000000000001  0.4177400000000001  0.72829  1.0000
  C   C79       1.0  0.22248000000000004  0.44004  0.75981  1.0000
  C   C80       1.0  0.24239  0.42262  0.81443  1.0000
  C   C81       1.0  0.13699999999999996  0.38259  0.8394499999999999  1.0000
  C   C82       1.0  0.0145999999999999  0.36040000000000005  0.8100199999999997  1.0000
  C   C83       1.0  0.99099  0.37636  0.7534199999999998  1.0000
  C   C84       1.0  0.86677  0.35355  0.7214799999999999  1.0000
  C   C85       1.0  0.8474500000000001  0.3770900000000001  0.6670599999999999  1.0000
  C   C86       1.0  0.7543099999999999  0.3049  0.7451699999999998  1.0000
  C   C87       1.0  0.7878999999999999  0.21183  0.76142  1.0000
  C   C88       1.0  0.78948  0.18835  0.8155699999999998  1.0000
  C   C89       1.0  0.8337999999999998  0.10415  0.8342799999999998  1.0000
  C   C90       1.0  0.87211  0.04391  0.7979399999999999  1.0000
  C   C91       1.0  0.86302  0.06271  0.74218  1.0000
  C   C92       1.0  0.89743  0.9998800000000001  0.70441  1.0000
  C   C93       1.0  0.88275  0.017130000000000006  0.64974  1.0000
  C   C94       1.0  0.83314  0.09902000000000002  0.63102  1.0000
  C   C95       1.0  0.8027499999999999  0.16254  0.6667099999999999  1.0000
  C   C96       1.0  0.81772  0.14734  0.7234399999999999  1.0000
  C   C97       1.0  0.844  0.08268  0.89306  1.0000
  C   C98       1.0  0.9281800000000001  0.35670000000000013  0.3472  1.0000
  C   C99       1.0  0.9210000000000002  0.3298900000000001  0.2937699999999999  1.0000
  C   C100      1.0  0.7934100000000001  0.31262  0.26456999999999997  1.0000
  C   C101      1.0  0.67769  0.3252  0.291  1.0000
  C   C102      1.0  0.6937  0.3509700000000001  0.3448  1.0000
  C   C103      1.0  0.78201  0.27991  0.20853  1.0000
  C   C104      1.0  0.8862500000000001  0.22945  0.19130999999999995  1.0000
  C   C105      1.0  0.87497  0.19845000000000004  0.13874  1.0000
  C   C106      1.0  0.66289  0.26143000000000005  0.11917  1.0000
  C   C107      1.0  0.66789  0.2959500000000001  0.17091999999999996  1.0000
  C   C108      1.0  0.06170999999999998  0.21099000000000007  0.9930299999999999  1.0000
  C   C109      1.0  0.01719  0.30418  0.99882  1.0000
  C   C110      1.0  0.049119999999999976  0.23662  0.46964999999999996  1.0000
  C   C111      1.0  0.9383100000000001  0.18047000000000005  0.44098999999999994  1.0000
  C   C112      1.0  0.56563  0.9377000000000002  0.91722  1.0000
  C   C113      1.0  0.54754  0.9182600000000002  0.8583  1.0000
  C   C114      1.0  0.42480999999999997  0.93643  0.8277499999999998  1.0000
  C   C115      1.0  0.40245999999999993  0.91796  0.7720199999999999  1.0000
  C   C116      1.0  0.27842000000000006  0.9401700000000002  0.7403699999999999  1.0000
  C   C117      1.0  0.2584  0.92283  0.6857499999999997  1.0000
  C   C118      1.0  0.36316999999999994  0.88288  0.6607399999999998  1.0000
  C   C119      1.0  0.4850400000000001  0.86066  0.69027  1.0000
  C   C120      1.0  0.5088  0.8765700000000002  0.74683  1.0000
  C   C121      1.0  0.63275  0.8536100000000002  0.7786399999999998  1.0000
  C   C122      1.0  0.65278  0.8767  0.83307  1.0000
  C   C123      1.0  0.7449599999999998  0.80568  0.7549299999999998  1.0000
  C   C124      1.0  0.71165  0.71254  0.7384099999999999  1.0000
  C   C125      1.0  0.7105899999999999  0.68953  0.6841999999999999  1.0000
  C   C126      1.0  0.66717  0.60494  0.66541  1.0000
  C   C127      1.0  0.6282599999999999  0.54427  0.7016199999999998  1.0000
  C   C128      1.0  0.63643  0.5627400000000002  0.7573699999999999  1.0000
  C   C129      1.0  0.60188  0.4992900000000001  0.7949699999999998  1.0000
  C   C130      1.0  0.61657  0.51603  0.8496799999999998  1.0000
  C   C131      1.0  0.66644  0.5979900000000002  0.8686  1.0000
  C   C132      1.0  0.6969099999999999  0.66211  0.8330799999999999  1.0000
  C   C133      1.0  0.68176  0.64748  0.7762899999999998  1.0000
  C   C134      1.0  0.6586799999999999  0.58315  0.6067399999999998  1.0000
  C   C135      1.0  0.5717300000000001  0.85638  0.15295999999999998  1.0000
  C   C136      1.0  0.57922  0.8297800000000002  0.20646  1.0000
  C   C137      1.0  0.70688  0.8125900000000003  0.23541  1.0000
  C   C138      1.0  0.8223700000000002  0.8252600000000002  0.20872999999999994  1.0000
  C   C139      1.0  0.80604  0.85083  0.15486  1.0000
  C   C140      1.0  0.7183900000000001  0.7799  0.29148  1.0000
  C   C141      1.0  0.61376  0.72917  0.3088099999999999  1.0000
  C   C142      1.0  0.6247099999999999  0.6984900000000003  0.3614799999999999  1.0000
  C   C143      1.0  0.83761  0.7618500000000002  0.3807699999999999  1.0000
  C   C144      1.0  0.8327900000000001  0.7962800000000002  0.3289699999999999  1.0000
  C   C145      1.0  0.43895  0.7127300000000002  0.50707  1.0000
  C   C146      1.0  0.48391000000000006  0.8061500000000003  0.50105  1.0000
  C   C147      1.0  0.4491  0.73724  0.03017999999999999  1.0000
  C   C148      1.0  0.56197  0.6827600000000003  0.0585  1.0000
  N   N1        1.0  0.18355999999999997  0.63388  0.6272699999999999  1.0000
  N   N2        1.0  0.23553  0.78618  0.8970899999999999  1.0000
  N   N3        1.0  0.31684999999999997  0.13428000000000007  0.8728599999999997  1.0000
  N   N4        1.0  0.26451  0.28577  0.60281  1.0000
  N   N5        1.0  0.81644  0.36612  0.37273  1.0000
  N   N6        1.0  0.7644700000000001  0.21382  0.10291  1.0000
  N   N7        1.0  0.68315  0.86573  0.12713999999999998  1.0000
  N   N8        1.0  0.73549  0.7142300000000003  0.3971899999999999  1.0000
  O   O1        1.0  0.17433  0.58914  0.44457  1.0000
  O   O2        1.0  0.9668100000000001  0.5282200000000002  0.4389799999999999  1.0000
  O   O3        1.0  0.27394  0.64085  0.36231  1.0000
  O   O4        1.0  0.07971  0.9792100000000002  0.08990999999999999  1.0000
  O   O5        1.0  0.22563  0.86993  0.07747  1.0000
  O   O6        1.0  0.24818  0.75265  0.14863  1.0000
  O   O7        1.0  0.84625  0.8043  0.03661  1.0000
  O   O8        1.0  0.00017999999999995355  0.84772  0.9817999999999999  1.0000
  O   O9        1.0  0.9779500000000001  0.68379  0.5184999999999998  1.0000
  O   O10       1.0  0.8323  0.79276  0.51873  1.0000
  O   O11       1.0  0.8136699999999999  0.01781  0.044379999999999996  1.0000
  O   O12       1.0  0.32095  0.08735  0.05563  1.0000
  O   O13       1.0  0.52727  0.02627  0.06078999999999999  1.0000
  O   O14       1.0  0.22653  0.14256000000000005  0.13755999999999996  1.0000
  O   O15       1.0  0.41447  0.4806300000000001  0.4102699999999999  1.0000
  O   O16       1.0  0.27331  0.36776  0.42269  1.0000
  O   O17       1.0  0.25215  0.25066  0.35147  1.0000
  O   O18       1.0  0.6537099999999999  0.30248  0.46338999999999997  1.0000
  O   O19       1.0  0.49949  0.34596  0.51772  1.0000
  O   O20       1.0  0.5262399999999999  0.18220000000000006  0.9814599999999998  1.0000
  O   O21       1.0  0.66838  0.29407  0.9814199999999998  1.0000
  O   O22       1.0  0.68552  0.5189900000000002  0.45572999999999997  1.0000
  O   O23       1.0  0.82567  0.4108600000000001  0.5554299999999999  1.0000
  O   O24       1.0  0.03318000000000001  0.47179  0.56102  1.0000
  O   O25       1.0  0.7260599999999999  0.35916  0.6376899999999999  1.0000
  O   O26       1.0  0.92029  0.0208  0.91009  1.0000
  O   O27       1.0  0.77437  0.13008000000000006  0.9225299999999997  1.0000
  O   O28       1.0  0.75181  0.24735  0.85137  1.0000
  O   O29       1.0  0.15375000000000005  0.1957  0.96339  1.0000
  O   O30       1.0  0.9998200000000002  0.15228000000000005  0.0182  1.0000
  O   O31       1.0  0.022049999999999962  0.3162100000000001  0.4814999999999999  1.0000
  O   O32       1.0  0.1677  0.20725  0.48126999999999986  1.0000
  O   O33       1.0  0.18633000000000005  0.9822000000000002  0.95562  1.0000
  O   O34       1.0  0.67905  0.9126500000000002  0.9443699999999999  1.0000
  O   O35       1.0  0.47273  0.97373  0.9392099999999998  1.0000
  O   O36       1.0  0.7734699999999999  0.85745  0.8624399999999998  1.0000
  O   O37       1.0  0.58553  0.51937  0.58973  1.0000
  O   O38       1.0  0.72669  0.6322500000000001  0.57731  1.0000
  O   O39       1.0  0.7478499999999999  0.74935  0.6485299999999998  1.0000
  O   O40       1.0  0.34628999999999993  0.69752  0.5366099999999999  1.0000
  O   O41       1.0  0.50051  0.65404  0.48227999999999993  1.0000
  O   O42       1.0  0.47376000000000007  0.8178  0.01854  1.0000
  O   O43       1.0  0.33162  0.70594  0.01858  1.0000
  O   O44       1.0  0.31446999999999997  0.4810100000000001  0.5442699999999999  1.0000
