data_image0
_chemical_formula_structural       Gd8Cd8H96C96O120
_chemical_formula_sum              "Gd8 Cd8 H96 C96 O120"
_cell_length_a       18.69063
_cell_length_b       18.68891
_cell_length_c       18.69117
_cell_angle_alpha    59.80334
_cell_angle_beta     59.805800000000005
_cell_angle_gamma    59.80744

_space_group_name_H-M_alt    "P 1"
_space_group_IT_number       1

loop_
  _space_group_symop_operation_xyz
  'x, y, z'

loop_
  _atom_site_type_symbol
  _atom_site_label
  _atom_site_symmetry_multiplicity
  _atom_site_fract_x
  _atom_site_fract_y
  _atom_site_fract_z
  _atom_site_occupancy
  Gd  Gd1       1.0  0.7502800000000001  0.24982999999999994  0.7499500000000002  1.0000
  Gd  Gd2       1.0  0.7499899999999999  0.7502  0.24986000000000005  1.0000
  Gd  Gd3       1.0  0.74993  0.7501199999999998  0.7500400000000003  1.0000
  Gd  Gd4       1.0  0.24982000000000001  0.7499  0.7502100000000003  1.0000
  Gd  Gd5       1.0  0.24971999999999997  0.75017  0.25005  1.0000
  Gd  Gd6       1.0  0.25001  0.2498099999999999  0.7501400000000003  1.0000
  Gd  Gd7       1.0  0.25007999999999997  0.24988999999999992  0.24995000000000006  1.0000
  Gd  Gd8       1.0  0.7501800000000001  0.25011  0.24979000000000004  1.0000
  Cd  Cd1       1.0  0.5  0.5  0.5  1.0000
  Cd  Cd2       1.0  0.0  0.5  0.5  1.0000
  Cd  Cd3       1.0  0.5  0.0  0.5  1.0000
  Cd  Cd4       1.0  0.5  0.5  0.0  1.0000
  Cd  Cd5       1.0  0.5  0.0  0.0  1.0000
  Cd  Cd6       1.0  0.0  0.0  0.0  1.0000
  Cd  Cd7       1.0  0.0  0.5  0.0  1.0000
  Cd  Cd8       1.0  0.0  0.0  0.5  1.0000
  H   H1        1.0  0.6520300000000001  0.2795299999999999  0.5713200000000003  1.0000
  H   H2        1.0  0.7086699999999998  0.35699000000000003  0.51172  1.0000
  H   H3        1.0  0.99777  0.57078  0.2791  1.0000
  H   H4        1.0  0.9226599999999998  0.51177  0.35687  1.0000
  H   H5        1.0  0.5707700000000001  0.9978199999999998  0.65173  1.0000
  H   H6        1.0  0.5117099999999996  0.9226899999999999  0.7092600000000002  1.0000
  H   H7        1.0  0.2795999999999998  0.6517500000000002  0.9978300000000002  1.0000
  H   H8        1.0  0.3567699999999998  0.7086999999999999  0.9223600000000002  1.0000
  H   H9        1.0  0.2797  0.57117  0.65203  1.0000
  H   H10       1.0  0.35707999999999995  0.5116300000000003  0.70877  1.0000
  H   H11       1.0  0.5706  0.27925999999999995  0.9977900000000002  1.0000
  H   H12       1.0  0.5116299999999998  0.3568899999999999  0.9225900000000002  1.0000
  H   H13       1.0  0.99772  0.65168  0.57068  1.0000
  H   H14       1.0  0.92256  0.7094000000000003  0.51162  1.0000
  H   H15       1.0  0.6517199999999999  0.9977800000000001  0.27979  1.0000
  H   H16       1.0  0.7088299999999998  0.92215  0.35684  1.0000
  H   H17       1.0  0.5712  0.6520600000000002  0.2796000000000001  1.0000
  H   H18       1.0  0.5116300000000003  0.7086499999999999  0.3571100000000001  1.0000
  H   H19       1.0  0.27917999999999993  0.99782  0.57061  1.0000
  H   H20       1.0  0.3569600000000002  0.92264  0.51165  1.0000
  H   H21       1.0  0.6518100000000001  0.5706199999999999  0.9978500000000002  1.0000
  H   H22       1.0  0.7092799999999998  0.5114800000000003  0.92279  1.0000
  H   H23       1.0  0.9978400000000001  0.27971  0.65175  1.0000
  H   H24       1.0  0.9222700000000001  0.35693  0.70864  1.0000
  H   H25       1.0  0.5022100000000002  0.2207899999999999  0.9293500000000002  1.0000
  H   H26       1.0  0.5773100000000001  0.14307  0.98838  1.0000
  H   H27       1.0  0.8479600000000003  0.9288900000000001  0.22038000000000005  1.0000
  H   H28       1.0  0.7913399999999999  0.98843  0.14294000000000007  1.0000
  H   H29       1.0  0.2202599999999999  0.5023199999999999  0.8482200000000002  1.0000
  H   H30       1.0  0.1431699999999999  0.5778999999999999  0.7912600000000002  1.0000
  H   H31       1.0  0.9294199999999998  0.8480600000000004  0.50221  1.0000
  H   H32       1.0  0.9885200000000001  0.79083  0.57721  1.0000
  H   H33       1.0  0.5022899999999998  0.92917  0.8481400000000002  1.0000
  H   H34       1.0  0.5772899999999999  0.98834  0.7909300000000002  1.0000
  H   H35       1.0  0.8482699999999997  0.22038999999999997  0.5023300000000002  1.0000
  H   H36       1.0  0.7913000000000001  0.14325  0.57782  1.0000
  H   H37       1.0  0.22040999999999988  0.84808  0.9287000000000002  1.0000
  H   H38       1.0  0.14302000000000006  0.79135  0.9883  1.0000
  H   H39       1.0  0.92917  0.50222  0.22089000000000006  1.0000
  H   H40       1.0  0.9882300000000002  0.57733  0.14314000000000002  1.0000
  H   H41       1.0  0.5024100000000002  0.8483499999999999  0.22011  1.0000
  H   H42       1.0  0.57804  0.79119  0.14315000000000003  1.0000
  H   H43       1.0  0.8482099999999999  0.5022399999999999  0.9293900000000003  1.0000
  H   H44       1.0  0.7907400000000002  0.5773999999999999  0.98844  1.0000
  H   H45       1.0  0.2207000000000001  0.9293800000000001  0.50218  1.0000
  H   H46       1.0  0.14311  0.98844  0.57732  1.0000
  H   H47       1.0  0.9288800000000001  0.22023999999999988  0.8480700000000002  1.0000
  H   H48       1.0  0.9883799999999998  0.14293999999999996  0.7912700000000003  1.0000
  H   H49       1.0  0.34798000000000007  0.7204700000000002  0.42867  1.0000
  H   H50       1.0  0.29133999999999993  0.64301  0.4882800000000001  1.0000
  H   H51       1.0  0.0022399999999998532  0.4292200000000002  0.72089  1.0000
  H   H52       1.0  0.07734000000000003  0.48823  0.64313  1.0000
  H   H53       1.0  0.4292399999999999  0.002179999999999984  0.3482700000000001  1.0000
  H   H54       1.0  0.4883  0.07732  0.29073000000000004  1.0000
  H   H55       1.0  0.7204  0.34825  0.00216  1.0000
  H   H56       1.0  0.64323  0.29131  0.07763000000000003  1.0000
  H   H57       1.0  0.7203  0.42882000000000003  0.34797  1.0000
  H   H58       1.0  0.6429300000000002  0.48838000000000004  0.29122  1.0000
  H   H59       1.0  0.42941  0.72074  0.002210000000000001  1.0000
  H   H60       1.0  0.4883699999999999  0.64311  0.07740000000000002  1.0000
  H   H61       1.0  0.0022899999999999006  0.34832000000000013  0.4293200000000001  1.0000
  H   H62       1.0  0.07744999999999994  0.29061  0.48837000000000014  1.0000
  H   H63       1.0  0.34827999999999987  0.0022199999999999095  0.7202100000000002  1.0000
  H   H64       1.0  0.29118  0.07786  0.64316  1.0000
  H   H65       1.0  0.4288099999999999  0.34794000000000014  0.7203900000000002  1.0000
  H   H66       1.0  0.48837000000000014  0.29135  0.64289  1.0000
  H   H67       1.0  0.72083  0.0021899999999999446  0.4293900000000001  1.0000
  H   H68       1.0  0.64305  0.07736999999999994  0.4883500000000001  1.0000
  H   H69       1.0  0.34818999999999994  0.42939  0.0021400000000000004  1.0000
  H   H70       1.0  0.29072000000000003  0.48852999999999996  0.07721000000000003  1.0000
  H   H71       1.0  0.0021699999999999528  0.7203  0.34825000000000006  1.0000
  H   H72       1.0  0.07773  0.64308  0.29136  1.0000
  H   H73       1.0  0.49778999999999984  0.7792100000000002  0.07065  1.0000
  H   H74       1.0  0.4226899999999999  0.85694  0.011620000000000004  1.0000
  H   H75       1.0  0.15204999999999994  0.07111000000000003  0.77961  1.0000
  H   H76       1.0  0.20866999999999988  0.011569999999999928  0.8570600000000003  1.0000
  H   H77       1.0  0.77974  0.49769  0.15177000000000004  1.0000
  H   H78       1.0  0.85683  0.4221099999999999  0.20873000000000005  1.0000
  H   H79       1.0  0.07059  0.15194000000000002  0.49778  1.0000
  H   H80       1.0  0.011479999999999971  0.20916999999999994  0.4227900000000001  1.0000
  H   H81       1.0  0.49771000000000004  0.07083000000000002  0.15186  1.0000
  H   H82       1.0  0.42271999999999993  0.011659999999999998  0.20907  1.0000
  H   H83       1.0  0.15172999999999998  0.7796200000000001  0.4976600000000001  1.0000
  H   H84       1.0  0.20871000000000015  0.8567399999999998  0.4221700000000001  1.0000
  H   H85       1.0  0.7795900000000001  0.15192000000000005  0.0713  1.0000
  H   H86       1.0  0.8569800000000001  0.20866  0.011700000000000004  1.0000
  H   H87       1.0  0.07082999999999993  0.4977900000000002  0.77911  1.0000
  H   H88       1.0  0.011769999999999975  0.4226699999999999  0.8568500000000002  1.0000
  H   H89       1.0  0.4975899999999999  0.15164999999999995  0.7798800000000002  1.0000
  H   H90       1.0  0.42196000000000006  0.2088099999999999  0.8568500000000002  1.0000
  H   H91       1.0  0.15179999999999996  0.49776000000000004  0.07061  1.0000
  H   H92       1.0  0.20926000000000003  0.4226100000000001  0.011560000000000004  1.0000
  H   H93       1.0  0.7793099999999998  0.07061999999999996  0.4978200000000001  1.0000
  H   H94       1.0  0.85689  0.011559999999999938  0.4226700000000001  1.0000
  H   H95       1.0  0.07112999999999998  0.77976  0.15192  1.0000
  H   H96       1.0  0.011619999999999808  0.8570700000000002  0.20873000000000005  1.0000
  C   C1        1.0  0.61268  0.36676999999999993  0.63791  1.0000
  C   C2        1.0  0.68234  0.31277  0.57751  1.0000
  C   C3        1.0  0.88276  0.63779  0.3663200000000001  1.0000
  C   C4        1.0  0.9277100000000001  0.57738  0.3124500000000001  1.0000
  C   C5        1.0  0.63771  0.8827900000000001  0.61296  1.0000
  C   C6        1.0  0.5773299999999998  0.9277599999999999  0.6824000000000002  1.0000
  C   C7        1.0  0.3669000000000001  0.61267  0.8828800000000002  1.0000
  C   C8        1.0  0.31262  0.6821799999999999  0.9276800000000002  1.0000
  C   C9        1.0  0.36682000000000003  0.63784  0.61276  1.0000
  C   C10       1.0  0.31284999999999996  0.5773999999999999  0.6823900000000002  1.0000
  C   C11       1.0  0.6375899999999997  0.3664300000000001  0.8826400000000002  1.0000
  C   C12       1.0  0.5772199999999998  0.3125000000000001  0.9277200000000002  1.0000
  C   C13       1.0  0.8825899999999998  0.61313  0.6376  1.0000
  C   C14       1.0  0.9276600000000004  0.68249  0.57724  1.0000
  C   C15       1.0  0.6128000000000003  0.8827399999999999  0.3669400000000001  1.0000
  C   C16       1.0  0.6822400000000001  0.9276100000000002  0.31268  1.0000
  C   C17       1.0  0.6378300000000001  0.61269  0.36678  1.0000
  C   C18       1.0  0.5774  0.68238  0.31283000000000005  1.0000
  C   C19       1.0  0.36631000000000014  0.88278  0.63767  1.0000
  C   C20       1.0  0.31248999999999993  0.9277400000000001  0.57722  1.0000
  C   C21       1.0  0.6130499999999999  0.63751  0.8828500000000002  1.0000
  C   C22       1.0  0.68248  0.5771099999999999  0.9278100000000002  1.0000
  C   C23       1.0  0.88289  0.36688  0.61266  1.0000
  C   C24       1.0  0.9276700000000002  0.3126999999999999  0.68217  1.0000
  C   C25       1.0  0.61726  0.13344  0.86248  1.0000
  C   C26       1.0  0.57226  0.18745999999999996  0.92276  1.0000
  C   C27       1.0  0.8872400000000001  0.86242  0.13310000000000005  1.0000
  C   C28       1.0  0.8176099999999997  0.92266  0.18721000000000004  1.0000
  C   C29       1.0  0.13313999999999993  0.61719  0.88741  1.0000
  C   C30       1.0  0.18734000000000003  0.5724999999999998  0.8177900000000002  1.0000
  C   C31       1.0  0.8624899999999996  0.8870100000000003  0.6170500000000002  1.0000
  C   C32       1.0  0.9228800000000001  0.81748  0.57225  1.0000
  C   C33       1.0  0.6171199999999998  0.86228  0.8870700000000002  1.0000
  C   C34       1.0  0.5723200000000002  0.9226999999999999  0.8175400000000003  1.0000
  C   C35       1.0  0.8873799999999997  0.13312999999999994  0.6172000000000002  1.0000
  C   C36       1.0  0.8178000000000002  0.18743  0.57248  1.0000
  C   C37       1.0  0.13313999999999981  0.8872200000000002  0.8623400000000002  1.0000
  C   C38       1.0  0.18728999999999987  0.8176299999999999  0.9225300000000002  1.0000
  C   C39       1.0  0.86239  0.61727  0.13351000000000005  1.0000
  C   C40       1.0  0.9226299999999996  0.57226  0.18756000000000006  1.0000
  C   C41       1.0  0.6174000000000001  0.88729  0.13303000000000006  1.0000
  C   C42       1.0  0.5725900000000002  0.81778  0.18731  1.0000
  C   C43       1.0  0.8868700000000002  0.6172700000000001  0.86244  1.0000
  C   C44       1.0  0.8174799999999998  0.5723000000000001  0.92284  1.0000
  C   C45       1.0  0.1332999999999997  0.8626400000000001  0.6173300000000003  1.0000
  C   C46       1.0  0.1874499999999999  0.92283  0.57222  1.0000
  C   C47       1.0  0.86247  0.13299999999999995  0.8871200000000002  1.0000
  C   C48       1.0  0.9226399999999999  0.18719999999999995  0.8176000000000002  1.0000
  C   C49       1.0  0.3873300000000003  0.63323  0.3620800000000001  1.0000
  C   C50       1.0  0.31767  0.68723  0.42249  1.0000
  C   C51       1.0  0.11724999999999991  0.36221999999999993  0.6336700000000002  1.0000
  C   C52       1.0  0.07228999999999992  0.42263000000000006  0.68755  1.0000
  C   C53       1.0  0.36228999999999995  0.11721000000000001  0.38704  1.0000
  C   C54       1.0  0.4226799999999999  0.07224999999999995  0.3176000000000001  1.0000
  C   C55       1.0  0.63311  0.38733  0.11711000000000003  1.0000
  C   C56       1.0  0.6873799999999998  0.3178200000000001  0.07231000000000003  1.0000
  C   C57       1.0  0.63318  0.36217  0.38723000000000013  1.0000
  C   C58       1.0  0.68715  0.4226  0.3176000000000001  1.0000
  C   C59       1.0  0.36241000000000007  0.63358  0.11736  1.0000
  C   C60       1.0  0.42278999999999994  0.6875  0.07228000000000002  1.0000
  C   C61       1.0  0.1174099999999999  0.38687000000000016  0.36240000000000006  1.0000
  C   C62       1.0  0.07234999999999996  0.31752  0.42276000000000014  1.0000
  C   C63       1.0  0.38721000000000005  0.11726999999999992  0.6330600000000002  1.0000
  C   C64       1.0  0.31775999999999993  0.07240000000000003  0.68731  1.0000
  C   C65       1.0  0.36217999999999995  0.3873099999999999  0.6332100000000003  1.0000
  C   C66       1.0  0.42259999999999986  0.3176300000000001  0.68717  1.0000
  C   C67       1.0  0.6336899999999999  0.11722  0.36233  1.0000
  C   C68       1.0  0.6875100000000001  0.07225999999999995  0.4227800000000001  1.0000
  C   C69       1.0  0.3869600000000001  0.36249  0.11714  1.0000
  C   C70       1.0  0.31751999999999997  0.4228900000000001  0.07218  1.0000
  C   C71       1.0  0.11710999999999998  0.6331199999999999  0.3873300000000001  1.0000
  C   C72       1.0  0.07233000000000003  0.68731  0.31782  1.0000
  C   C73       1.0  0.3827399999999999  0.8665500000000003  0.13752000000000006  1.0000
  C   C74       1.0  0.4277499999999999  0.81255  0.07723  1.0000
  C   C75       1.0  0.11275999999999994  0.13758999999999988  0.8668900000000003  1.0000
  C   C76       1.0  0.1823899999999999  0.07734  0.8127900000000002  1.0000
  C   C77       1.0  0.8668600000000001  0.38282  0.11259000000000002  1.0000
  C   C78       1.0  0.81266  0.42750000000000005  0.18220000000000006  1.0000
  C   C79       1.0  0.13750999999999997  0.11298999999999997  0.3829400000000001  1.0000
  C   C80       1.0  0.07712000000000008  0.18253  0.42774  1.0000
  C   C81       1.0  0.38288000000000005  0.13772  0.11292  1.0000
  C   C82       1.0  0.42769  0.0773  0.18246  1.0000
  C   C83       1.0  0.11262999999999994  0.8668799999999999  0.3827900000000001  1.0000
  C   C84       1.0  0.18220999999999998  0.81258  0.4275200000000001  1.0000
  C   C85       1.0  0.8668600000000001  0.11278  0.13765  1.0000
  C   C86       1.0  0.81271  0.18237  0.07746  1.0000
  C   C87       1.0  0.13761999999999994  0.38273  0.8664900000000002  1.0000
  C   C88       1.0  0.07736999999999994  0.42773999999999995  0.8124400000000003  1.0000
  C   C89       1.0  0.38260999999999984  0.11270999999999994  0.8669700000000002  1.0000
  C   C90       1.0  0.4274200000000001  0.18222999999999992  0.8126900000000002  1.0000
  C   C91       1.0  0.11314000000000003  0.38273  0.13756000000000004  1.0000
  C   C92       1.0  0.18252999999999991  0.42770000000000014  0.07716000000000003  1.0000
  C   C93       1.0  0.86671  0.13736000000000004  0.38266  1.0000
  C   C94       1.0  0.81256  0.07718  0.42777  1.0000
  C   C95       1.0  0.13753999999999994  0.8670000000000002  0.11287000000000003  1.0000
  C   C96       1.0  0.07735999999999986  0.8128000000000002  0.1824  1.0000
  O   O1        1.0  0.5422299999999999  0.42276000000000025  0.6215  1.0000
  O   O2        1.0  0.62544  0.35236  0.705  1.0000
  O   O3        1.0  0.91339  0.6211599999999999  0.4223600000000001  1.0000
  O   O4        1.0  0.81719  0.70511  0.35181000000000007  1.0000
  O   O5        1.0  0.6208099999999999  0.9130599999999999  0.5430500000000003  1.0000
  O   O6        1.0  0.7054000000000004  0.81769  0.62539  1.0000
  O   O7        1.0  0.4235799999999999  0.54264  0.9131900000000002  1.0000
  O   O8        1.0  0.3521499999999999  0.6251600000000002  0.8177900000000002  1.0000
  O   O9        1.0  0.4227  0.62155  0.54226  1.0000
  O   O10       1.0  0.3524399999999998  0.7048900000000005  0.62561  1.0000
  O   O11       1.0  0.6212399999999999  0.42233  0.9133000000000002  1.0000
  O   O12       1.0  0.7046999999999998  0.35209  0.8168700000000001  1.0000
  O   O13       1.0  0.9129899999999999  0.54308  0.6208600000000002  1.0000
  O   O14       1.0  0.81729  0.62564  0.70512  1.0000
  O   O15       1.0  0.5427400000000001  0.9131099999999999  0.4235600000000001  1.0000
  O   O16       1.0  0.6252899999999997  0.81757  0.3522800000000001  1.0000
  O   O17       1.0  0.6214400000000001  0.54226  0.4227900000000001  1.0000
  O   O18       1.0  0.7049600000000001  0.62545  0.3523000000000001  1.0000
  O   O19       1.0  0.42239000000000004  0.9133299999999999  0.6211200000000002  1.0000
  O   O20       1.0  0.3517399999999999  0.8172300000000001  0.70498  1.0000
  O   O21       1.0  0.5430399999999999  0.62077  0.9131100000000002  1.0000
  O   O22       1.0  0.6255400000000001  0.7051199999999999  0.8176800000000002  1.0000
  O   O23       1.0  0.9131599999999999  0.42358999999999997  0.5426700000000002  1.0000
  O   O24       1.0  0.81783  0.35204  0.62516  1.0000
  O   O25       1.0  0.5865000000000001  0.07748000000000001  0.8791200000000002  1.0000
  O   O26       1.0  0.68299  0.14773  0.79528  1.0000
  O   O27       1.0  0.95747  0.87907  0.07684  1.0000
  O   O28       1.0  0.87464  0.79523  0.14752  1.0000
  O   O29       1.0  0.07663999999999997  0.5866099999999999  0.9573700000000003  1.0000
  O   O30       1.0  0.1477899999999999  0.68227  0.87518  1.0000
  O   O31       1.0  0.8793199999999992  0.95704  0.58639  1.0000
  O   O32       1.0  0.7949400000000001  0.87464  0.6823900000000002  1.0000
  O   O33       1.0  0.5863900000000003  0.8792999999999999  0.9570000000000002  1.0000
  O   O34       1.0  0.68237  0.7946100000000001  0.8748300000000002  1.0000
  O   O35       1.0  0.95739  0.07667999999999998  0.58654  1.0000
  O   O36       1.0  0.8751700000000001  0.14758999999999994  0.6823700000000001  1.0000
  O   O37       1.0  0.07682999999999986  0.95741  0.8791100000000002  1.0000
  O   O38       1.0  0.14754000000000006  0.8747299999999999  0.79511  1.0000
  O   O39       1.0  0.8791299999999997  0.58644  0.07756000000000003  1.0000
  O   O40       1.0  0.79516  0.683  0.14777000000000007  1.0000
  O   O41       1.0  0.5866800000000001  0.95735  0.07665  1.0000
  O   O42       1.0  0.68268  0.87498  0.14739  1.0000
  O   O43       1.0  0.9569199999999998  0.58658  0.8792500000000002  1.0000
  O   O44       1.0  0.8744199999999998  0.68269  0.7949600000000002  1.0000
  O   O45       1.0  0.07753000000000008  0.87913  0.5864  1.0000
  O   O46       1.0  0.14723999999999995  0.79565  0.6833100000000002  1.0000
  O   O47       1.0  0.8790399999999998  0.07690999999999996  0.9574200000000003  1.0000
  O   O48       1.0  0.7954699999999999  0.14717999999999995  0.8743600000000002  1.0000
  O   O49       1.0  0.45776999999999995  0.57724  0.3784900000000001  1.0000
  O   O50       1.0  0.37456  0.64764  0.295  1.0000
  O   O51       1.0  0.0866199999999999  0.37884000000000023  0.57764  1.0000
  O   O52       1.0  0.18281999999999998  0.29489  0.64818  1.0000
  O   O53       1.0  0.37919  0.08694  0.45694  1.0000
  O   O54       1.0  0.2945999999999999  0.18232000000000004  0.37461  1.0000
  O   O55       1.0  0.5764199999999999  0.4573600000000001  0.08681  1.0000
  O   O56       1.0  0.6478599999999999  0.3748400000000001  0.18221000000000007  1.0000
  O   O57       1.0  0.57729  0.37845  0.45773000000000014  1.0000
  O   O58       1.0  0.64756  0.29510999999999993  0.3743900000000001  1.0000
  O   O59       1.0  0.37876000000000004  0.57767  0.08670000000000003  1.0000
  O   O60       1.0  0.29531000000000013  0.64791  0.18313000000000004  1.0000
  O   O61       1.0  0.08702000000000003  0.45693  0.37913  1.0000
  O   O62       1.0  0.18271000000000007  0.37437  0.29487  1.0000
  O   O63       1.0  0.4572699999999999  0.08689999999999994  0.5764400000000002  1.0000
  O   O64       1.0  0.37471999999999983  0.18242999999999995  0.6477200000000002  1.0000
  O   O65       1.0  0.37857000000000013  0.45774000000000004  0.57719  1.0000
  O   O66       1.0  0.2950499999999999  0.37454999999999994  0.6477000000000003  1.0000
  O   O67       1.0  0.57761  0.08666999999999996  0.3788800000000001  1.0000
  O   O68       1.0  0.64826  0.18277000000000002  0.29502  1.0000
  O   O69       1.0  0.45696  0.37922999999999996  0.08689000000000002  1.0000
  O   O70       1.0  0.3744599999999999  0.29488  0.18231000000000006  1.0000
  O   O71       1.0  0.08683999999999986  0.5764200000000003  0.4573300000000001  1.0000
  O   O72       1.0  0.18217000000000003  0.64796  0.3748300000000001  1.0000
  O   O73       1.0  0.41350999999999977  0.9225200000000002  0.12088  1.0000
  O   O74       1.0  0.31700999999999996  0.85227  0.20472000000000007  1.0000
  O   O75       1.0  0.04252999999999984  0.12092999999999997  0.9231500000000002  1.0000
  O   O76       1.0  0.12536000000000003  0.20477999999999993  0.8524700000000002  1.0000
  O   O77       1.0  0.9233700000000001  0.4134  0.04263  1.0000
  O   O78       1.0  0.8522200000000001  0.31772999999999996  0.12482000000000003  1.0000
  O   O79       1.0  0.12068000000000002  0.04296  0.4136  1.0000
  O   O80       1.0  0.20506  0.12536999999999995  0.3176000000000001  1.0000
  O   O81       1.0  0.41361  0.12070000000000002  0.04300000000000001  1.0000
  O   O82       1.0  0.31763  0.20539000000000004  0.12517000000000006  1.0000
  O   O83       1.0  0.04262000000000007  0.92333  0.4134600000000001  1.0000
  O   O84       1.0  0.12484000000000005  0.8524199999999997  0.3176200000000001  1.0000
  O   O85       1.0  0.92317  0.04259  0.12088  1.0000
  O   O86       1.0  0.85247  0.12527999999999997  0.20488000000000006  1.0000
  O   O87       1.0  0.1208799999999999  0.4135599999999999  0.9224400000000003  1.0000
  O   O88       1.0  0.20483999999999994  0.31699999999999995  0.8522400000000001  1.0000
  O   O89       1.0  0.41333  0.042649999999999924  0.9233400000000003  1.0000
  O   O90       1.0  0.31732999999999995  0.12502  0.8526000000000002  1.0000
  O   O91       1.0  0.04309000000000002  0.41342  0.12075000000000002  1.0000
  O   O92       1.0  0.12559999999999993  0.31731000000000004  0.20503  1.0000
  O   O93       1.0  0.92247  0.12087  0.4136  1.0000
  O   O94       1.0  0.8527600000000002  0.20434999999999998  0.31669000000000014  1.0000
  O   O95       1.0  0.12096000000000005  0.92309  0.04257000000000001  1.0000
  O   O96       1.0  0.2045399999999998  0.8528200000000002  0.12563000000000005  1.0000
  O   O97       1.0  0.7502100000000002  0.2502799999999999  0.6154100000000002  1.0000
  O   O98       1.0  0.8843899999999999  0.6154800000000002  0.25006  1.0000
  O   O99       1.0  0.6155699999999998  0.88461  0.7499100000000002  1.0000
  O   O100      1.0  0.24986999999999995  0.7497899999999998  0.8846000000000003  1.0000
  O   O101      1.0  0.2502599999999998  0.6153800000000001  0.7501900000000002  1.0000
  O   O102      1.0  0.61544  0.2500099999999999  0.8844900000000002  1.0000
  O   O103      1.0  0.8846800000000001  0.7499300000000001  0.6155300000000002  1.0000
  O   O104      1.0  0.7497899999999998  0.8847  0.24976  1.0000
  O   O105      1.0  0.61532  0.7502399999999999  0.2503400000000001  1.0000
  O   O106      1.0  0.25004999999999994  0.8844699999999999  0.6153500000000002  1.0000
  O   O107      1.0  0.7499899999999997  0.61535  0.8846100000000002  1.0000
  O   O108      1.0  0.8846500000000003  0.2498699999999999  0.7498100000000002  1.0000
  O   O109      1.0  0.24979999999999977  0.74972  0.3845900000000001  1.0000
  O   O110      1.0  0.1156199999999999  0.38451999999999986  0.7499400000000003  1.0000
  O   O111      1.0  0.38444  0.11539000000000002  0.25009  1.0000
  O   O112      1.0  0.7501300000000001  0.25021  0.11540000000000003  1.0000
  O   O113      1.0  0.7497399999999999  0.38462  0.24980000000000005  1.0000
  O   O114      1.0  0.3845700000000001  0.74999  0.11550000000000003  1.0000
  O   O115      1.0  0.11533000000000003  0.25006999999999996  0.38447  1.0000
  O   O116      1.0  0.25022  0.1152999999999999  0.7502400000000002  1.0000
  O   O117      1.0  0.38468  0.24975999999999995  0.7496600000000002  1.0000
  O   O118      1.0  0.74996  0.11553999999999998  0.3846500000000001  1.0000
  O   O119      1.0  0.25002  0.38465  0.11538000000000001  1.0000
  O   O120      1.0  0.11535999999999999  0.75014  0.25018  1.0000
