data_image0
_chemical_formula_structural       Zn16H72C144N8O68
_chemical_formula_sum              "Zn16 H72 C144 N8 O68"
_cell_length_a       10.37858
_cell_length_b       30.76348
_cell_length_c       31.2482
_cell_angle_alpha    90.0
_cell_angle_beta     90.0
_cell_angle_gamma    91.29964

_space_group_name_H-M_alt    "P 1"
_space_group_IT_number       1

loop_
  _space_group_symop_operation_xyz
  'x, y, z'

loop_
  _atom_site_type_symbol
  _atom_site_label
  _atom_site_symmetry_multiplicity
  _atom_site_fract_x
  _atom_site_fract_y
  _atom_site_fract_z
  _atom_site_occupancy
  Zn  Zn1       1.0  0.17112  0.32159  0.3254  1.0000
  Zn  Zn2       1.0  0.47813  0.16322  0.91869  1.0000
  Zn  Zn3       1.0  0.4710599999999999  0.0894  0.84295  1.0000
  Zn  Zn4       1.0  0.97813  0.66322  0.5813100000000001  1.0000
  Zn  Zn5       1.0  0.12692  0.68129  0.66598  1.0000
  Zn  Zn6       1.0  0.37309  0.81872  0.16598  1.0000
  Zn  Zn7       1.0  0.52894  0.9106  0.15705  1.0000
  Zn  Zn8       1.0  0.02894  0.4106  0.34295  1.0000
  Zn  Zn9       1.0  0.62691  0.18129  0.83402  1.0000
  Zn  Zn10      1.0  0.32888  0.17841  0.82541  1.0000
  Zn  Zn11      1.0  0.52188  0.83679  0.08131  1.0000
  Zn  Zn12      1.0  0.82889  0.67842  0.6746000000000001  1.0000
  Zn  Zn13      1.0  0.8730900000000001  0.31871  0.33402  1.0000
  Zn  Zn14      1.0  0.67112  0.82159  0.1746  1.0000
  Zn  Zn15      1.0  0.97107  0.5894  0.65705  1.0000
  Zn  Zn16      1.0  0.02187  0.33679  0.41869  1.0000
  H   H1        1.0  0.99506  0.42222  0.52163  1.0000
  H   H2        1.0  0.02793  0.8785800000000001  0.18319  1.0000
  H   H3        1.0  0.72544  0.27751  0.50185  1.0000
  H   H4        1.0  0.72882  0.68846  0.22503  1.0000
  H   H5        1.0  0.22881  0.18846  0.27497  1.0000
  H   H6        1.0  0.37553  0.22493  0.61324  1.0000
  H   H7        1.0  0.49506  0.92222  0.97837  1.0000
  H   H8        1.0  0.32637  0.49324000000000007  0.27853  1.0000
  H   H9        1.0  0.68754  0.61413  0.25204  1.0000
  H   H10       1.0  0.27456  0.72249  0.49815  1.0000
  H   H11       1.0  0.82637  0.99324  0.22147  1.0000
  H   H12       1.0  0.19271  0.21883  0.00207  1.0000
  H   H13       1.0  0.65026  0.80658  0.31445  1.0000
  H   H14       1.0  0.8653  0.94442  0.7661000000000001  1.0000
  H   H15       1.0  0.74472  0.49448  0.28492  1.0000
  H   H16       1.0  0.14649  0.81021  0.6677700000000002  1.0000
  H   H17       1.0  0.6927099999999999  0.71883  0.49793  1.0000
  H   H18       1.0  0.30729  0.28117  0.50207  1.0000
  H   H19       1.0  0.67364  0.50677  0.72147  1.0000
  H   H20       1.0  0.52792  0.37857  0.31681  1.0000
  H   H21       1.0  0.51865  0.3081  0.38658  1.0000
  H   H22       1.0  0.8535100000000001  0.18979  0.33223  1.0000
  H   H23       1.0  0.50494  0.07779  0.02163  1.0000
  H   H24       1.0  0.34975  0.19342  0.68555  1.0000
  H   H25       1.0  0.17363  0.00677  0.77853  1.0000
  H   H26       1.0  0.15025  0.3065800000000001  0.18555  1.0000
  H   H27       1.0  0.64649  0.31021000000000004  0.83223  1.0000
  H   H28       1.0  0.81247  0.88588  0.75204  1.0000
  H   H29       1.0  0.47208000000000006  0.62143  0.68319  1.0000
  H   H30       1.0  0.76237  0.26785  0.21729  1.0000
  H   H31       1.0  0.41907  0.25653  0.56084  1.0000
  H   H32       1.0  0.5217  0.01889  0.07709  1.0000
  H   H33       1.0  0.80731  0.78117  0.9979300000000001  1.0000
  H   H34       1.0  0.23762999999999998  0.73215  0.78271  1.0000
  H   H35       1.0  0.58093  0.7434700000000002  0.43916000000000005  1.0000
  H   H36       1.0  0.48135  0.6919  0.61342  1.0000
  H   H37       1.0  0.3087  0.61387  0.19499  1.0000
  H   H38       1.0  0.4783  0.98111  0.92291  1.0000
  H   H39       1.0  0.25529  0.50552  0.71508  1.0000
  H   H40       1.0  0.63471  0.55558  0.2661  1.0000
  H   H41       1.0  0.22545  0.77751  0.99815  1.0000
  H   H42       1.0  0.004939999999999999  0.57779  0.47837  1.0000
  H   H43       1.0  0.19131000000000004  0.8861300000000001  0.69499  1.0000
  H   H44       1.0  0.84975  0.69342  0.81445  1.0000
  H   H45       1.0  0.77456  0.22249  0.00185  1.0000
  H   H46       1.0  0.01867  0.8081  0.11342  1.0000
  H   H47       1.0  0.35352  0.68979  0.16777  1.0000
  H   H48       1.0  0.62447  0.7750700000000001  0.38676  1.0000
  H   H49       1.0  0.91908  0.75653  0.93916  1.0000
  H   H50       1.0  0.26633  0.76446  0.8561  1.0000
  H   H51       1.0  0.24472  0.99448  0.21508  1.0000
  H   H52       1.0  0.9720800000000002  0.12143  0.81681  1.0000
  H   H53       1.0  0.0217  0.51889  0.42291  1.0000
  H   H54       1.0  0.9813500000000001  0.1919  0.88658  1.0000
  H   H55       1.0  0.75528  0.00552  0.78492  1.0000
  H   H56       1.0  0.73367  0.23555  0.1439  1.0000
  H   H57       1.0  0.73763  0.23215  0.71729  1.0000
  H   H58       1.0  0.27119  0.31154  0.77497  1.0000
  H   H59       1.0  0.6913  0.38613  0.80501  1.0000
  H   H60       1.0  0.76633  0.2644500000000001  0.6439  1.0000
  H   H61       1.0  0.12447000000000001  0.27507  0.11324  1.0000
  H   H62       1.0  0.87554  0.72493  0.88676  1.0000
  H   H63       1.0  0.36529  0.44442  0.7339  1.0000
  H   H64       1.0  0.13471  0.05558  0.2339  1.0000
  H   H65       1.0  0.77119  0.81154  0.72503  1.0000
  H   H66       1.0  0.18753  0.11413  0.24796  1.0000
  H   H67       1.0  0.31247  0.38588  0.74796  1.0000
  H   H68       1.0  0.26238  0.76786  0.28271  1.0000
  H   H69       1.0  0.08093  0.24347  0.06084  1.0000
  H   H70       1.0  0.8086999999999999  0.11387  0.30501  1.0000
  H   H71       1.0  0.23367999999999997  0.73555  0.3561  1.0000
  H   H72       1.0  0.9783000000000001  0.48111  0.57709  1.0000
  C   C1        1.0  0.07502  0.82758  0.68614  1.0000
  C   C2        1.0  0.9562199999999998  0.80664  0.6947600000000002  1.0000
  C   C3        1.0  0.72245  0.6947900000000001  0.58112  1.0000
  C   C4        1.0  0.3659  0.70728  0.55813  1.0000
  C   C5        1.0  0.22243999999999997  0.19479  0.91888  1.0000
  C   C6        1.0  0.63746  0.67175  0.21849  1.0000
  C   C7        1.0  0.4141099999999999  0.43352  0.29836  1.0000
  C   C8        1.0  0.45621  0.3066400000000001  0.80524  1.0000
  C   C9        1.0  0.04334  0.27294  0.13535  1.0000
  C   C10       1.0  0.94066  0.70893  0.82394  1.0000
  C   C11       1.0  0.96426  0.00144  0.77831  1.0000
  C   C12       1.0  0.08427  0.02334  0.78446  1.0000
  C   C13       1.0  0.9836  0.22342  0.00703  1.0000
  C   C14       1.0  0.85149  0.06538  0.80243  1.0000
  C   C15       1.0  0.43446  0.2608  0.82047  1.0000
  C   C16       1.0  0.3241  0.75116  0.34648  1.0000
  C   C17       1.0  0.02974  0.91229  0.19358  1.0000
  C   C18       1.0  0.53088  0.19063  0.74927  1.0000
  C   C19       1.0  0.24256  0.70073  0.58265  1.0000
  C   C20       1.0  0.16014  0.73089  0.80609  1.0000
  C   C21       1.0  0.50656  0.39143  0.77502  1.0000
  C   C22       1.0  0.8658899999999999  0.20728  0.94187  1.0000
  C   C23       1.0  0.38746  0.37034  0.76651  1.0000
  C   C24       1.0  0.57532  0.24666  0.6234  1.0000
  C   C25       1.0  0.017730000000000006  0.7992400000000001  0.07975  1.0000
  C   C26       1.0  0.17591  0.7488500000000002  0.84648  1.0000
  C   C27       1.0  0.07533  0.74666  0.8766  1.0000
  C   C28       1.0  0.50942  0.9672  0.03082  1.0000
  C   C29       1.0  0.13412  0.79273  0.05813  1.0000
  C   C30       1.0  0.98116  0.56799  0.56368  1.0000
  C   C31       1.0  0.10078  0.21629  0.98532  1.0000
  C   C32       1.0  0.86255  0.82825  0.71849  1.0000
  C   C33       1.0  0.51772  0.29924  0.42025  1.0000
  C   C34       1.0  0.9569100000000001  0.28979  0.20534  1.0000
  C   C35       1.0  0.54309  0.21021  0.70534  1.0000
  C   C36       1.0  0.4702700000000001  0.58772  0.69358  1.0000
  C   C37       1.0  0.57502  0.32758  0.81386  1.0000
  C   C38       1.0  0.14851  0.93463  0.19757  1.0000
  C   C39       1.0  0.51214  0.01105  0.04331  1.0000
  C   C40       1.0  0.8398600000000002  0.26911  0.19391  1.0000
  C   C41       1.0  0.9878599999999998  0.48895  0.54331  1.0000
  C   C42       1.0  0.01885  0.43201  0.43632  1.0000
  C   C43       1.0  0.9934500000000002  0.10857  0.27502  1.0000
  C   C44       1.0  0.42499  0.67243  0.18614  1.0000
  C   C45       1.0  0.59973  0.36943  0.7989  1.0000
  C   C46       1.0  0.3515  0.56538  0.69757  1.0000
  C   C47       1.0  0.90023  0.79541  0.05773  1.0000
  C   C48       1.0  0.61255  0.6296600000000002  0.23349  1.0000
  C   C49       1.0  0.9141200000000003  0.93353  0.20164  1.0000
  C   C50       1.0  0.25746  0.79927  0.08264  1.0000
  C   C51       1.0  0.96912  0.30937  0.24927  1.0000
  C   C52       1.0  0.33987  0.76911  0.30609  1.0000
  C   C53       1.0  0.7775599999999999  0.80522  0.08112  1.0000
  C   C54       1.0  0.45480999999999994  0.56372  0.23918  1.0000
  C   C55       1.0  0.95666  0.72706  0.86465  1.0000
  C   C56       1.0  0.8910099999999999  0.23587  0.08008  1.0000
  C   C57       1.0  0.59978  0.7046  0.55773  1.0000
  C   C58       1.0  0.27756  0.30522  0.41888  1.0000
  C   C59       1.0  0.5164  0.27658  0.50703  1.0000
  C   C60       1.0  0.63502  0.2818  0.48517  1.0000
  C   C61       1.0  0.71015  0.5912  0.69307  1.0000
  C   C62       1.0  0.51885  0.93201  0.06368  1.0000
  C   C63       1.0  0.08588  0.06648  0.79836  1.0000
  C   C64       1.0  0.40022  0.29541  0.44227  1.0000
  C   C65       1.0  0.9344599999999998  0.7608  0.67953  1.0000
  C   C66       1.0  0.15181  0.97764  0.2115  1.0000
  C   C67       1.0  0.05934  0.29107  0.17606  1.0000
  C   C68       1.0  0.03574  0.99856  0.22169  1.0000
  C   C69       1.0  0.36499  0.7182  0.51483  1.0000
  C   C70       1.0  0.52973  0.41228  0.30642  1.0000
  C   C71       1.0  0.74255  0.20073  0.91735  1.0000
  C   C72       1.0  0.016409999999999998  0.77658  0.99297  1.0000
  C   C73       1.0  0.76927  0.41137  0.3145  1.0000
  C   C74       1.0  0.58589  0.56648  0.70164  1.0000
  C   C75       1.0  0.86498  0.2182  0.98517  1.0000
  C   C76       1.0  0.75745  0.29927  0.41735  1.0000
  C   C77       1.0  0.89923  0.78371  0.01468  1.0000
  C   C78       1.0  0.45691000000000004  0.78979  0.29466  1.0000
  C   C79       1.0  0.21015  0.09120000000000003  0.80693  1.0000
  C   C80       1.0  0.48114999999999997  0.06799  0.93632  1.0000
  C   C81       1.0  0.88746  0.87034  0.73349  1.0000
  C   C82       1.0  0.006560000000000004  0.89143  0.72498  1.0000
  C   C83       1.0  0.99726  0.45635  0.51265  1.0000
  C   C84       1.0  0.39921999999999996  0.28371  0.48532  1.0000
  C   C85       1.0  0.9002700000000001  0.13058  0.2989  1.0000
  C   C86       1.0  0.49344999999999994  0.60858  0.22498  1.0000
  C   C87       1.0  0.04379  0.19336  0.30524  1.0000
  C   C88       1.0  0.9548  0.06372  0.26082  1.0000
  C   C89       1.0  0.9249800000000001  0.17243  0.31386  1.0000
  C   C90       1.0  0.26928  0.91137  0.1855  1.0000
  C   C91       1.0  0.48229  0.70076  0.57975  1.0000
  C   C92       1.0  0.63411  0.29273  0.44187  1.0000
  C   C93       1.0  0.6518  0.47764  0.2885  1.0000
  C   C94       1.0  0.44066000000000005  0.20893  0.67606  1.0000
  C   C95       1.0  0.06554  0.2392  0.32047  1.0000
  C   C96       1.0  0.609  0.26413  0.58008  1.0000
  C   C97       1.0  0.5438  0.69336  0.19476  1.0000
  C   C98       1.0  0.09974  0.86943  0.7011  1.0000
  C   C99       1.0  0.03089  0.69063  0.75073  1.0000
  C   C100      1.0  0.9702699999999999  0.08772  0.8064200000000001  1.0000
  C   C101      1.0  0.48786000000000007  0.98895  0.95669  1.0000
  C   C102      1.0  0.23073  0.58863  0.6855  1.0000
  C   C103      1.0  0.6759  0.24885  0.65352  1.0000
  C   C104      1.0  0.11253999999999999  0.12966  0.26651  1.0000
  C   C105      1.0  0.53574  0.49856  0.27831  1.0000
  C   C106      1.0  0.28985  0.4088  0.30693  1.0000
  C   C107      1.0  0.46427  0.50144  0.72169  1.0000
  C   C108      1.0  0.54335  0.77294  0.36465  1.0000
  C   C109      1.0  0.0452  0.93628  0.73918  1.0000
  C   C110      1.0  0.13503  0.7818000000000002  0.01483  1.0000
  C   C111      1.0  0.36254  0.32825  0.78151  1.0000
  C   C112      1.0  0.5452  0.43628  0.76082  1.0000
  C   C113      1.0  0.55935  0.79107  0.32394  1.0000
  C   C114      1.0  0.73073  0.08863  0.8145  1.0000
  C   C115      1.0  0.0027399999999999985  0.54365  0.48735  1.0000
  C   C116      1.0  0.45666  0.22706  0.63535  1.0000
  C   C117      1.0  0.109  0.76413  0.91992  1.0000
  C   C118      1.0  0.41573000000000004  0.47666  0.28446  1.0000
  C   C119      1.0  0.49058  0.0328  0.96918  1.0000
  C   C120      1.0  0.8482  0.02236  0.7885000000000001  1.0000
  C   C121      1.0  0.64851  0.43463  0.30243  1.0000
  C   C122      1.0  0.39100999999999997  0.73587  0.41992  1.0000
  C   C123      1.0  0.13745  0.17175000000000007  0.28151  1.0000
  C   C124      1.0  0.58427  0.52334  0.71554  1.0000
  C   C125      1.0  0.4836  0.72343  0.49297  1.0000
  C   C126      1.0  0.7898599999999999  0.9088  0.19307  1.0000
  C   C127      1.0  0.46912000000000004  0.80937  0.25073  1.0000
  C   C128      1.0  0.60079  0.71629  0.51468  1.0000
  C   C129      1.0  0.012139999999999993  0.51105  0.45669  1.0000
  C   C130      1.0  0.50274  0.04365  0.01265  1.0000
  C   C131      1.0  0.0431  0.71021  0.7946600000000001  1.0000
  C   C132      1.0  0.99059  0.5328  0.53082  1.0000
  C   C133      1.0  0.9246799999999998  0.25334  0.1234  1.0000
  C   C134      1.0  0.91574  0.97667  0.21554  1.0000
  C   C135      1.0  0.3482  0.52236  0.7115  1.0000
  C   C136      1.0  0.49726  0.95635  0.98735  1.0000
  C   C137      1.0  0.8241  0.25116  0.15352  1.0000
  C   C138      1.0  0.66014  0.23089  0.69391  1.0000
  C   C139      1.0  0.009420000000000006  0.4672000000000001  0.46918  1.0000
  C   C140      1.0  0.98228  0.20076  0.92025  1.0000
  C   C141      1.0  0.40027  0.63058  0.2011  1.0000
  C   C142      1.0  0.09978  0.2046  0.9422700000000002  1.0000
  C   C143      1.0  0.42468  0.75334  0.3766  1.0000
  C   C144      1.0  0.56555  0.7392000000000002  0.17954  1.0000
  N   N1        1.0  0.9540099999999999  0.95879  0.76306  1.0000
  N   N2        1.0  0.50902  0.26443  0.55003  1.0000
  N   N3        1.0  0.99099  0.23557  0.05003  1.0000
  N   N4        1.0  0.454  0.45879  0.73694  1.0000
  N   N5        1.0  0.009019999999999997  0.76443  0.94997  1.0000
  N   N6        1.0  0.046  0.04121  0.23694  1.0000
  N   N7        1.0  0.49099  0.73557  0.44997  1.0000
  N   N8        1.0  0.546  0.54122  0.26306  1.0000
  O   O1        1.0  0.62357  0.06719  0.81169  1.0000
  O   O2        1.0  0.51952  0.24462  0.84433  1.0000
  O   O3        1.0  0.84901  0.04732  0.26977  1.0000
  O   O4        1.0  0.71336  0.69062  0.62124  1.0000
  O   O5        1.0  0.74646  0.12744  0.82731  1.0000
  O   O6        1.0  0.47296  0.1511  0.85709  1.0000
  O   O7        1.0  0.21912999999999996  0.77706  0.92873  1.0000
  O   O8        1.0  0.21336  0.19061  0.87876  1.0000
  O   O9        1.0  0.86937  0.3029  0.2732  1.0000
  O   O10       1.0  0.9804900000000001  0.25538  0.34433  1.0000
  O   O11       1.0  0.87643  0.43281  0.31169  1.0000
  O   O12       1.0  0.02704  0.3489  0.35709  1.0000
  O   O13       1.0  0.78088  0.22294  0.07127  1.0000
  O   O14       1.0  0.71912  0.27706  0.57127  1.0000
  O   O15       1.0  0.37643  0.93281  0.18831  1.0000
  O   O16       1.0  0.25353999999999993  0.87256  0.17269  1.0000
  O   O17       1.0  0.82415  0.69099  0.55823  1.0000
  O   O18       1.0  0.75354  0.37256  0.32731  1.0000
  O   O19       1.0  0.14074  0.69229  0.56097  1.0000
  O   O20       1.0  0.8592700000000001  0.30771  0.43903  1.0000
  O   O21       1.0  0.92874  0.67034  0.74016  1.0000
  O   O22       1.0  0.24646999999999997  0.6274400000000001  0.67269  1.0000
  O   O23       1.0  0.75298  0.20344  0.87685  1.0000
  O   O24       1.0  0.16825  0.25938  0.30743  1.0000
  O   O25       1.0  0.15099  0.95268  0.73023  1.0000
  O   O26       1.0  0.36937  0.80291  0.2268  1.0000
  O   O27       1.0  0.64073  0.19229000000000004  0.93903  1.0000
  O   O28       1.0  0.12358  0.56719  0.68831  1.0000
  O   O29       1.0  0.02589  0.44408  0.39723  1.0000
  O   O30       1.0  0.28664  0.30939000000000005  0.37876  1.0000
  O   O31       1.0  0.29859  0.36764  0.30733  1.0000
  O   O32       1.0  0.34901  0.54732  0.23023  1.0000
  O   O33       1.0  0.019090000000000003  0.39296  0.4502  1.0000
  O   O34       1.0  0.7986  0.86764  0.19267  1.0000
  O   O35       1.0  0.63063  0.1971  0.7732  1.0000
  O   O36       1.0  0.13064  0.6971  0.7268  1.0000
  O   O37       1.0  0.25298  0.70344  0.62315  1.0000
  O   O38       1.0  0.48049  0.75538  0.15567  1.0000
  O   O39       1.0  0.32414  0.19099  0.94177  1.0000
  O   O40       1.0  0.17586  0.30901  0.44177  1.0000
  O   O41       1.0  0.24703  0.79656  0.12314  1.0000
  O   O42       1.0  0.66826  0.75938  0.19257  1.0000
  O   O43       1.0  0.74702  0.29656  0.37685  1.0000
  O   O44       1.0  0.3106  0.06906  0.81387  1.0000
  O   O45       1.0  0.42873  0.17034  0.75984  1.0000
  O   O46       1.0  0.8106099999999999  0.56906  0.68613  1.0000
  O   O47       1.0  0.8317500000000001  0.74063  0.69257  1.0000
  O   O48       1.0  0.98092  0.60704  0.5498  1.0000
  O   O49       1.0  0.1894  0.43094  0.31387  1.0000
  O   O50       1.0  0.07127  0.32967  0.25984  1.0000
  O   O51       1.0  0.5259  0.94408  0.10277  1.0000
  O   O52       1.0  0.7866499999999998  0.80939  0.12124  1.0000
  O   O53       1.0  0.65099  0.45268  0.76977  1.0000
  O   O54       1.0  0.33174  0.24063  0.80743  1.0000
  O   O55       1.0  0.01952  0.74463  0.65567  1.0000
  O   O56       1.0  0.67587  0.8090100000000001  0.05822  1.0000
  O   O57       1.0  0.5191  0.89296  0.0498  1.0000
  O   O58       1.0  0.9741100000000001  0.55593  0.60277  1.0000
  O   O59       1.0  0.48091  0.10704  0.9502  1.0000
  O   O60       1.0  0.2808800000000001  0.72294  0.42873  1.0000
  O   O61       1.0  0.20141  0.13236  0.80733  1.0000
  O   O62       1.0  0.52704  0.8489  0.14291  1.0000
  O   O63       1.0  0.4741099999999999  0.05593  0.89723  1.0000
  O   O64       1.0  0.97297  0.6511  0.64291  1.0000
  O   O65       1.0  0.6894  0.93094  0.18613  1.0000
  O   O66       1.0  0.35929  0.80771  0.06097  1.0000
  O   O67       1.0  0.5712699999999998  0.82967  0.24016  1.0000
  O   O68       1.0  0.70141  0.63236  0.69267  1.0000
