data_image0
_chemical_formula_structural       Cd9H66C104N8O44
_chemical_formula_sum              "Cd9 H66 C104 N8 O44"
_cell_length_a       13.80822
_cell_length_b       15.61438
_cell_length_c       15.5497
_cell_angle_alpha    107.40579
_cell_angle_beta     94.91014
_cell_angle_gamma    100.66977999999999

_space_group_name_H-M_alt    "P 1"
_space_group_IT_number       1

loop_
  _space_group_symop_operation_xyz
  'x, y, z'

loop_
  _atom_site_type_symbol
  _atom_site_label
  _atom_site_symmetry_multiplicity
  _atom_site_fract_x
  _atom_site_fract_y
  _atom_site_fract_z
  _atom_site_occupancy
  Cd  Cd1       1.0  0.7644300000000003  0.9581200000000002  0.52461  1.0000
  Cd  Cd2       1.0  0.58288  0.048000000000000015  0.11410999999999998  1.0000
  Cd  Cd3       1.0  0.6423400000000002  0.01521000000000001  0.32912  1.0000
  Cd  Cd4       1.0  0.9211800000000001  0.04277999999999993  0.7674199999999998  1.0000
  Cd  Cd5       1.0  0.23555999999999994  0.04187999999999995  0.47538999999999987  1.0000
  Cd  Cd6       1.0  0.41712  0.9520000000000002  0.8858799999999998  1.0000
  Cd  Cd7       1.0  0.35766  0.9847900000000003  0.6708799999999998  1.0000
  Cd  Cd8       1.0  0.07882000000000006  0.9572200000000002  0.23258  1.0000
  Cd  Cd9       1.0  0.0  0.0  0.0  1.0000
  H   H1        1.0  0.23137000000000002  0.57102  0.26322  1.0000
  H   H2        1.0  0.47347000000000017  0.6979600000000002  0.41  1.0000
  H   H3        1.0  0.20079000000000008  0.7074300000000002  0.25786  1.0000
  H   H4        1.0  0.42676  0.9545000000000002  0.38278  1.0000
  H   H5        1.0  0.30895  0.4018200000000001  0.4237799999999999  1.0000
  H   H6        1.0  0.23199  0.23354999999999998  0.35012999999999994  1.0000
  H   H7        1.0  0.14272  0.28413  0.10188999999999997  1.0000
  H   H8        1.0  0.22392000000000004  0.4484400000000001  0.17102  1.0000
  H   H9        1.0  0.10007999999999999  0.41989  0.4006699999999999  1.0000
  H   H10       1.0  0.86425  0.28764  0.2537  1.0000
  H   H11       1.0  0.10636000000000004  0.29438000000000003  0.4524899999999999  1.0000
  H   H12       1.0  0.9024000000000002  0.03836  0.30382  1.0000
  H   H13       1.0  0.93034  0.60846  0.3285999999999999  1.0000
  H   H14       1.0  0.02399000000000001  0.7733600000000003  0.38714999999999994  1.0000
  H   H15       1.0  0.2504000000000001  0.6979000000000002  0.53746  1.0000
  H   H16       1.0  0.15762000000000004  0.53744  0.4856299999999999  1.0000
  H   H17       1.0  0.43697000000000014  0.30482  0.39089  1.0000
  H   H18       1.0  0.45782000000000006  0.3435100000000001  0.29556  1.0000
  H   H19       1.0  0.5417100000000001  0.39363000000000004  0.4011599999999999  1.0000
  H   H20       1.0  0.70173  0.24872000000000005  0.31274999999999986  1.0000
  H   H21       1.0  0.6863700000000003  0.36443  0.35588  1.0000
  H   H22       1.0  0.6501  0.3001700000000001  0.2374  1.0000
  H   H23       1.0  0.3898900000000001  0.06214999999999996  0.2744799999999999  1.0000
  H   H24       1.0  0.36098  0.16517999999999997  0.26385999999999993  1.0000
  H   H25       1.0  0.3920400000000001  0.15637  0.3737799999999999  1.0000
  H   H26       1.0  0.4340900000000001  0.42961  0.06112999999999998  1.0000
  H   H27       1.0  0.19429000000000002  0.2969800000000001  0.9110799999999998  1.0000
  H   H28       1.0  0.45553  0.29933  0.08597  1.0000
  H   H29       1.0  0.23611999999999997  0.047939999999999906  0.9619199999999998  1.0000
  H   H30       1.0  0.30507999999999996  0.6079899999999999  0.9365899999999999  1.0000
  H   H31       1.0  0.38881  0.7754400000000002  0.00787  1.0000
  H   H32       1.0  0.5409700000000001  0.7132500000000003  0.22648  1.0000
  H   H33       1.0  0.45822000000000007  0.54898  0.15829999999999997  1.0000
  H   H34       1.0  0.7686300000000003  0.4289799999999999  0.7367699999999998  1.0000
  H   H35       1.0  0.52653  0.30204  0.58999  1.0000
  H   H36       1.0  0.79921  0.29257  0.7421299999999997  1.0000
  H   H37       1.0  0.57323  0.04549999999999999  0.61721  1.0000
  H   H38       1.0  0.6910499999999998  0.59818  0.5762199999999997  1.0000
  H   H39       1.0  0.7680100000000001  0.76645  0.6498699999999997  1.0000
  H   H40       1.0  0.8572700000000001  0.71587  0.8981099999999997  1.0000
  H   H41       1.0  0.77607  0.5515600000000002  0.8289799999999998  1.0000
  H   H42       1.0  0.8999100000000002  0.5801100000000002  0.59932  1.0000
  H   H43       1.0  0.13575000000000004  0.7123600000000002  0.7462999999999997  1.0000
  H   H44       1.0  0.8936300000000003  0.7056200000000002  0.5475  1.0000
  H   H45       1.0  0.09760000000000006  0.9616400000000002  0.69618  1.0000
  H   H46       1.0  0.06965000000000006  0.3915400000000001  0.6714  1.0000
  H   H47       1.0  0.97601  0.22663999999999998  0.6128499999999998  1.0000
  H   H48       1.0  0.7495900000000002  0.3020900000000001  0.4625399999999999  1.0000
  H   H49       1.0  0.8423700000000003  0.46256000000000025  0.51436  1.0000
  H   H50       1.0  0.5630200000000001  0.6951799999999999  0.6091099999999998  1.0000
  H   H51       1.0  0.5421700000000003  0.6564900000000001  0.7044399999999997  1.0000
  H   H52       1.0  0.4582800000000001  0.60637  0.59884  1.0000
  H   H53       1.0  0.29825999999999997  0.7512799999999998  0.6872499999999999  1.0000
  H   H54       1.0  0.31362  0.6355700000000001  0.6441199999999998  1.0000
  H   H55       1.0  0.3499000000000001  0.69983  0.7626  1.0000
  H   H56       1.0  0.6101000000000001  0.9378400000000002  0.72551  1.0000
  H   H57       1.0  0.63902  0.83482  0.7361399999999998  1.0000
  H   H58       1.0  0.6079500000000001  0.84363  0.6262099999999998  1.0000
  H   H59       1.0  0.56591  0.5703899999999998  0.9388699999999998  1.0000
  H   H60       1.0  0.8057100000000003  0.7030100000000002  0.08891999999999997  1.0000
  H   H61       1.0  0.5444700000000001  0.70067  0.91403  1.0000
  H   H62       1.0  0.76388  0.9520600000000002  0.03808  1.0000
  H   H63       1.0  0.6949100000000001  0.39201000000000014  0.06339999999999998  1.0000
  H   H64       1.0  0.61118  0.22455999999999995  0.9921199999999999  1.0000
  H   H65       1.0  0.4590300000000001  0.28675000000000006  0.7735199999999998  1.0000
  H   H66       1.0  0.5417700000000001  0.45102000000000003  0.8416899999999998  1.0000
  C   C1        1.0  0.46171000000000006  0.8301500000000003  0.3986699999999999  1.0000
  C   C2        1.0  0.42680000000000007  0.7358100000000002  0.38347  1.0000
  C   C3        1.0  0.33279000000000014  0.6910400000000002  0.33224  1.0000
  C   C4        1.0  0.27393  0.74097  0.29804  1.0000
  C   C5        1.0  0.3068300000000001  0.8358100000000003  0.31735  1.0000
  C   C6        1.0  0.40115  0.88078  0.36766999999999994  1.0000
  C   C7        1.0  0.26998000000000005  0.43696  0.30395999999999995  1.0000
  C   C8        1.0  0.27173  0.37513  0.35345  1.0000
  C   C9        1.0  0.22932000000000005  0.28172000000000014  0.3123499999999999  1.0000
  C   C10       1.0  0.18222000000000005  0.24879  0.22149  1.0000
  C   C11       1.0  0.17879000000000006  0.31045  0.17237  1.0000
  C   C12       1.0  0.22341999999999998  0.40345  0.21270999999999995  1.0000
  C   C13       1.0  0.32253  0.5354  0.35061  1.0000
  C   C14       1.0  0.56581  0.87392  0.44554  1.0000
  C   C15       1.0  0.23796  0.88769  0.28683  1.0000
  C   C16       1.0  0.13557000000000005  0.14824  0.17628999999999997  1.0000
  C   C17       1.0  0.87331  0.15803999999999996  0.2736699999999999  1.0000
  C   C18       1.0  0.90502  0.25299  0.2903  1.0000
  C   C19       1.0  0.9888500000000002  0.3027200000000001  0.35544  1.0000
  C   C20       1.0  0.041839999999999995  0.25669  0.40106999999999987  1.0000
  C   C21       1.0  0.013499999999999998  0.16116000000000003  0.3799999999999999  1.0000
  C   C22       1.0  0.9274700000000002  0.11206999999999999  0.31791999999999987  1.0000
  C   C23       1.0  0.037340000000000054  0.5607000000000001  0.40082999999999996  1.0000
  C   C24       1.0  0.0007900000000000264  0.6288300000000002  0.3742799999999999  1.0000
  C   C25       1.0  0.053030000000000056  0.72058  0.40681  1.0000
  C   C26       1.0  0.14311000000000004  0.7457400000000002  0.46672999999999987  1.0000
  C   C27       1.0  0.18028000000000002  0.67779  0.4919599999999999  1.0000
  C   C28       1.0  0.1280600000000001  0.5865600000000002  0.4600199999999999  1.0000
  C   C29       1.0  0.9753200000000002  0.46405000000000013  0.36758999999999986  1.0000
  C   C30       1.0  0.7797100000000002  0.10507  0.20994999999999994  1.0000
  C   C31       1.0  0.07842  0.11136000000000003  0.41876  1.0000
  C   C32       1.0  0.19916000000000006  0.8442400000000002  0.50837  1.0000
  C   C33       1.0  0.49399999999999994  0.32976999999999995  0.3542499999999999  1.0000
  C   C34       1.0  0.65446  0.29605  0.30687  1.0000
  C   C35       1.0  0.51635  0.17154000000000005  0.30104  1.0000
  C   C36       1.0  0.4086400000000001  0.13714000000000007  0.30354  1.0000
  C   C37       1.0  0.20372  0.16836000000000004  0.9335899999999998  1.0000
  C   C38       1.0  0.23765  0.26225000000000004  0.9453699999999999  1.0000
  C   C39       1.0  0.32746  0.3107400000000001  0.00269  1.0000
  C   C40       1.0  0.38423  0.2637000000000001  0.04330999999999999  1.0000
  C   C41       1.0  0.35299  0.16925  0.02711  1.0000
  C   C42       1.0  0.26067  0.12136000000000007  0.97404  1.0000
  C   C43       1.0  0.37749  0.56687  0.040649999999999985  1.0000
  C   C44       1.0  0.35739000000000015  0.6320300000000002  0.99974  1.0000
  C   C45       1.0  0.4032100000000001  0.72484  0.039719999999999984  1.0000
  C   C46       1.0  0.47021000000000013  0.7541500000000002  0.12138999999999997  1.0000
  C   C47       1.0  0.4898800000000001  0.6896  0.16278  1.0000
  C   C48       1.0  0.4437700000000002  0.5969  0.12294  1.0000
  C   C49       1.0  0.32303  0.4686600000000001  0.9957599999999998  1.0000
  C   C50       1.0  0.10653  0.12086999999999996  0.8741699999999998  1.0000
  C   C51       1.0  0.4242500000000001  0.12094000000000002  0.06052999999999999  1.0000
  C   C52       1.0  0.52115  0.8540100000000002  0.16444999999999996  1.0000
  C   C53       1.0  0.53829  0.16985000000000003  0.6013299999999999  1.0000
  C   C54       1.0  0.57319  0.26418999999999987  0.6165199999999997  1.0000
  C   C55       1.0  0.66721  0.30896  0.6677499999999998  1.0000
  C   C56       1.0  0.72606  0.25903  0.7019499999999999  1.0000
  C   C57       1.0  0.69316  0.16419000000000006  0.68264  1.0000
  C   C58       1.0  0.59884  0.11922  0.6323199999999999  1.0000
  C   C59       1.0  0.7300100000000003  0.5630400000000002  0.69604  1.0000
  C   C60       1.0  0.7282600000000002  0.6248700000000003  0.64654  1.0000
  C   C61       1.0  0.7706700000000002  0.7182800000000003  0.68765  1.0000
  C   C62       1.0  0.81777  0.7512100000000003  0.77851  1.0000
  C   C63       1.0  0.8212100000000001  0.6895500000000002  0.82762  1.0000
  C   C64       1.0  0.7765700000000001  0.5965500000000002  0.78728  1.0000
  C   C65       1.0  0.6774700000000002  0.46460000000000007  0.6493799999999997  1.0000
  C   C66       1.0  0.43417999999999995  0.12607999999999991  0.5544599999999997  1.0000
  C   C67       1.0  0.76204  0.11229999999999993  0.7131599999999998  1.0000
  C   C68       1.0  0.8644200000000002  0.8517600000000001  0.8237099999999998  1.0000
  C   C69       1.0  0.12668000000000013  0.8419600000000005  0.72633  1.0000
  C   C70       1.0  0.09498000000000002  0.7470100000000001  0.70969  1.0000
  C   C71       1.0  0.011140000000000014  0.6972800000000002  0.64456  1.0000
  C   C72       1.0  0.95816  0.7433100000000001  0.5989299999999999  1.0000
  C   C73       1.0  0.9865000000000004  0.8388399999999999  0.6199999999999998  1.0000
  C   C74       1.0  0.07252000000000004  0.88793  0.68208  1.0000
  C   C75       1.0  0.9626500000000002  0.4393  0.5991699999999998  1.0000
  C   C76       1.0  0.9992100000000002  0.37117  0.6257199999999998  1.0000
  C   C77       1.0  0.9469600000000002  0.27942  0.59319  1.0000
  C   C78       1.0  0.85689  0.25426  0.53326  1.0000
  C   C79       1.0  0.8197199999999999  0.32221  0.50803  1.0000
  C   C80       1.0  0.87194  0.41344  0.53998  1.0000
  C   C81       1.0  0.024679999999999987  0.53595  0.6324  1.0000
  C   C82       1.0  0.22028000000000003  0.89493  0.7900399999999997  1.0000
  C   C83       1.0  0.9215800000000001  0.88864  0.5812299999999998  1.0000
  C   C84       1.0  0.80083  0.15575999999999998  0.4916299999999999  1.0000
  C   C85       1.0  0.50599  0.6702299999999999  0.6457499999999998  1.0000
  C   C86       1.0  0.34552999999999995  0.7039500000000001  0.6931199999999997  1.0000
  C   C87       1.0  0.48365  0.82846  0.69896  1.0000
  C   C88       1.0  0.5913500000000002  0.8628600000000004  0.69646  1.0000
  C   C89       1.0  0.7962700000000005  0.8316400000000003  0.0664  1.0000
  C   C90       1.0  0.7623399999999999  0.73775  0.05463  1.0000
  C   C91       1.0  0.67253  0.6892600000000001  0.99731  1.0000
  C   C92       1.0  0.61576  0.7363000000000002  0.9566799999999998  1.0000
  C   C93       1.0  0.647  0.83075  0.9728799999999997  1.0000
  C   C94       1.0  0.7393300000000003  0.87864  0.02595  1.0000
  C   C95       1.0  0.6225  0.43312000000000006  0.9593499999999998  1.0000
  C   C96       1.0  0.6426  0.36797  0.00026  1.0000
  C   C97       1.0  0.59679  0.27515999999999996  0.9602799999999998  1.0000
  C   C98       1.0  0.52979  0.24584999999999999  0.8786099999999998  1.0000
  C   C99       1.0  0.5101100000000002  0.31040000000000006  0.8372199999999997  1.0000
  C   C100      1.0  0.55622  0.4030999999999999  0.8770599999999997  1.0000
  C   C101      1.0  0.6769700000000002  0.5313400000000003  0.004239999999999999  1.0000
  C   C102      1.0  0.89346  0.87913  0.12582999999999997  1.0000
  C   C103      1.0  0.57575  0.8790600000000002  0.9394599999999997  1.0000
  C   C104      1.0  0.47883999999999993  0.14599  0.8355399999999998  1.0000
  N   N1        1.0  0.29478000000000004  0.5958500000000002  0.30938999999999994  1.0000
  N   N2        1.0  0.02640000000000001  0.39781000000000005  0.3749499999999999  1.0000
  N   N3        1.0  0.5547600000000001  0.26203  0.3249899999999999  1.0000
  N   N4        1.0  0.36536000000000013  0.4055200000000001  0.022999999999999993  1.0000
  N   N5        1.0  0.70522  0.40415000000000006  0.69061  1.0000
  N   N6        1.0  0.9735900000000002  0.6021899999999999  0.6250499999999998  1.0000
  N   N7        1.0  0.44523  0.73797  0.6750099999999998  1.0000
  N   N8        1.0  0.63463  0.59448  0.977  1.0000
  O   O1        1.0  0.61484  0.8314600000000002  0.4843099999999999  1.0000
  O   O2        1.0  0.6057900000000002  0.95661  0.44621  1.0000
  O   O3        1.0  0.16438000000000005  0.8439100000000003  0.22425  1.0000
  O   O4        1.0  0.25314000000000003  0.9752000000000002  0.32533  1.0000
  O   O5        1.0  0.07998  0.12948  0.09964999999999997  1.0000
  O   O6        1.0  0.15647000000000003  0.09259000000000002  0.21607  1.0000
  O   O7        1.0  0.38594  0.55868  0.4194799999999999  1.0000
  O   O8        1.0  0.74317  0.13877000000000006  0.15296  1.0000
  O   O9        1.0  0.7376000000000003  0.026760000000000003  0.2163  1.0000
  O   O10       1.0  0.14805  0.15606  0.4849299999999999  1.0000
  O   O11       1.0  0.06626000000000001  0.023660000000000028  0.38148  1.0000
  O   O12       1.0  0.27950000000000014  0.8574300000000002  0.56256  1.0000
  O   O13       1.0  0.16178  0.90577  0.4882899999999999  1.0000
  O   O14       1.0  0.8854399999999999  0.4461299999999999  0.3374299999999999  1.0000
  O   O15       1.0  0.57143  0.11412999999999995  0.27350999999999986  1.0000
  O   O16       1.0  0.07566000000000003  0.15166  0.8133  1.0000
  O   O17       1.0  0.05250999999999998  0.04708999999999997  0.8839599999999997  1.0000
  O   O18       1.0  0.5047400000000001  0.16889999999999997  0.11221999999999997  1.0000
  O   O19       1.0  0.4047000000000001  0.03241  0.03436  1.0000
  O   O20       1.0  0.50447  0.90886  0.12213999999999997  1.0000
  O   O21       1.0  0.5765  0.87417  0.24148999999999998  1.0000
  O   O22       1.0  0.24606000000000006  0.44671999999999995  0.9401299999999998  1.0000
  O   O23       1.0  0.38516  0.16853999999999997  0.5156799999999999  1.0000
  O   O24       1.0  0.3942100000000001  0.043389999999999984  0.55378  1.0000
  O   O25       1.0  0.8356200000000001  0.15608999999999995  0.7757399999999998  1.0000
  O   O26       1.0  0.74686  0.024800000000000013  0.67467  1.0000
  O   O27       1.0  0.9200100000000004  0.8705200000000002  0.90035  1.0000
  O   O28       1.0  0.8435300000000001  0.9074100000000002  0.7839199999999997  1.0000
  O   O29       1.0  0.6140499999999998  0.44132  0.5805199999999998  1.0000
  O   O30       1.0  0.25682000000000005  0.8612300000000002  0.84704  1.0000
  O   O31       1.0  0.26239000000000007  0.97324  0.7836999999999997  1.0000
  O   O32       1.0  0.8519500000000001  0.8439400000000001  0.5150599999999999  1.0000
  O   O33       1.0  0.9337400000000002  0.9763400000000002  0.61851  1.0000
  O   O34       1.0  0.7204900000000002  0.14257000000000003  0.4374399999999999  1.0000
  O   O35       1.0  0.8382200000000001  0.09423000000000002  0.5117  1.0000
  O   O36       1.0  0.11455  0.55387  0.6625699999999999  1.0000
  O   O37       1.0  0.4285700000000002  0.8858700000000003  0.7264899999999999  1.0000
  O   O38       1.0  0.9243400000000002  0.8483400000000002  0.18669999999999998  1.0000
  O   O39       1.0  0.9474800000000002  0.9529100000000001  0.11603  1.0000
  O   O40       1.0  0.49526000000000003  0.8311  0.8877799999999998  1.0000
  O   O41       1.0  0.5953  0.9675900000000002  0.9656399999999998  1.0000
  O   O42       1.0  0.49552  0.09113000000000003  0.8778499999999999  1.0000
  O   O43       1.0  0.4235000000000001  0.12583  0.75851  1.0000
  O   O44       1.0  0.7539300000000001  0.5532800000000002  0.05986999999999999  1.0000
