data_image0
_chemical_formula_structural       Cu6H84C120N24O24
_chemical_formula_sum              "Cu6 H84 C120 N24 O24"
_cell_length_a       13.15036
_cell_length_b       13.51621
_cell_length_c       21.09676
_cell_angle_alpha    89.95574000000002
_cell_angle_beta     107.64626
_cell_angle_gamma    90.18035

_symmetry_space_group_name_H-M    'P 1'
_symmetry_Int_Tables_number       1

loop_
  _symmetry_equiv_pos_as_xyz
  'x,y,z'

loop_
  _atom_site_type_symbol
  _atom_site_label
  _atom_site_symmetry_multiplicity
  _atom_site_fract_x
  _atom_site_fract_y
  _atom_site_fract_z
  _atom_site_occupancy
  Cu  Cu1       1.0  0.70682  0.51379  0.49336  1.0000
  Cu  Cu2       1.0  0.29274  0.01371  0.00535  1.0000
  Cu  Cu3       1.0  0.29317  0.48621  0.50665  1.0000
  Cu  Cu4       1.0  0.7072299999999998  0.98627  0.9946400000000001  1.0000
  Cu  Cu5       1.0  0.49998999999999993  0.50002  0.0  1.0000
  Cu  Cu6       1.0  0.5  0.0  0.50001  1.0000
  H   H1        1.0  0.73818  0.3925  0.30425  1.0000
  H   H2        1.0  0.6692799999999998  0.31109  0.1951  1.0000
  H   H3        1.0  0.4574  0.13477  0.27005  1.0000
  H   H4        1.0  0.5299400000000001  0.21547999999999995  0.38053  1.0000
  H   H5        1.0  0.37766  0.07213  0.15959  1.0000
  H   H6        1.0  0.48822  0.15997999999999998  0.99991  1.0000
  H   H7        1.0  0.8184299999999999  0.72811  0.71577  1.0000
  H   H8        1.0  0.8056799999999997  0.71024  0.8307599999999999  1.0000
  H   H9        1.0  0.52612  0.52777  0.75457  1.0000
  H   H10       1.0  0.55037  0.53382  0.64275  1.0000
  H   H11       1.0  0.67853  0.67569  0.02042  1.0000
  H   H12       1.0  0.5466500000000001  0.47557  0.8625700000000001  1.0000
  H   H13       1.0  0.6814999999999998  0.61398  0.19864  1.0000
  H   H14       1.0  0.8132599999999999  0.63445  0.30938  1.0000
  H   H15       1.0  0.98122  0.37624  0.27476  1.0000
  H   H16       1.0  0.8433299999999999  0.35329  0.16515  1.0000
  H   H17       1.0  0.13273  0.4397  0.35969  1.0000
  H   H18       1.0  0.08407999999999999  0.60653  0.51648  1.0000
  H   H19       1.0  0.59233  0.25991  0.09963000000000001  1.0000
  H   H20       1.0  0.7291  0.7352099999999998  0.9205100000000002  1.0000
  H   H21       1.0  0.9068799999999998  0.6007  0.42167  1.0000
  H   H22       1.0  0.26157  0.8924499999999997  0.19455  1.0000
  H   H23       1.0  0.33092  0.81159  0.3039  1.0000
  H   H24       1.0  0.54154  0.6356199999999997  0.22858  1.0000
  H   H25       1.0  0.46851999999999994  0.71588  0.11797000000000002  1.0000
  H   H26       1.0  0.6218899999999999  0.57382  0.33873  1.0000
  H   H27       1.0  0.51193  0.65948  0.49893  1.0000
  H   H28       1.0  0.18197999999999995  0.22886999999999993  0.78326  1.0000
  H   H29       1.0  0.19445999999999997  0.21097  0.66819  1.0000
  H   H30       1.0  0.47282  0.02803  0.74436  1.0000
  H   H31       1.0  0.44883999999999996  0.03468  0.8563100000000001  1.0000
  H   H32       1.0  0.32197  0.17498  0.47864999999999996  1.0000
  H   H33       1.0  0.45277999999999996  0.9763399999999999  0.63737  1.0000
  H   H34       1.0  0.3198  0.11452  0.3018  1.0000
  H   H35       1.0  0.18833  0.13498  0.19068  1.0000
  H   H36       1.0  0.019539999999999995  0.87592  0.22511  1.0000
  H   H37       1.0  0.15714999999999998  0.8534699999999998  0.33496  1.0000
  H   H38       1.0  0.8687  0.9395099999999997  0.14107  1.0000
  H   H39       1.0  0.9166199999999999  0.10661999999999998  0.9838499999999999  1.0000
  H   H40       1.0  0.4077199999999999  0.7594999999999998  0.39949999999999997  1.0000
  H   H41       1.0  0.27098  0.23511  0.57804  1.0000
  H   H42       1.0  0.09428999999999998  0.10091  0.07822  1.0000
  H   H43       1.0  0.2618099999999999  0.60751  0.69575  1.0000
  H   H44       1.0  0.33071  0.68893  0.8049  1.0000
  H   H45       1.0  0.5425999999999999  0.8652399999999999  0.72995  1.0000
  H   H46       1.0  0.4700699999999999  0.78452  0.61948  1.0000
  H   H47       1.0  0.6223  0.9279299999999999  0.84044  1.0000
  H   H48       1.0  0.51172  0.84003  9e-05  1.0000
  H   H49       1.0  0.18156  0.2719  0.28424  1.0000
  H   H50       1.0  0.19433  0.28976999999999997  0.16925  1.0000
  H   H51       1.0  0.47388  0.47224  0.24545  1.0000
  H   H52       1.0  0.44963  0.4661699999999999  0.35727  1.0000
  H   H53       1.0  0.32145  0.32437  0.97958  1.0000
  H   H54       1.0  0.4533599999999999  0.52445  0.13745  1.0000
  H   H55       1.0  0.31847  0.38599  0.8013499999999999  1.0000
  H   H56       1.0  0.18670999999999993  0.36554999999999993  0.69061  1.0000
  H   H57       1.0  0.01880000000000001  0.62378  0.72525  1.0000
  H   H58       1.0  0.15669  0.64669  0.8348700000000001  1.0000
  H   H59       1.0  0.86725  0.5603  0.64031  1.0000
  H   H60       1.0  0.9159199999999997  0.3934699999999999  0.48352  1.0000
  H   H61       1.0  0.40762999999999994  0.7400899999999998  0.90037  1.0000
  H   H62       1.0  0.27088  0.26484  0.07949  1.0000
  H   H63       1.0  0.09311999999999997  0.39931999999999995  0.57833  1.0000
  H   H64       1.0  0.7383799999999999  0.10754999999999998  0.8054699999999999  1.0000
  H   H65       1.0  0.6690699999999999  0.18844  0.69611  1.0000
  H   H66       1.0  0.45845  0.36444  0.7714  1.0000
  H   H67       1.0  0.53135  0.28415  0.88201  1.0000
  H   H68       1.0  0.37809999999999994  0.42615  0.66128  1.0000
  H   H69       1.0  0.4880599999999999  0.34052  0.50108  1.0000
  H   H70       1.0  0.818  0.7713099999999998  0.21668  1.0000
  H   H71       1.0  0.8054800000000001  0.78904  0.33176  1.0000
  H   H72       1.0  0.52704  0.97184  0.25565  1.0000
  H   H73       1.0  0.55105  0.9653999999999998  0.14372  1.0000
  H   H74       1.0  0.67807  0.8250099999999999  0.52138  1.0000
  H   H75       1.0  0.54724  0.02366  0.36266  1.0000
  H   H76       1.0  0.68022  0.8854399999999999  0.69821  1.0000
  H   H77       1.0  0.8116499999999998  0.8650299999999997  0.80935  1.0000
  H   H78       1.0  0.9804299999999998  0.12409999999999997  0.77492  1.0000
  H   H79       1.0  0.84285  0.1465  0.66505  1.0000
  H   H80       1.0  0.13122999999999999  0.06063  0.8590100000000002  1.0000
  H   H81       1.0  0.08335  0.8933999999999999  0.01618  1.0000
  H   H82       1.0  0.59228  0.24049999999999996  0.60052  1.0000
  H   H83       1.0  0.72903  0.7648699999999999  0.42199  1.0000
  H   H84       1.0  0.9056799999999998  0.8990599999999997  0.9217800000000002  1.0000
  C   C1        1.0  0.6775599999999998  0.33524  0.29671  1.0000
  C   C2        1.0  0.63787  0.28968  0.2351  1.0000
  C   C3        1.0  0.55581  0.21899999999999994  0.22379  1.0000
  C   C4        1.0  0.51976  0.19054  0.27769  1.0000
  C   C5        1.0  0.56017  0.23535  0.33954  1.0000
  C   C6        1.0  0.6373999999999999  0.31064  0.34908  1.0000
  C   C7        1.0  0.6669  0.37098  0.41097  1.0000
  C   C8        1.0  0.50731  0.17892999999999998  0.15754  1.0000
  C   C9        1.0  0.42387  0.11262  0.13353  1.0000
  C   C10       1.0  0.47724  0.15543999999999997  0.04867  1.0000
  C   C11       1.0  0.7557599999999998  0.68307  0.72513  1.0000
  C   C12       1.0  0.74654  0.6749  0.78921  1.0000
  C   C13       1.0  0.66417  0.61838  0.80108  1.0000
  C   C14       1.0  0.59248  0.56891  0.74695  1.0000
  C   C15       1.0  0.6044799999999999  0.57363  0.68404  1.0000
  C   C16       1.0  0.68557  0.63129  0.67207  1.0000
  C   C17       1.0  0.70057  0.6309  0.60417  1.0000
  C   C18       1.0  0.64929  0.60789  0.86633  1.0000
  C   C19       1.0  0.65791  0.6386499999999999  0.9724800000000001  1.0000
  C   C20       1.0  0.59051  0.53865  0.88849  1.0000
  C   C21       1.0  0.7456699999999998  0.56066  0.21623  1.0000
  C   C22       1.0  0.82105  0.57245  0.27842  1.0000
  C   C23       1.0  0.90717  0.50672  0.30066  1.0000
  C   C24       1.0  0.9154999999999999  0.4283  0.25842  1.0000
  C   C25       1.0  0.8387099999999998  0.41528  0.19704  1.0000
  C   C26       1.0  0.7522799999999997  0.48068  0.17543  1.0000
  C   C27       1.0  0.66621  0.46117999999999987  0.11124  1.0000
  C   C28       1.0  0.9884399999999999  0.51893  0.36475  1.0000
  C   C29       1.0  0.09177999999999996  0.48427  0.38657  1.0000
  C   C30       1.0  0.0701  0.57115  0.46858  1.0000
  C   C31       1.0  0.32209999999999994  0.83542  0.20217  1.0000
  C   C32       1.0  0.36195  0.79012  0.26382  1.0000
  C   C33       1.0  0.4438199999999999  0.71971  0.27506  1.0000
  C   C34       1.0  0.47939999999999994  0.6911899999999997  0.22107000000000002  1.0000
  C   C35       1.0  0.4388799999999999  0.7356999999999998  0.15917  1.0000
  C   C36       1.0  0.36198  0.81085  0.14976  1.0000
  C   C37       1.0  0.33231999999999995  0.87108  0.08785  1.0000
  C   C38       1.0  0.4925999999999999  0.67977  0.34128  1.0000
  C   C39       1.0  0.57588  0.61372  0.36507  1.0000
  C   C40       1.0  0.5226900000000001  0.6554  0.45010000000000006  1.0000
  C   C41       1.0  0.24429  0.18388  0.77376  1.0000
  C   C42       1.0  0.2535599999999999  0.17573999999999995  0.70969  1.0000
  C   C43       1.0  0.33554  0.11905  0.69794  1.0000
  C   C44       1.0  0.40696  0.06956  0.75207  1.0000
  C   C45       1.0  0.39494  0.07438999999999998  0.81495  1.0000
  C   C46       1.0  0.31409  0.1321  0.82678  1.0000
  C   C47       1.0  0.2988999999999999  0.13133  0.89462  1.0000
  C   C48       1.0  0.3502899999999999  0.10833  0.63277  1.0000
  C   C49       1.0  0.34236  0.13829  0.52668  1.0000
  C   C50       1.0  0.40916  0.03909999999999999  0.61109  1.0000
  C   C51       1.0  0.25533  0.06129  0.28385  1.0000
  C   C52       1.0  0.18032999999999993  0.07284  0.22159  1.0000
  C   C53       1.0  0.09411999999999997  0.006769999999999998  0.1994  1.0000
  C   C54       1.0  0.08543999999999999  0.9281699999999999  0.24156  1.0000
  C   C55       1.0  0.16196  0.91549  0.30306  1.0000
  C   C56       1.0  0.24822  0.9815099999999998  0.32474  1.0000
  C   C57       1.0  0.33423  0.9637  0.38914  1.0000
  C   C58       1.0  0.012879999999999999  0.01896  0.13542  1.0000
  C   C59       1.0  0.9093999999999998  0.9842  0.11394000000000001  1.0000
  C   C60       1.0  0.93074  0.0712  0.03176  1.0000
  C   C61       1.0  0.32243  0.6647699999999999  0.70329  1.0000
  C   C62       1.0  0.36212  0.7103299999999999  0.7649  1.0000
  C   C63       1.0  0.44418  0.7810199999999998  0.77621  1.0000
  C   C64       1.0  0.48024000000000006  0.8094699999999998  0.72231  1.0000
  C   C65       1.0  0.43984000000000006  0.7646599999999998  0.66046  1.0000
  C   C66       1.0  0.36259999999999987  0.6893699999999998  0.65093  1.0000
  C   C67       1.0  0.33309  0.62903  0.58903  1.0000
  C   C68       1.0  0.4926599999999999  0.82109  0.84246  1.0000
  C   C69       1.0  0.57608  0.88741  0.8664699999999999  1.0000
  C   C70       1.0  0.5227  0.84457  0.95133  1.0000
  C   C71       1.0  0.24423999999999996  0.31693  0.27488  1.0000
  C   C72       1.0  0.25346  0.3251099999999999  0.2108  1.0000
  C   C73       1.0  0.33583  0.38163  0.19893  1.0000
  C   C74       1.0  0.4075199999999999  0.4310899999999999  0.25307  1.0000
  C   C75       1.0  0.3955299999999999  0.4263599999999999  0.31597  1.0000
  C   C76       1.0  0.31443  0.3687  0.32794  1.0000
  C   C77       1.0  0.2994299999999999  0.3691  0.39584  1.0000
  C   C78       1.0  0.35070999999999997  0.39214  0.13368  1.0000
  C   C79       1.0  0.34208  0.3614  0.027520000000000003  1.0000
  C   C80       1.0  0.4094899999999999  0.46138  0.11152000000000001  1.0000
  C   C81       1.0  0.2543099999999999  0.43933  0.78376  1.0000
  C   C82       1.0  0.17893  0.42756  0.72157  1.0000
  C   C83       1.0  0.09283000000000001  0.4932999999999999  0.69933  1.0000
  C   C84       1.0  0.08450999999999995  0.57171  0.74158  1.0000
  C   C85       1.0  0.16128999999999993  0.58471  0.80296  1.0000
  C   C86       1.0  0.24769999999999995  0.5193  0.82457  1.0000
  C   C87       1.0  0.33374999999999994  0.53881  0.88876  1.0000
  C   C88       1.0  0.011549999999999982  0.48108  0.63525  1.0000
  C   C89       1.0  0.90821  0.51574  0.61343  1.0000
  C   C90       1.0  0.9298999999999998  0.42886  0.53142  1.0000
  C   C91       1.0  0.67785  0.16459  0.7978500000000001  1.0000
  C   C92       1.0  0.63804  0.2099  0.7362  1.0000
  C   C93       1.0  0.55618  0.28031  0.72494  1.0000
  C   C94       1.0  0.52057  0.3088399999999999  0.77892  1.0000
  C   C95       1.0  0.56104  0.26432  0.84082  1.0000
  C   C96       1.0  0.6379200000000002  0.18915  0.8502400000000001  1.0000
  C   C97       1.0  0.6676799999999998  0.12895  0.9121799999999999  1.0000
  C   C98       1.0  0.5073999999999997  0.3202399999999999  0.65872  1.0000
  C   C99       1.0  0.42410999999999993  0.38626999999999995  0.63494  1.0000
  C   C100      1.0  0.4773  0.3446  0.54991  1.0000
  C   C101      1.0  0.7556699999999997  0.81624  0.22623  1.0000
  C   C102      1.0  0.74643  0.8243399999999997  0.29029  1.0000
  C   C103      1.0  0.6644199999999998  0.88097  0.30206  1.0000
  C   C104      1.0  0.59297  0.93045  0.24795  1.0000
  C   C105      1.0  0.60496  0.9256799999999998  0.18506  1.0000
  C   C106      1.0  0.6858  0.86796  0.17322  1.0000
  C   C107      1.0  0.7009799999999998  0.86866  0.10541  1.0000
  C   C108      1.0  0.64966  0.8916399999999998  0.36724  1.0000
  C   C109      1.0  0.65766  0.8616999999999998  0.47334  1.0000
  C   C110      1.0  0.5908299999999997  0.96088  0.38894  1.0000
  C   C111      1.0  0.74467  0.9386999999999999  0.71616  1.0000
  C   C112      1.0  0.81965  0.92716  0.77844  1.0000
  C   C113      1.0  0.90585  0.9932599999999998  0.80063  1.0000
  C   C114      1.0  0.91453  0.07184  0.75847  1.0000
  C   C115      1.0  0.8380299999999998  0.08449999999999999  0.69696  1.0000
  C   C116      1.0  0.7517899999999997  0.01847  0.67527  1.0000
  C   C117      1.0  0.66579  0.03629  0.61087  1.0000
  C   C118      1.0  0.98707  0.98108  0.86461  1.0000
  C   C119      1.0  0.09053  0.01589  0.88611  1.0000
  C   C120      1.0  0.06919999999999993  0.92883  0.9682699999999999  1.0000
  N   N1        1.0  0.14117  0.51653  0.45064  1.0000
  N   N2        1.0  0.5961299999999999  0.55873  0.9535100000000001  1.0000
  N   N3        1.0  0.4061499999999999  0.09883999999999998  0.06608  1.0000
  N   N4        1.0  0.53895  0.20464  0.10242000000000001  1.0000
  N   N5        1.0  0.692  0.66944  0.9209600000000001  1.0000
  N   N6        1.0  0.9771  0.57486  0.4177  1.0000
  N   N7        1.0  0.8596699999999999  0.01649  0.04998  1.0000
  N   N8        1.0  0.40396  0.058689999999999985  0.54608  1.0000
  N   N9        1.0  0.59361  0.59931  0.43249  1.0000
  N   N10       1.0  0.4610999999999999  0.70488  0.39652  1.0000
  N   N11       1.0  0.30792  0.16939999999999994  0.57793  1.0000
  N   N12       1.0  0.024089999999999997  0.07498  0.08241  1.0000
  N   N13       1.0  0.85882  0.4834599999999999  0.54936  1.0000
  N   N14       1.0  0.40385999999999994  0.44131  0.0465  1.0000
  N   N15       1.0  0.59378  0.90118  0.93393  1.0000
  N   N16       1.0  0.4610099999999999  0.7953599999999998  0.8975800000000002  1.0000
  N   N17       1.0  0.30798999999999993  0.3305999999999999  0.07905  1.0000
  N   N18       1.0  0.022899999999999934  0.42516  0.5823  1.0000
  N   N19       1.0  0.14025  0.9835899999999997  0.95006  1.0000
  N   N20       1.0  0.59606  0.9412999999999998  0.4539500000000001  1.0000
  N   N21       1.0  0.40637  0.40067  0.56752  1.0000
  N   N22       1.0  0.5389  0.29513  0.60349  1.0000
  N   N23       1.0  0.6920599999999999  0.83058  0.42208  1.0000
  N   N24       1.0  0.97587  0.92503  0.91761  1.0000
  O   O1        1.0  0.73252  0.44522  0.4141000000000001  1.0000
  O   O2        1.0  0.62553  0.3554  0.45664000000000005  1.0000
  O   O3        1.0  0.66552  0.5498  0.57134  1.0000
  O   O4        1.0  0.7471799999999998  0.70007  0.58474  1.0000
  O   O5        1.0  0.6057899999999999  0.53595  0.08639  1.0000
  O   O6        1.0  0.6559299999999999  0.37589  0.08593  1.0000
  O   O7        1.0  0.26725999999999994  0.94524  0.08493  1.0000
  O   O8        1.0  0.37335  0.8554799999999999  0.04204  1.0000
  O   O9        1.0  0.33383  0.05005999999999999  0.92714  1.0000
  O   O10       1.0  0.25234  0.20014  0.9141  1.0000
  O   O11       1.0  0.3947799999999999  0.03917  0.41300999999999993  1.0000
  O   O12       1.0  0.34459  0.8792  0.41554  1.0000
  O   O13       1.0  0.26748  0.55479  0.58591  1.0000
  O   O14       1.0  0.37446  0.64461  0.54336  1.0000
  O   O15       1.0  0.33448  0.45021  0.42867  1.0000
  O   O16       1.0  0.25283  0.29994  0.41528  1.0000
  O   O17       1.0  0.3942099999999999  0.46406  0.9136099999999999  1.0000
  O   O18       1.0  0.3439900000000001  0.6240999999999998  0.9140800000000001  1.0000
  O   O19       1.0  0.7327  0.05477  0.91505  1.0000
  O   O20       1.0  0.6266599999999999  0.14455  0.95799  1.0000
  O   O21       1.0  0.6661099999999998  0.94988  0.0728  1.0000
  O   O22       1.0  0.74757  0.79987  0.08592  1.0000
  O   O23       1.0  0.60522  0.96083  0.587  1.0000
  O   O24       1.0  0.65545  0.12079  0.58447  1.0000
