data_image0
_chemical_formula_structural       Cu4H104C128N16O40
_chemical_formula_sum              "Cu4 H104 C128 N16 O40"
_cell_length_a       15.49257
_cell_length_b       16.633879999999998
_cell_length_c       17.772930000000002
_cell_angle_alpha    117.96378999999999
_cell_angle_beta     115.79202999999998
_cell_angle_gamma    89.9876

_space_group_name_H-M_alt    "P 1"
_space_group_IT_number       1

loop_
  _space_group_symop_operation_xyz
  'x, y, z'

loop_
  _atom_site_type_symbol
  _atom_site_label
  _atom_site_symmetry_multiplicity
  _atom_site_fract_x
  _atom_site_fract_y
  _atom_site_fract_z
  _atom_site_occupancy
  Cu  Cu1       1.0  0.0  0.0  0.50001  1.0000
  Cu  Cu2       1.0  0.4999999999999999  0.0  0.5  1.0000
  Cu  Cu3       1.0  0.4999999999999999  0.5  0.5  1.0000
  Cu  Cu4       1.0  9.999999999993296e-06  0.5  0.5  1.0000
  H   H1        1.0  0.88707  0.80649  0.41841000000000006  1.0000
  H   H2        1.0  0.90938  0.6444100000000003  0.35264000000000006  1.0000
  H   H3        1.0  0.19087000000000004  0.7573800000000002  0.3987100000000001  1.0000
  H   H4        1.0  0.15901000000000004  0.9159  0.4652  1.0000
  H   H5        1.0  0.016610000000000055  0.5403000000000001  0.3215200000000001  1.0000
  H   H6        1.0  0.14325  0.58897  0.36689  1.0000
  H   H7        1.0  0.8156800000000001  0.44129000000000007  0.9339600000000001  1.0000
  H   H8        1.0  0.24482999999999994  0.18825  0.7998  1.0000
  H   H9        1.0  0.4007600000000001  0.24841000000000008  0.9584800000000002  1.0000
  H   H10       1.0  0.06151  0.0649  0.74182  1.0000
  H   H11       1.0  0.9437399999999998  0.09001  0.69745  1.0000
  H   H12       1.0  0.95943  0.0029299999999999903  0.73186  1.0000
  H   H13       1.0  0.8881099999999996  0.9428100000000001  0.55356  1.0000
  H   H14       1.0  0.53096  0.11165  0.41792  1.0000
  H   H15       1.0  0.44259999999999994  0.20768000000000006  0.3521700000000001  1.0000
  H   H16       1.0  0.20743  0.14015  0.3983  1.0000
  H   H17       1.0  0.30617000000000005  0.048480000000000044  0.46484000000000003  1.0000
  H   H18       1.0  0.30442  0.28071  0.3215800000000001  1.0000
  H   H19       1.0  0.22347  0.27774  0.36741  1.0000
  H   H20       1.0  0.11876000000000006  0.9927600000000002  0.9343600000000002  1.0000
  H   H21       1.0  0.55464  0.11173000000000001  0.80027  1.0000
  H   H22       1.0  0.5566399999999998  0.21055  0.95879  1.0000
  H   H23       1.0  0.6794099999999998  0.1772200000000001  0.7414300000000003  1.0000
  H   H24       1.0  0.75285  0.10772999999999998  0.69687  1.0000
  H   H25       1.0  0.77139  0.22921000000000005  0.73128  1.0000
  H   H26       1.0  0.66427  0.11103  0.55289  1.0000
  H   H27       1.0  0.11292999999999997  0.19351  0.58159  1.0000
  H   H28       1.0  0.09060999999999998  0.35559  0.64735  1.0000
  H   H29       1.0  0.80913  0.24263000000000004  0.60129  1.0000
  H   H30       1.0  0.8409899999999999  0.0841  0.5348  1.0000
  H   H31       1.0  0.9833900000000001  0.4597000000000001  0.6784800000000002  1.0000
  H   H32       1.0  0.8567500000000001  0.41104  0.63311  1.0000
  H   H33       1.0  0.18431999999999996  0.55871  0.06604  1.0000
  H   H34       1.0  0.7551699999999998  0.8117600000000003  0.20020000000000004  1.0000
  H   H35       1.0  0.5992399999999999  0.7516  0.041520000000000015  1.0000
  H   H36       1.0  0.93848  0.9351  0.25818  1.0000
  H   H37       1.0  0.05625999999999999  0.91  0.30255  1.0000
  H   H38       1.0  0.040569999999999974  0.99707  0.26814  1.0000
  H   H39       1.0  0.11188  0.05717999999999999  0.44644  1.0000
  H   H40       1.0  0.46904  0.88835  0.58208  1.0000
  H   H41       1.0  0.5573999999999998  0.7923200000000001  0.6478300000000001  1.0000
  H   H42       1.0  0.79256  0.85986  0.60169  1.0000
  H   H43       1.0  0.69382  0.95152  0.53515  1.0000
  H   H44       1.0  0.6955799999999998  0.7192900000000001  0.6784200000000002  1.0000
  H   H45       1.0  0.77653  0.72226  0.63259  1.0000
  H   H46       1.0  0.8812399999999998  0.007240000000000001  0.06564  1.0000
  H   H47       1.0  0.44534999999999986  0.88827  0.19973  1.0000
  H   H48       1.0  0.44335999999999987  0.78945  0.04121  1.0000
  H   H49       1.0  0.3205899999999999  0.8227900000000001  0.25857  1.0000
  H   H50       1.0  0.24714999999999995  0.89228  0.30313  1.0000
  H   H51       1.0  0.22859999999999997  0.77079  0.26872  1.0000
  H   H52       1.0  0.33572  0.8889700000000001  0.4471100000000001  1.0000
  H   H53       1.0  0.61306  0.38824  0.58183  1.0000
  H   H54       1.0  0.59047  0.29192000000000007  0.64739  1.0000
  H   H55       1.0  0.30912000000000006  0.3590700000000001  0.6012800000000003  1.0000
  H   H56       1.0  0.34133  0.45114  0.53502  1.0000
  H   H57       1.0  0.4830399999999999  0.21882000000000004  0.67807  1.0000
  H   H58       1.0  0.35642  0.22198  0.63265  1.0000
  H   H59       1.0  0.68428  0.50723  0.06604  1.0000
  H   H60       1.0  0.2556  0.38861  0.20052000000000003  1.0000
  H   H61       1.0  0.09956999999999998  0.28966  0.04174  1.0000
  H   H62       1.0  0.43851  0.32275  0.25807  1.0000
  H   H63       1.0  0.5562999999999998  0.39238  0.30257  1.0000
  H   H64       1.0  0.54061  0.27081  0.26774  1.0000
  H   H65       1.0  0.61176  0.3890600000000001  0.44645000000000007  1.0000
  H   H66       1.0  0.96857  0.69335  0.58158  1.0000
  H   H67       1.0  0.056639999999999885  0.85539  0.64751  1.0000
  H   H68       1.0  0.29215  0.7422700000000001  0.6014900000000002  1.0000
  H   H69       1.0  0.19382  0.58381  0.53495  1.0000
  H   H70       1.0  0.19483  0.95949  0.67866  1.0000
  H   H71       1.0  0.27614000000000005  0.91082  0.6332  1.0000
  H   H72       1.0  0.3818899999999999  0.05894  0.0664  1.0000
  H   H73       1.0  0.94593  0.3113  0.20032  1.0000
  H   H74       1.0  0.9435999999999999  0.25183  0.04166  1.0000
  H   H75       1.0  0.8199599999999998  0.43539  0.25811  1.0000
  H   H76       1.0  0.7465  0.41008999999999995  0.30237  1.0000
  H   H77       1.0  0.72716  0.49663999999999997  0.26728  1.0000
  H   H78       1.0  0.8339599999999999  0.55779  0.4461300000000001  1.0000
  H   H79       1.0  0.38694  0.61177  0.4181700000000001  1.0000
  H   H80       1.0  0.4095299999999999  0.70809  0.3526100000000001  1.0000
  H   H81       1.0  0.69088  0.64093  0.39872  1.0000
  H   H82       1.0  0.65867  0.54887  0.46497  1.0000
  H   H83       1.0  0.5169600000000001  0.7811800000000001  0.32193000000000005  1.0000
  H   H84       1.0  0.6435799999999998  0.77802  0.36735  1.0000
  H   H85       1.0  0.31572  0.49278000000000016  0.9339600000000001  1.0000
  H   H86       1.0  0.7444  0.6114  0.79948  1.0000
  H   H87       1.0  0.90043  0.7103500000000003  0.9582600000000002  1.0000
  H   H88       1.0  0.5614899999999998  0.67725  0.74193  1.0000
  H   H89       1.0  0.4436999999999998  0.60762  0.69743  1.0000
  H   H90       1.0  0.4593799999999999  0.72919  0.73226  1.0000
  H   H91       1.0  0.38824  0.61094  0.55355  1.0000
  H   H92       1.0  0.03144000000000004  0.3066500000000001  0.41843000000000014  1.0000
  H   H93       1.0  0.94336  0.14461000000000004  0.35249000000000014  1.0000
  H   H94       1.0  0.70785  0.25773  0.3985100000000001  1.0000
  H   H95       1.0  0.8061799999999998  0.41619  0.46506  1.0000
  H   H96       1.0  0.80516  0.040509999999999984  0.32134  1.0000
  H   H97       1.0  0.72386  0.08919000000000003  0.3668  1.0000
  H   H98       1.0  0.6181100000000002  0.94106  0.9336000000000002  1.0000
  H   H99       1.0  0.05407000000000003  0.68871  0.79968  1.0000
  H   H100      1.0  0.05639  0.74817  0.95834  1.0000
  H   H101      1.0  0.18004000000000012  0.56461  0.7418900000000003  1.0000
  H   H102      1.0  0.2534999999999999  0.58992  0.69763  1.0000
  H   H103      1.0  0.27284  0.50336  0.73271  1.0000
  H   H104      1.0  0.16603999999999994  0.4422100000000001  0.55386  1.0000
  C   C1        1.0  0.95299  0.79311  0.41224  1.0000
  C   C2        1.0  0.96566  0.7022200000000001  0.37485000000000007  1.0000
  C   C3        1.0  0.05146  0.68735  0.36831  1.0000
  C   C4        1.0  0.12204999999999998  0.7653700000000001  0.40081  1.0000
  C   C5        1.0  0.1044  0.85404  0.4375100000000001  1.0000
  C   C6        1.0  0.06662000000000003  0.58965  0.32462000000000013  1.0000
  C   C7        1.0  0.95163  0.51688  0.14307  1.0000
  C   C8        1.0  0.12062000000000003  0.57008  0.20317000000000005  1.0000
  C   C9        1.0  0.9655699999999998  0.50262  0.060010000000000015  1.0000
  C   C10       1.0  0.8945699999999998  0.4666800000000001  0.96231  1.0000
  C   C11       1.0  0.93269  0.46538  0.90373  1.0000
  C   C12       1.0  0.21751999999999996  0.08575  0.61751  1.0000
  C   C13       1.0  0.31195  0.11696000000000001  0.7117  1.0000
  C   C14       1.0  0.3131800000000001  0.17183000000000018  0.8009900000000002  1.0000
  C   C15       1.0  0.40067999999999987  0.2055  0.88971  1.0000
  C   C16       1.0  0.9810999999999999  0.03383000000000001  0.69782  1.0000
  C   C17       1.0  0.45895  0.11882000000000002  0.41193  1.0000
  C   C18       1.0  0.4087399999999999  0.17219  0.3746  1.0000
  C   C19       1.0  0.31648  0.18043  0.36828  1.0000
  C   C20       1.0  0.2784599999999999  0.13463  0.40058  1.0000
  C   C21       1.0  0.33296999999999993  0.08281000000000001  0.43723000000000006  1.0000
  C   C22       1.0  0.25765  0.23457  0.32492  1.0000
  C   C23       1.0  0.19121  0.12604  0.14347  1.0000
  C   C24       1.0  0.08196  0.13308  0.20332  1.0000
  C   C25       1.0  0.09443  0.05717000000000001  0.060260000000000015  1.0000
  C   C26       1.0  0.06800000000000009  0.9956400000000003  0.9625100000000002  1.0000
  C   C27       1.0  0.97126  0.93854  0.90364  1.0000
  C   C28       1.0  0.40033999999999986  0.03135999999999998  0.61801  1.0000
  C   C29       1.0  0.39954  0.09446000000000002  0.71195  1.0000
  C   C30       1.0  0.4873100000000001  0.12900000000000006  0.8013200000000001  1.0000
  C   C31       1.0  0.4881  0.18414  0.8899  1.0000
  C   C32       1.0  0.71578  0.16424000000000005  0.69733  1.0000
  C   C33       1.0  0.04700999999999996  0.20689000000000002  0.58777  1.0000
  C   C34       1.0  0.03434000000000014  0.2977800000000001  0.6251500000000002  1.0000
  C   C35       1.0  0.94853  0.31265  0.63169  1.0000
  C   C36       1.0  0.8779399999999996  0.23462999999999998  0.59919  1.0000
  C   C37       1.0  0.8955899999999998  0.14596999999999993  0.5625  1.0000
  C   C38       1.0  0.93337  0.41036  0.67538  1.0000
  C   C39       1.0  0.04836999999999993  0.48312  0.85693  1.0000
  C   C40       1.0  0.8793799999999999  0.42993000000000003  0.7968300000000001  1.0000
  C   C41       1.0  0.034429999999999954  0.49738  0.93999  1.0000
  C   C42       1.0  0.10542999999999995  0.53333  0.03768  1.0000
  C   C43       1.0  0.06729999999999997  0.5346200000000001  0.09626  1.0000
  C   C44       1.0  0.78248  0.91425  0.38249  1.0000
  C   C45       1.0  0.6880499999999999  0.88304  0.28830000000000006  1.0000
  C   C46       1.0  0.68682  0.82817  0.19902  1.0000
  C   C47       1.0  0.5993199999999997  0.7945100000000002  0.11029  1.0000
  C   C48       1.0  0.01890000000000005  0.9661800000000001  0.30218000000000006  1.0000
  C   C49       1.0  0.54105  0.8811900000000001  0.58807  1.0000
  C   C50       1.0  0.5912600000000001  0.82781  0.6253900000000001  1.0000
  C   C51       1.0  0.68352  0.81957  0.63172  1.0000
  C   C52       1.0  0.72154  0.86537  0.59942  1.0000
  C   C53       1.0  0.66703  0.91719  0.56277  1.0000
  C   C54       1.0  0.74235  0.76543  0.67508  1.0000
  C   C55       1.0  0.8087799999999998  0.87396  0.85653  1.0000
  C   C56       1.0  0.91804  0.8669300000000001  0.7966800000000002  1.0000
  C   C57       1.0  0.9055700000000001  0.94283  0.9397300000000002  1.0000
  C   C58       1.0  0.9319999999999998  0.004359999999999999  0.03748  1.0000
  C   C59       1.0  0.028739999999999995  0.061459999999999994  0.09636  1.0000
  C   C60       1.0  0.59965  0.96864  0.38199  1.0000
  C   C61       1.0  0.6004499999999998  0.90555  0.28805  1.0000
  C   C62       1.0  0.51269  0.87101  0.19868  1.0000
  C   C63       1.0  0.5119  0.8158700000000001  0.1101  1.0000
  C   C64       1.0  0.2842199999999999  0.83577  0.3026700000000001  1.0000
  C   C65       1.0  0.54706  0.38098  0.58785  1.0000
  C   C66       1.0  0.53424  0.32751  0.62513  1.0000
  C   C67       1.0  0.44834  0.31917  0.63151  1.0000
  C   C68       1.0  0.37792  0.36485  0.59915  1.0000
  C   C69       1.0  0.39573999999999987  0.4168  0.56258  1.0000
  C   C70       1.0  0.4329999999999999  0.26507  0.67498  1.0000
  C   C71       1.0  0.5478899999999998  0.37344  0.85656  1.0000
  C   C72       1.0  0.37899  0.3669  0.79676  1.0000
  C   C73       1.0  0.5343099999999997  0.44258  0.9398  1.0000
  C   C74       1.0  0.60538  0.5042  0.03756  1.0000
  C   C75       1.0  0.5673600000000001  0.56149  0.09630000000000002  1.0000
  C   C76       1.0  0.28273  0.46846  0.38237  1.0000
  C   C77       1.0  0.18826  0.40558  0.28838  1.0000
  C   C78       1.0  0.18706999999999993  0.37114  0.19915  1.0000
  C   C79       1.0  0.09949999999999999  0.31606  0.11049  1.0000
  C   C80       1.0  0.51893  0.33573  0.30205  1.0000
  C   C81       1.0  0.04067000000000003  0.70671  0.5878  1.0000
  C   C82       1.0  0.09072000000000005  0.7975600000000003  0.6252400000000001  1.0000
  C   C83       1.0  0.18308000000000005  0.8124100000000001  0.6318700000000003  1.0000
  C   C84       1.0  0.22122  0.73434  0.59935  1.0000
  C   C85       1.0  0.1669  0.64571  0.56263  1.0000
  C   C86       1.0  0.24178999999999995  0.91014  0.67554  1.0000
  C   C87       1.0  0.30857  0.9831100000000002  0.8573  1.0000
  C   C88       1.0  0.4171899999999999  0.92981  0.79666  1.0000
  C   C89       1.0  0.40564  0.9974100000000001  0.94017  1.0000
  C   C90       1.0  0.4324099999999999  0.03347000000000001  0.03795000000000001  1.0000
  C   C91       1.0  0.5290599999999998  0.03473  0.09639  1.0000
  C   C92       1.0  0.10047999999999994  0.41354  0.38247  1.0000
  C   C93       1.0  0.10082999999999995  0.38297  0.28841  1.0000
  C   C94       1.0  0.012990000000000024  0.3281200000000001  0.19911000000000006  1.0000
  C   C95       1.0  0.012129999999999986  0.29467  0.11049  1.0000
  C   C96       1.0  0.78316  0.4663  0.30184  1.0000
  C   C97       1.0  0.45294  0.61902  0.41215  1.0000
  C   C98       1.0  0.46575999999999984  0.67249  0.37486  1.0000
  C   C99       1.0  0.55166  0.68083  0.36849  1.0000
  C   C100      1.0  0.62208  0.63515  0.40085  1.0000
  C   C101      1.0  0.6042599999999998  0.5832  0.43742  1.0000
  C   C102      1.0  0.5669999999999997  0.73493  0.32502  1.0000
  C   C103      1.0  0.4521099999999999  0.62657  0.14344  1.0000
  C   C104      1.0  0.6209999999999998  0.6331  0.20324  1.0000
  C   C105      1.0  0.4656899999999999  0.5574300000000001  0.060200000000000004  1.0000
  C   C106      1.0  0.39462000000000014  0.49580000000000013  0.9624400000000002  1.0000
  C   C107      1.0  0.43264  0.4385200000000001  0.9037  1.0000
  C   C108      1.0  0.71727  0.53154  0.61762  1.0000
  C   C109      1.0  0.8117399999999998  0.59443  0.71162  1.0000
  C   C110      1.0  0.81292  0.62886  0.80085  1.0000
  C   C111      1.0  0.9004999999999997  0.6839400000000001  0.8895  1.0000
  C   C112      1.0  0.48106999999999994  0.66427  0.69795  1.0000
  C   C113      1.0  0.9593299999999999  0.29329000000000005  0.4122000000000001  1.0000
  C   C114      1.0  0.9092799999999998  0.20244000000000006  0.3747600000000001  1.0000
  C   C115      1.0  0.81691  0.18759  0.36813  1.0000
  C   C116      1.0  0.7787799999999999  0.26566  0.40064  1.0000
  C   C117      1.0  0.8331099999999998  0.35429000000000005  0.4373700000000001  1.0000
  C   C118      1.0  0.75821  0.08986000000000002  0.32446  1.0000
  C   C119      1.0  0.69142  0.01689000000000001  0.1427  1.0000
  C   C120      1.0  0.5828  0.07019000000000002  0.20334  1.0000
  C   C121      1.0  0.59436  0.0025900000000000007  0.05982  1.0000
  C   C122      1.0  0.5675899999999998  0.96653  0.96204  1.0000
  C   C123      1.0  0.4709399999999999  0.96527  0.90361  1.0000
  C   C124      1.0  0.89952  0.58646  0.61753  1.0000
  C   C125      1.0  0.8991699999999999  0.61704  0.7116000000000001  1.0000
  C   C126      1.0  0.9870100000000002  0.6718800000000001  0.8008900000000001  1.0000
  C   C127      1.0  0.9878699999999998  0.70533  0.88952  1.0000
  C   C128      1.0  0.21684  0.5337  0.69816  1.0000
  N   N1        1.0  0.020940000000000025  0.86805  0.44300000000000006  1.0000
  N   N2        1.0  0.047370000000000016  0.55539  0.22514000000000003  1.0000
  N   N3        1.0  0.42196000000000006  0.07460000000000004  0.4427600000000001  1.0000
  N   N4        1.0  0.17740999999999996  0.16932  0.22555  1.0000
  N   N5        1.0  0.9790599999999998  0.13195000000000007  0.557  1.0000
  N   N6        1.0  0.9526299999999996  0.44461  0.77486  1.0000
  N   N7        1.0  0.5780399999999999  0.92541  0.55724  1.0000
  N   N8        1.0  0.8225899999999998  0.8306800000000002  0.77445  1.0000
  N   N9        1.0  0.4791999999999998  0.42518  0.55708  1.0000
  N   N10       1.0  0.4521399999999999  0.33035  0.77445  1.0000
  N   N11       1.0  0.07791999999999996  0.63175  0.55708  1.0000
  N   N12       1.0  0.32201  0.9444800000000001  0.77499  1.0000
  N   N13       1.0  0.5208000000000002  0.57482  0.4429100000000001  1.0000
  N   N14       1.0  0.5478599999999998  0.66965  0.22555  1.0000
  N   N15       1.0  0.9220899999999997  0.36825  0.44293  1.0000
  N   N16       1.0  0.6779900000000001  0.05553000000000002  0.22501000000000002  1.0000
  O   O1        1.0  0.87462  0.5012  0.14337  1.0000
  O   O2        1.0  0.20898999999999995  0.60698  0.26221  1.0000
  O   O3        1.0  0.13988999999999993  0.05154000000000006  0.61293  1.0000
  O   O4        1.0  0.22056  0.09665999999999995  0.5528  1.0000
  O   O5        1.0  0.9604699999999999  0.96292  0.60144  1.0000
  O   O6        1.0  0.26846  0.14254  0.14389  1.0000
  O   O7        1.0  0.05203  0.15577  0.26205  1.0000
  O   O8        1.0  0.47258999999999995  0.06177  0.61296  1.0000
  O   O9        1.0  0.33374  0.95484  0.55384  1.0000
  O   O10       1.0  0.64005  0.13871  0.60108  1.0000
  O   O11       1.0  0.12538000000000002  0.4988  0.85663  1.0000
  O   O12       1.0  0.7910100000000001  0.39303000000000005  0.7377900000000001  1.0000
  O   O13       1.0  0.86011  0.94846  0.38708  1.0000
  O   O14       1.0  0.7794400000000001  0.90333  0.4472000000000001  1.0000
  O   O15       1.0  0.03951999999999999  0.03709000000000004  0.39856  1.0000
  O   O16       1.0  0.73153  0.85746  0.85611  1.0000
  O   O17       1.0  0.94796  0.8442300000000001  0.7379500000000002  1.0000
  O   O18       1.0  0.5274  0.93823  0.38704  1.0000
  O   O19       1.0  0.66626  0.045160000000000006  0.44616000000000006  1.0000
  O   O20       1.0  0.35994  0.8613  0.39891  1.0000
  O   O21       1.0  0.6246500000000003  0.3566800000000002  0.8561200000000002  1.0000
  O   O22       1.0  0.29044  0.34448  0.73814  1.0000
  O   O23       1.0  0.36012  0.43837000000000004  0.3870300000000001  1.0000
  O   O24       1.0  0.2800300000000001  0.54457  0.4469400000000001  1.0000
  O   O25       1.0  0.53949  0.36101  0.3983  1.0000
  O   O26       1.0  0.23143000000000005  0.9988400000000001  0.85736  1.0000
  O   O27       1.0  0.4463099999999999  0.89296  0.73736  1.0000
  O   O28       1.0  0.02811999999999999  0.44876999999999995  0.38777  1.0000
  O   O29       1.0  0.16738  0.40108  0.44626  1.0000
  O   O30       1.0  0.85837  0.53766  0.39817  1.0000
  O   O31       1.0  0.37535  0.64332  0.14388  1.0000
  O   O32       1.0  0.7095599999999997  0.65552  0.26186  1.0000
  O   O33       1.0  0.63988  0.56164  0.6129700000000002  1.0000
  O   O34       1.0  0.7199699999999998  0.45543999999999996  0.55306  1.0000
  O   O35       1.0  0.4605099999999999  0.639  0.6017  1.0000
  O   O36       1.0  0.76857  0.001159999999999997  0.14264  1.0000
  O   O37       1.0  0.55369  0.10704  0.26263  1.0000
  O   O38       1.0  0.9718800000000002  0.55124  0.6122400000000002  1.0000
  O   O39       1.0  0.83262  0.59892  0.55373  1.0000
  O   O40       1.0  0.14163000000000006  0.4623500000000001  0.6018300000000002  1.0000
