data_image0
_chemical_formula_structural       Cu12H48C120O48
_chemical_formula_sum              "Cu12 H48 C120 O48"
_cell_length_a       13.0612
_cell_length_b       22.41801
_cell_length_c       22.417909999999996
_cell_angle_alpha    119.99148
_cell_angle_beta     90.0
_cell_angle_gamma    90.0

_space_group_name_H-M_alt    "P 1"
_space_group_IT_number       1

loop_
  _space_group_symop_operation_xyz
  'x, y, z'

loop_
  _atom_site_type_symbol
  _atom_site_label
  _atom_site_symmetry_multiplicity
  _atom_site_fract_x
  _atom_site_fract_y
  _atom_site_fract_z
  _atom_site_occupancy
  Cu  Cu1       1.0  0.24983  0.37825000000000003  0.37825  1.0000
  Cu  Cu2       1.0  0.25005999999999995  0.26914  0.26914  1.0000
  Cu  Cu3       1.0  0.24983  0.0  0.62175  1.0000
  Cu  Cu4       1.0  0.25005999999999995  0.0  0.73086  1.0000
  Cu  Cu5       1.0  0.24983  0.62175  0.0  1.0000
  Cu  Cu6       1.0  0.25005999999999995  0.73086  0.0  1.0000
  Cu  Cu7       1.0  0.75017  0.62175  0.62175  1.0000
  Cu  Cu8       1.0  0.74995  0.73086  0.73086  1.0000
  Cu  Cu9       1.0  0.75017  3.9618967950327674e-17  0.37826000000000004  1.0000
  Cu  Cu10      1.0  0.74995  0.0  0.26914  1.0000
  Cu  Cu11      1.0  0.75017  0.37825000000000003  0.0  1.0000
  Cu  Cu12      1.0  0.74995  0.26914  0.0  1.0000
  H   H1        1.0  0.0954  0.33191  0.50684  1.0000
  H   H2        1.0  0.0954  0.17493000000000006  0.66809  1.0000
  H   H3        1.0  0.0954  0.4931600000000001  0.8250800000000003  1.0000
  H   H4        1.0  0.59538  0.66806  0.49312000000000006  1.0000
  H   H5        1.0  0.59538  0.82506  0.33194000000000007  1.0000
  H   H6        1.0  0.59538  0.50688  0.17494  1.0000
  H   H7        1.0  0.40462  0.66806  0.17494  1.0000
  H   H8        1.0  0.40462  0.82506  0.49312000000000006  1.0000
  H   H9        1.0  0.40462  0.5068800000000001  0.33194000000000007  1.0000
  H   H10       1.0  0.9045999999999998  0.33191  0.8250700000000001  1.0000
  H   H11       1.0  0.9045999999999998  0.17493  0.50684  1.0000
  H   H12       1.0  0.9045999999999998  0.49316  0.66809  1.0000
  H   H13       1.0  0.9045999999999998  0.66809  0.49316  1.0000
  H   H14       1.0  0.9045999999999998  0.82507  0.33191  1.0000
  H   H15       1.0  0.9045999999999998  0.50684  0.17493  1.0000
  H   H16       1.0  0.40462  0.33194  0.50688  1.0000
  H   H17       1.0  0.40462  0.17494000000000015  0.6680600000000002  1.0000
  H   H18       1.0  0.40462  0.49312  0.82506  1.0000
  H   H19       1.0  0.59538  0.33194  0.82506  1.0000
  H   H20       1.0  0.59538  0.17494000000000007  0.50688  1.0000
  H   H21       1.0  0.59538  0.49312000000000017  0.6680600000000002  1.0000
  H   H22       1.0  0.0954  0.66809  0.17493  1.0000
  H   H23       1.0  0.0954  0.82507  0.49316  1.0000
  H   H24       1.0  0.0954  0.50684  0.33191  1.0000
  H   H25       1.0  0.0  0.15756000000000003  0.31512000000000007  1.0000
  H   H26       1.0  0.0  0.15756000000000006  0.84245  1.0000
  H   H27       1.0  0.0  0.6848800000000002  0.8424400000000001  1.0000
  H   H28       1.0  0.4999999999999999  0.84242  0.68485  1.0000
  H   H29       1.0  0.4999999999999999  0.84243  0.15757000000000002  1.0000
  H   H30       1.0  0.4999999999999999  0.31515  0.15758  1.0000
  H   H31       1.0  0.0  0.8424399999999999  0.68488  1.0000
  H   H32       1.0  0.0  0.8424399999999999  0.15756000000000003  1.0000
  H   H33       1.0  0.0  0.31512000000000007  0.15756000000000003  1.0000
  H   H34       1.0  0.4999999999999999  0.15757  0.31515  1.0000
  H   H35       1.0  0.4999999999999999  0.1575699999999999  0.84243  1.0000
  H   H36       1.0  0.4999999999999999  0.6848499999999998  0.84243  1.0000
  H   H37       1.0  0.0  0.20541  0.60271  1.0000
  H   H38       1.0  0.0  0.39730000000000004  0.7946000000000002  1.0000
  H   H39       1.0  0.0  0.3973  0.6027  1.0000
  H   H40       1.0  0.4999999999999999  0.79459  0.3973000000000001  1.0000
  H   H41       1.0  0.4999999999999999  0.6027  0.20541  1.0000
  H   H42       1.0  0.4999999999999999  0.6027  0.3973000000000001  1.0000
  H   H43       1.0  0.0  0.79459  0.3973000000000001  1.0000
  H   H44       1.0  0.0  0.6027  0.20541  1.0000
  H   H45       1.0  0.0  0.6027  0.3973000000000001  1.0000
  H   H46       1.0  0.4999999999999999  0.20541  0.60271  1.0000
  H   H47       1.0  0.4999999999999999  0.39730000000000004  0.7946000000000002  1.0000
  H   H48       1.0  0.4999999999999999  0.3973  0.6027  1.0000
  C   C1        1.0  0.05236  0.28408000000000005  0.48025000000000007  1.0000
  C   C2        1.0  0.11783  0.27629  0.37292  1.0000
  C   C3        1.0  0.053789999999999984  0.24768  0.40798  1.0000
  C   C4        1.0  0.05236  0.19617  0.71592  1.0000
  C   C5        1.0  0.11783  0.0966300000000001  0.7237100000000002  1.0000
  C   C6        1.0  0.053789999999999984  0.1603  0.75232  1.0000
  C   C7        1.0  0.05236  0.5197500000000002  0.80384  1.0000
  C   C8        1.0  0.11783  0.6270800000000001  0.9033700000000001  1.0000
  C   C9        1.0  0.053789999999999984  0.5920200000000001  0.8397000000000001  1.0000
  C   C10       1.0  0.55237  0.7159  0.51974  1.0000
  C   C11       1.0  0.61792  0.72375  0.62708  1.0000
  C   C12       1.0  0.55385  0.75232  0.592  1.0000
  C   C13       1.0  0.55237  0.80382  0.2841  1.0000
  C   C14       1.0  0.61792  0.9033299999999999  0.27625  1.0000
  C   C15       1.0  0.55385  0.8396800000000001  0.24768  1.0000
  C   C16       1.0  0.55237  0.4802699999999999  0.19617  1.0000
  C   C17       1.0  0.61792  0.37292000000000003  0.09667  1.0000
  C   C18       1.0  0.55385  0.40801  0.16032  1.0000
  C   C19       1.0  0.44762999999999986  0.7159  0.19618  1.0000
  C   C20       1.0  0.38208  0.72375  0.09667  1.0000
  C   C21       1.0  0.4461499999999999  0.75232  0.16032  1.0000
  C   C22       1.0  0.44762999999999986  0.80383  0.51973  1.0000
  C   C23       1.0  0.38208  0.9033299999999999  0.62708  1.0000
  C   C24       1.0  0.4461499999999999  0.83967  0.592  1.0000
  C   C25       1.0  0.44762999999999986  0.48027  0.2841  1.0000
  C   C26       1.0  0.38208  0.37292000000000003  0.27625  1.0000
  C   C27       1.0  0.4461499999999999  0.408  0.24768  1.0000
  C   C28       1.0  0.94764  0.2840800000000001  0.80384  1.0000
  C   C29       1.0  0.88218  0.27629000000000015  0.9033700000000001  1.0000
  C   C30       1.0  0.94621  0.24768  0.83971  1.0000
  C   C31       1.0  0.94764  0.19617000000000004  0.48025000000000007  1.0000
  C   C32       1.0  0.88217  0.09664000000000003  0.37293000000000004  1.0000
  C   C33       1.0  0.94621  0.16029999999999997  0.4079900000000001  1.0000
  C   C34       1.0  0.94764  0.51975  0.71592  1.0000
  C   C35       1.0  0.88217  0.6270800000000001  0.7237100000000002  1.0000
  C   C36       1.0  0.94621  0.59202  0.75232  1.0000
  C   C37       1.0  0.94764  0.71592  0.51976  1.0000
  C   C38       1.0  0.88217  0.7237100000000001  0.62708  1.0000
  C   C39       1.0  0.94621  0.7523100000000001  0.59202  1.0000
  C   C40       1.0  0.94764  0.80383  0.28408  1.0000
  C   C41       1.0  0.88218  0.9033600000000002  0.2762900000000001  1.0000
  C   C42       1.0  0.94621  0.8397000000000001  0.24769  1.0000
  C   C43       1.0  0.94764  0.48025000000000007  0.19617  1.0000
  C   C44       1.0  0.88217  0.37292000000000003  0.09664000000000002  1.0000
  C   C45       1.0  0.94621  0.40798000000000006  0.16030000000000003  1.0000
  C   C46       1.0  0.44762999999999986  0.28409000000000006  0.48027000000000003  1.0000
  C   C47       1.0  0.38208  0.27625  0.37292  1.0000
  C   C48       1.0  0.4461499999999999  0.24768  0.40801000000000004  1.0000
  C   C49       1.0  0.44762999999999986  0.1961700000000001  0.7159100000000002  1.0000
  C   C50       1.0  0.38208  0.09666999999999995  0.72375  1.0000
  C   C51       1.0  0.4461499999999999  0.16032000000000005  0.75232  1.0000
  C   C52       1.0  0.44762999999999986  0.5197300000000001  0.8038300000000002  1.0000
  C   C53       1.0  0.38208  0.62708  0.90333  1.0000
  C   C54       1.0  0.4461499999999999  0.5919900000000001  0.8396800000000001  1.0000
  C   C55       1.0  0.55237  0.2841000000000002  0.8038300000000002  1.0000
  C   C56       1.0  0.61792  0.27625  0.90333  1.0000
  C   C57       1.0  0.55385  0.2476800000000001  0.8396800000000001  1.0000
  C   C58       1.0  0.55237  0.19617000000000004  0.48027000000000003  1.0000
  C   C59       1.0  0.61792  0.09667000000000002  0.37292  1.0000
  C   C60       1.0  0.55385  0.16032000000000002  0.40801000000000004  1.0000
  C   C61       1.0  0.55237  0.5197300000000001  0.7159100000000002  1.0000
  C   C62       1.0  0.61792  0.62708  0.72375  1.0000
  C   C63       1.0  0.55385  0.592  0.75232  1.0000
  C   C64       1.0  0.05236  0.71592  0.19617  1.0000
  C   C65       1.0  0.11783  0.7237100000000001  0.09663  1.0000
  C   C66       1.0  0.053789999999999984  0.7523100000000001  0.16030000000000003  1.0000
  C   C67       1.0  0.05236  0.80383  0.51975  1.0000
  C   C68       1.0  0.11783  0.9033600000000002  0.62708  1.0000
  C   C69       1.0  0.053789999999999984  0.8397000000000001  0.59202  1.0000
  C   C70       1.0  0.05236  0.48024000000000006  0.28408  1.0000
  C   C71       1.0  0.11783  0.3729200000000001  0.2762900000000001  1.0000
  C   C72       1.0  0.053789999999999984  0.40798000000000006  0.24769  1.0000
  C   C73       1.0  0.0  0.2969700000000001  0.5939500000000002  1.0000
  C   C74       1.0  0.0  0.2587900000000001  0.5175800000000002  1.0000
  C   C75       1.0  0.0  0.18558000000000005  0.3711500000000001  1.0000
  C   C76       1.0  0.0  0.29697  0.70303  1.0000
  C   C77       1.0  0.0  0.25878999999999996  0.74122  1.0000
  C   C78       1.0  0.0  0.18557  0.81443  1.0000
  C   C79       1.0  0.0  0.40606  0.70303  1.0000
  C   C80       1.0  0.0  0.4824300000000001  0.74122  1.0000
  C   C81       1.0  0.0  0.62885  0.81443  1.0000
  C   C82       1.0  0.4999999999999999  0.70302  0.4060500000000001  1.0000
  C   C83       1.0  0.4999999999999999  0.74121  0.48242  1.0000
  C   C84       1.0  0.4999999999999999  0.81441  0.62882  1.0000
  C   C85       1.0  0.4999999999999999  0.70302  0.29698  1.0000
  C   C86       1.0  0.4999999999999999  0.74121  0.2587900000000001  1.0000
  C   C87       1.0  0.4999999999999999  0.81441  0.18559  1.0000
  C   C88       1.0  0.4999999999999999  0.59395  0.29698  1.0000
  C   C89       1.0  0.4999999999999999  0.51758  0.2587900000000001  1.0000
  C   C90       1.0  0.4999999999999999  0.37118000000000007  0.18559  1.0000
  C   C91       1.0  0.0  0.7030300000000003  0.40606  1.0000
  C   C92       1.0  0.0  0.74121  0.4824300000000001  1.0000
  C   C93       1.0  0.0  0.8144200000000003  0.6288500000000001  1.0000
  C   C94       1.0  0.0  0.70303  0.29697  1.0000
  C   C95       1.0  0.0  0.74121  0.2587900000000001  1.0000
  C   C96       1.0  0.0  0.81442  0.18557  1.0000
  C   C97       1.0  0.0  0.59394  0.29697  1.0000
  C   C98       1.0  0.0  0.51757  0.2587900000000001  1.0000
  C   C99       1.0  0.0  0.37115  0.18558  1.0000
  C   C100      1.0  0.4999999999999999  0.2969800000000002  0.5939500000000002  1.0000
  C   C101      1.0  0.4999999999999999  0.2587900000000001  0.5175800000000002  1.0000
  C   C102      1.0  0.4999999999999999  0.18559000000000003  0.37118  1.0000
  C   C103      1.0  0.4999999999999999  0.29697  0.70303  1.0000
  C   C104      1.0  0.4999999999999999  0.2587900000000001  0.7412100000000001  1.0000
  C   C105      1.0  0.4999999999999999  0.18559000000000003  0.81441  1.0000
  C   C106      1.0  0.4999999999999999  0.4060500000000001  0.70303  1.0000
  C   C107      1.0  0.4999999999999999  0.48242000000000007  0.7412100000000001  1.0000
  C   C108      1.0  0.4999999999999999  0.62882  0.81441  1.0000
  C   C109      1.0  0.0  0.2614700000000001  0.6307400000000002  1.0000
  C   C110      1.0  0.0  0.36926  0.73853  1.0000
  C   C111      1.0  0.0  0.36927000000000015  0.6307400000000002  1.0000
  C   C112      1.0  0.4999999999999999  0.7385300000000002  0.3692600000000001  1.0000
  C   C113      1.0  0.4999999999999999  0.63074  0.26147  1.0000
  C   C114      1.0  0.4999999999999999  0.63073  0.36927  1.0000
  C   C115      1.0  0.0  0.7385300000000002  0.3692600000000001  1.0000
  C   C116      1.0  0.0  0.63074  0.26147  1.0000
  C   C117      1.0  0.0  0.63073  0.36927  1.0000
  C   C118      1.0  0.4999999999999999  0.2614700000000001  0.6307400000000002  1.0000
  C   C119      1.0  0.4999999999999999  0.36926  0.73853  1.0000
  C   C120      1.0  0.4999999999999999  0.36926000000000014  0.6307400000000002  1.0000
  O   O1        1.0  0.1425  0.23666  0.30985  1.0000
  O   O2        1.0  0.14574999999999996  0.3391600000000001  0.41095000000000004  1.0000
  O   O3        1.0  0.1425  0.07319000000000014  0.7633500000000002  1.0000
  O   O4        1.0  0.14574999999999996  0.07179000000000002  0.66084  1.0000
  O   O5        1.0  0.1425  0.69016  0.92681  1.0000
  O   O6        1.0  0.14574999999999996  0.5890400000000001  0.9282100000000002  1.0000
  O   O7        1.0  0.6423699999999998  0.76337  0.6902100000000001  1.0000
  O   O8        1.0  0.6460799999999998  0.66093  0.58905  1.0000
  O   O9        1.0  0.6423699999999998  0.9268400000000001  0.23663000000000003  1.0000
  O   O10       1.0  0.6460799999999998  0.92811  0.33907  1.0000
  O   O11       1.0  0.6423699999999998  0.3098  0.07317  1.0000
  O   O12       1.0  0.6460799999999998  0.41095  0.07188  1.0000
  O   O13       1.0  0.35763  0.76337  0.07316000000000003  1.0000
  O   O14       1.0  0.35391999999999996  0.66093  0.07189  1.0000
  O   O15       1.0  0.3576399999999999  0.92683  0.6902100000000001  1.0000
  O   O16       1.0  0.35391999999999996  0.92812  0.58905  1.0000
  O   O17       1.0  0.3576399999999999  0.3098000000000001  0.23663000000000003  1.0000
  O   O18       1.0  0.35391999999999996  0.41095  0.33907  1.0000
  O   O19       1.0  0.8575  0.23665000000000014  0.9268200000000002  1.0000
  O   O20       1.0  0.8542499999999997  0.33916000000000013  0.9282100000000002  1.0000
  O   O21       1.0  0.85751  0.07319  0.30985  1.0000
  O   O22       1.0  0.8542499999999997  0.07179000000000005  0.4109600000000001  1.0000
  O   O23       1.0  0.85751  0.69015  0.76334  1.0000
  O   O24       1.0  0.8542499999999997  0.58905  0.6608500000000003  1.0000
  O   O25       1.0  0.85751  0.76334  0.69016  1.0000
  O   O26       1.0  0.8542499999999997  0.66084  0.58905  1.0000
  O   O27       1.0  0.8575  0.92681  0.23666000000000006  1.0000
  O   O28       1.0  0.8542499999999997  0.9282100000000002  0.3391600000000001  1.0000
  O   O29       1.0  0.85751  0.30984  0.07319000000000002  1.0000
  O   O30       1.0  0.8542499999999997  0.41095  0.07179  1.0000
  O   O31       1.0  0.3576399999999999  0.23663  0.3098  1.0000
  O   O32       1.0  0.35391999999999996  0.33906  0.41095000000000004  1.0000
  O   O33       1.0  0.35763  0.07315999999999995  0.76337  1.0000
  O   O34       1.0  0.35391999999999996  0.07189  0.66093  1.0000
  O   O35       1.0  0.3576399999999999  0.6902000000000001  0.9268400000000001  1.0000
  O   O36       1.0  0.35391999999999996  0.58905  0.9281200000000002  1.0000
  O   O37       1.0  0.6423699999999998  0.2366300000000001  0.9268400000000001  1.0000
  O   O38       1.0  0.6460799999999998  0.33907000000000004  0.9281200000000002  1.0000
  O   O39       1.0  0.6423699999999998  0.07317000000000003  0.3098  1.0000
  O   O40       1.0  0.6460799999999998  0.07188000000000001  0.41095000000000004  1.0000
  O   O41       1.0  0.6423699999999998  0.6901999999999999  0.76337  1.0000
  O   O42       1.0  0.6460799999999998  0.58905  0.66094  1.0000
  O   O43       1.0  0.1425  0.76334  0.07319000000000002  1.0000
  O   O44       1.0  0.14574999999999996  0.66084  0.07179  1.0000
  O   O45       1.0  0.1425  0.92681  0.69016  1.0000
  O   O46       1.0  0.14574999999999996  0.92821  0.58905  1.0000
  O   O47       1.0  0.1425  0.30985000000000007  0.23666000000000006  1.0000
  O   O48       1.0  0.14574999999999996  0.4109500000000001  0.3391600000000001  1.0000
