data_image0
_chemical_formula_structural       Eu8H88C164N4O48
_chemical_formula_sum              "Eu8 H88 C164 N4 O48"
_cell_length_a       13.61586
_cell_length_b       13.69633
_cell_length_c       23.102690000000003
_cell_angle_alpha    89.85289000000002
_cell_angle_beta     90.03675
_cell_angle_gamma    118.50138

_symmetry_space_group_name_H-M    'P 1'
_symmetry_Int_Tables_number       1

loop_
  _symmetry_equiv_pos_as_xyz
  'x,y,z'

loop_
  _atom_site_type_symbol
  _atom_site_label
  _atom_site_symmetry_multiplicity
  _atom_site_fract_x
  _atom_site_fract_y
  _atom_site_fract_z
  _atom_site_occupancy
  Eu  Eu1       1.0  0.54084  0.4846499999999999  0.26661  1.0000
  Eu  Eu2       1.0  0.18767  0.31904  0.23324  1.0000
  Eu  Eu3       1.0  0.95904  0.015159999999999996  0.76792  1.0000
  Eu  Eu4       1.0  0.31119  0.17443  0.7384  1.0000
  Eu  Eu5       1.0  0.47002  0.52612  0.7330599999999999  1.0000
  Eu  Eu6       1.0  0.8148  0.68161  0.76616  1.0000
  Eu  Eu7       1.0  0.04173999999999991  0.9853099999999998  0.23346999999999996  1.0000
  Eu  Eu8       1.0  0.68889  0.82119  0.26461  1.0000
  H   H1        1.0  0.43475  0.30046999999999996  0.42649999999999993  1.0000
  H   H2        1.0  0.43905999999999995  0.26904999999999996  0.5326  1.0000
  H   H3        1.0  0.1593  0.42332  0.4025099999999999  1.0000
  H   H4        1.0  0.05933999999999995  0.48474999999999996  0.47030999999999995  1.0000
  H   H5        1.0  0.09157999999999997  0.4863499999999999  0.5770799999999999  1.0000
  H   H6        1.0  0.21861999999999998  0.4198399999999999  0.61547  1.0000
  H   H7        1.0  0.36054  0.7134999999999999  0.32184  1.0000
  H   H8        1.0  0.2548199999999999  0.8202299999999998  0.3156  1.0000
  H   H9        1.0  0.33688999999999997  0.5660599999999999  0.13097  1.0000
  H   H10       1.0  0.27002999999999994  0.5932599999999999  0.03646  1.0000
  H   H11       1.0  0.18285  0.7174499999999998  0.02794  1.0000
  H   H12       1.0  0.16476999999999992  0.8143499999999999  0.11437999999999998  1.0000
  H   H13       1.0  0.4455400000000001  0.16725  0.18007999999999993  1.0000
  H   H14       1.0  0.54401  0.05341  0.18672  1.0000
  H   H15       1.0  0.27911  0.13278  0.36635999999999996  1.0000
  H   H16       1.0  0.29005  0.05358999999999999  0.46046  1.0000
  H   H17       1.0  0.40637  0.95765  0.47057  1.0000
  H   H18       1.0  0.5091099999999998  0.9409799999999998  0.38551  1.0000
  H   H19       1.0  0.47546999999999995  0.32477  0.14503999999999997  1.0000
  H   H20       1.0  0.45283  0.32037999999999994  0.03884  1.0000
  H   H21       1.0  0.56145  0.67378  0.04694999999999999  1.0000
  H   H22       1.0  0.58035  0.6621899999999998  0.15109  1.0000
  H   H23       1.0  0.06168000000000001  0.19539999999999996  0.9284299999999999  1.0000
  H   H24       1.0  0.07356  0.24941  0.03237  1.0000
  H   H25       1.0  0.31678000000000006  0.04775999999999998  0.9099299999999999  1.0000
  H   H26       1.0  0.4114999999999999  0.9830499999999999  0.97977  1.0000
  H   H27       1.0  0.39211000000000007  0.0021599999999999996  0.08621999999999999  1.0000
  H   H28       1.0  0.28231  0.08984  0.12217  1.0000
  H   H29       1.0  0.13902999999999988  0.7868999999999998  0.82278  1.0000
  H   H30       1.0  0.24656000000000006  0.68118  0.81899  1.0000
  H   H31       1.0  0.15936999999999996  0.9245499999999998  0.62982  1.0000
  H   H32       1.0  0.22692999999999988  0.8949099999999998  0.53599  1.0000
  H   H33       1.0  0.31595  0.77218  0.52998  1.0000
  H   H34       1.0  0.33493000000000006  0.6789799999999998  0.61788  1.0000
  H   H35       1.0  0.06444999999999995  0.3432599999999999  0.67474  1.0000
  H   H36       1.0  0.96469  0.45552  0.68332  1.0000
  H   H37       1.0  0.22143  0.36159  0.8620999999999999  1.0000
  H   H38       1.0  0.20921999999999996  0.43651999999999996  0.95711  1.0000
  H   H39       1.0  0.09154  0.53059  0.9686399999999997  1.0000
  H   H40       1.0  0.9896200000000003  0.55102  0.8840499999999999  1.0000
  H   H41       1.0  0.015059999999999987  0.17487999999999995  0.64339  1.0000
  H   H42       1.0  0.03566  0.17741  0.53717  1.0000
  H   H43       1.0  0.9503099999999999  0.8296699999999998  0.5488699999999999  1.0000
  H   H44       1.0  0.9323  0.84271  0.65297  1.0000
  H   H45       1.0  0.58404  0.72642  0.5732099999999999  1.0000
  H   H46       1.0  0.58749  0.7646499999999999  0.46716  1.0000
  H   H47       1.0  0.82679  0.56486  0.5962799999999999  1.0000
  H   H48       1.0  0.9127400000000001  0.48771  0.52843  1.0000
  H   H49       1.0  0.8869700000000003  0.49517999999999995  0.42144999999999994  1.0000
  H   H50       1.0  0.77791  0.58203  0.38312  1.0000
  H   H51       1.0  0.64285  0.28841  0.67626  1.0000
  H   H52       1.0  0.7491600000000002  0.18241999999999994  0.6838  1.0000
  H   H53       1.0  0.65684  0.43144  0.8670499999999999  1.0000
  H   H54       1.0  0.7228800000000002  0.40579  0.96211  1.0000
  H   H55       1.0  0.81294  0.28425  0.97168  1.0000
  H   H56       1.0  0.83454  0.18847999999999995  0.8857199999999998  1.0000
  H   H57       1.0  0.55687  0.8330499999999998  0.82293  1.0000
  H   H58       1.0  0.45458999999999994  0.9429599999999999  0.81642  1.0000
  H   H59       1.0  0.73552  0.88356  0.63844  1.0000
  H   H60       1.0  0.72395  0.96355  0.54477  1.0000
  H   H61       1.0  0.59579  0.04628  0.53342  1.0000
  H   H62       1.0  0.48633  0.05369999999999999  0.61772  1.0000
  H   H63       1.0  0.53113  0.6758999999999998  0.85585  1.0000
  H   H64       1.0  0.55155  0.6786599999999999  0.96189  1.0000
  H   H65       1.0  0.42685  0.32241  0.95374  1.0000
  H   H66       1.0  0.41324  0.3361899999999999  0.8492799999999999  1.0000
  H   H67       1.0  0.93292  0.79864  0.07325  1.0000
  H   H68       1.0  0.92408  0.7500099999999997  0.9686599999999997  1.0000
  H   H69       1.0  0.68017  0.9483099999999998  0.09322999999999997  1.0000
  H   H70       1.0  0.58681  0.01607  0.0242  1.0000
  H   H71       1.0  0.60871  0.0020599999999999993  0.91753  1.0000
  H   H72       1.0  0.7207499999999999  0.9176299999999997  0.88049  1.0000
  H   H73       1.0  0.8597200000000002  0.21127  0.17865  1.0000
  H   H74       1.0  0.75384  0.31816  0.18316999999999994  1.0000
  H   H75       1.0  0.83821  0.07047999999999999  0.371  1.0000
  H   H76       1.0  0.76995  0.09858  0.4648999999999999  1.0000
  H   H77       1.0  0.68206  0.22224  0.4716699999999999  1.0000
  H   H78       1.0  0.66478  0.318  0.38427999999999995  1.0000
  H   H79       1.0  0.9421899999999999  0.6634699999999998  0.3205299999999999  1.0000
  H   H80       1.0  0.040599999999999956  0.5497099999999999  0.31375  1.0000
  H   H81       1.0  0.77679  0.6314099999999999  0.13415  1.0000
  H   H82       1.0  0.7888500000000002  0.55428  0.03987999999999999  1.0000
  H   H83       1.0  0.90746  0.46102  0.02938  1.0000
  H   H84       1.0  0.010150000000000005  0.44339  0.11441  1.0000
  H   H85       1.0  0.97767  0.82519  0.35687  1.0000
  H   H86       1.0  0.9565399999999998  0.8223899999999997  0.46306  1.0000
  H   H87       1.0  0.06367000000000002  0.17529999999999998  0.45277  1.0000
  H   H88       1.0  0.08063  0.16215  0.34858  1.0000
  C   C1        1.0  0.3154  0.37028999999999995  0.3677999999999999  1.0000
  C   C2        1.0  0.3127200000000001  0.35617999999999994  0.4324099999999999  1.0000
  C   C3        1.0  0.38308999999999993  0.31850999999999996  0.45580999999999994  1.0000
  C   C4        1.0  0.38708000000000004  0.30293  0.5155  1.0000
  C   C5        1.0  0.32778999999999997  0.3341899999999999  0.55347  1.0000
  C   C6        1.0  0.25901  0.37858  0.53148  1.0000
  C   C7        1.0  0.24650999999999998  0.38457999999999987  0.46985999999999994  1.0000
  C   C8        1.0  0.17202999999999996  0.42224999999999996  0.44898  1.0000
  C   C9        1.0  0.11585  0.45612  0.4872  1.0000
  C   C10       1.0  0.1327  0.45563  0.54745  1.0000
  C   C11       1.0  0.20288999999999993  0.4172299999999999  0.56916  1.0000
  C   C12       1.0  0.34080999999999995  0.3243599999999999  0.61747  1.0000
  C   C13       1.0  0.40097000000000005  0.60519  0.23821999999999993  1.0000
  C   C14       1.0  0.33729  0.66825  0.23201999999999998  1.0000
  C   C15       1.0  0.32471999999999995  0.7201399999999998  0.28089  1.0000
  C   C16       1.0  0.2673499999999998  0.7816999999999997  0.27725  1.0000
  C   C17       1.0  0.2273099999999999  0.7978999999999998  0.22452999999999998  1.0000
  C   C18       1.0  0.2406099999999999  0.7471399999999998  0.17302999999999996  1.0000
  C   C19       1.0  0.29301  0.67748  0.1775  1.0000
  C   C20       1.0  0.30124  0.6218799999999999  0.12738  1.0000
  C   C21       1.0  0.26252  0.6362999999999999  0.07437  1.0000
  C   C22       1.0  0.21301999999999996  0.7058399999999998  0.06967  1.0000
  C   C23       1.0  0.2018799999999999  0.7598199999999998  0.11788  1.0000
  C   C24       1.0  0.1686699999999999  0.8664999999999999  0.22664  1.0000
  C   C25       1.0  0.3216300000000001  0.19610999999999995  0.25891  1.0000
  C   C26       1.0  0.38687  0.13485999999999998  0.26762  1.0000
  C   C27       1.0  0.44537999999999994  0.12647  0.22048999999999996  1.0000
  C   C28       1.0  0.50218  0.06435  0.22426999999999997  1.0000
  C   C29       1.0  0.50719  0.014059999999999996  0.27579  1.0000
  C   C30       1.0  0.45314  0.0262  0.32657  1.0000
  C   C31       1.0  0.38836999999999994  0.08405  0.32157  1.0000
  C   C32       1.0  0.32979  0.09146999999999997  0.37076  1.0000
  C   C33       1.0  0.33543  0.046129999999999984  0.4234099999999999  1.0000
  C   C34       1.0  0.40074000000000004  0.99195  0.42887  1.0000
  C   C35       1.0  0.45836000000000005  0.98234  0.38171  1.0000
  C   C36       1.0  0.56784  0.94671  0.27259999999999995  1.0000
  C   C37       1.0  0.49342  0.39993999999999996  0.1212  1.0000
  C   C38       1.0  0.48133999999999993  0.39872999999999986  0.06146  1.0000
  C   C39       1.0  0.50448  0.49724  0.03205999999999999  1.0000
  C   C40       1.0  0.54084  0.5935  0.06575999999999999  1.0000
  C   C41       1.0  0.5509  0.5873299999999999  0.12525  1.0000
  C   C42       1.0  0.17706  0.11535  0.8725499999999998  1.0000
  C   C43       1.0  0.1794  0.13404  0.93686  1.0000
  C   C44       1.0  0.11386999999999999  0.17885999999999996  0.9582499999999999  1.0000
  C   C45       1.0  0.11788000000000001  0.20618  0.01691  1.0000
  C   C46       1.0  0.17796  0.17837  0.056449999999999986  1.0000
  C   C47       1.0  0.23731  0.12190999999999999  0.03702  1.0000
  C   C48       1.0  0.24336000000000002  0.10536  0.97578  1.0000
  C   C49       1.0  0.30911  0.05668  0.95627  1.0000
  C   C50       1.0  0.36282  0.02158  0.99548  1.0000
  C   C51       1.0  0.35311  0.03356  0.05552999999999999  1.0000
  C   C52       1.0  0.29225  0.08356  0.07589  1.0000
  C   C53       1.0  0.18243  0.21602999999999997  0.11775  1.0000
  C   C54       1.0  0.10031999999999992  0.8932299999999997  0.73831  1.0000
  C   C55       1.0  0.16192999999999994  0.82834  0.7325  1.0000
  C   C56       1.0  0.17485999999999993  0.7785299999999998  0.7822499999999999  1.0000
  C   C57       1.0  0.23307999999999987  0.7177499999999998  0.7799799999999998  1.0000
  C   C58       1.0  0.27315  0.70026  0.7277299999999999  1.0000
  C   C59       1.0  0.25885999999999987  0.7480399999999999  0.67523  1.0000
  C   C60       1.0  0.20580999999999994  0.8171399999999998  0.67829  1.0000
  C   C61       1.0  0.19638999999999995  0.86988  0.62715  1.0000
  C   C62       1.0  0.23525  0.8538999999999999  0.57466  1.0000
  C   C63       1.0  0.28585999999999995  0.7851199999999999  0.5713899999999998  1.0000
  C   C64       1.0  0.29748  0.7332899999999998  0.62048  1.0000
  C   C65       1.0  0.33275999999999994  0.6330199999999999  0.7309899999999999  1.0000
  C   C66       1.0  0.18175  0.30439  0.7561799999999999  1.0000
  C   C67       1.0  0.11807999999999996  0.36767999999999995  0.7633499999999998  1.0000
  C   C68       1.0  0.06215999999999997  0.3800399999999999  0.716  1.0000
  C   C69       1.0  0.004789999999999949  0.44151999999999997  0.72079  1.0000
  C   C70       1.0  0.9968099999999999  0.4870699999999999  0.77327  1.0000
  C   C71       1.0  0.04868999999999998  0.47106  0.8238699999999999  1.0000
  C   C72       1.0  0.11374999999999995  0.4138799999999999  0.8180199999999999  1.0000
  C   C73       1.0  0.1708899999999999  0.4030299999999999  0.867  1.0000
  C   C74       1.0  0.16431  0.4455399999999999  0.92024  1.0000
  C   C75       1.0  0.09830999999999997  0.49878  0.9265199999999998  1.0000
  C   C76       1.0  0.041369999999999935  0.5108399999999998  0.87964  1.0000
  C   C77       1.0  0.93602  0.5544  0.7715999999999998  1.0000
  C   C78       1.0  0.0020199999999999958  0.10045999999999998  0.62045  1.0000
  C   C79       1.0  0.01294999999999998  0.10067999999999998  0.56061  1.0000
  C   C80       1.0  0.9955  0.0031399999999999996  0.53215  1.0000
  C   C81       1.0  0.9659300000000001  0.9089799999999998  0.5669  1.0000
  C   C82       1.0  0.9565  0.9161399999999998  0.6263399999999999  1.0000
  C   C83       1.0  0.69397  0.647  0.63197  1.0000
  C   C84       1.0  0.69331  0.65548  0.56691  1.0000
  C   C85       1.0  0.63047  0.70202  0.54369  1.0000
  C   C86       1.0  0.6299  0.72055  0.48417999999999994  1.0000
  C   C87       1.0  0.6831500000000001  0.6828199999999999  0.4457599999999999  1.0000
  C   C88       1.0  0.74103  0.6262199999999999  0.46725  1.0000
  C   C89       1.0  0.7513299999999999  0.6175299999999999  0.5290199999999999  1.0000
  C   C90       1.0  0.81586  0.56816  0.54978  1.0000
  C   C91       1.0  0.8646299999999999  0.5261099999999999  0.51156  1.0000
  C   C92       1.0  0.8513299999999999  0.5312999999999999  0.45126999999999995  1.0000
  C   C93       1.0  0.79104  0.58097  0.4294899999999999  1.0000
  C   C94       1.0  0.68214  0.7108999999999999  0.3830399999999999  1.0000
  C   C95       1.0  0.5985600000000002  0.3951799999999999  0.7594799999999999  1.0000
  C   C96       1.0  0.66237  0.3322699999999999  0.7663099999999999  1.0000
  C   C97       1.0  0.6771800000000001  0.28138  0.7176199999999999  1.0000
  C   C98       1.0  0.7352300000000002  0.22047999999999995  0.72195  1.0000
  C   C99       1.0  0.77448  0.20453  0.77496  1.0000
  C   C100      1.0  0.75884  0.25433999999999996  0.82625  1.0000
  C   C101      1.0  0.7049400000000001  0.32254999999999995  0.8212  1.0000
  C   C102      1.0  0.69391  0.3769  0.87112  1.0000
  C   C103      1.0  0.7319899999999999  0.36324999999999996  0.92444  1.0000
  C   C104      1.0  0.7832  0.29531  0.9297  1.0000
  C   C105      1.0  0.79638  0.24199999999999994  0.8817799999999998  1.0000
  C   C106      1.0  0.83418  0.1368  0.7735099999999999  1.0000
  C   C107      1.0  0.68396  0.808  0.74512  1.0000
  C   C108      1.0  0.6188399999999998  0.8693699999999998  0.7361199999999999  1.0000
  C   C109      1.0  0.55734  0.87456  0.78277  1.0000
  C   C110      1.0  0.49824  0.9344399999999998  0.7789999999999999  1.0000
  C   C111      1.0  0.49276999999999993  0.9845399999999997  0.7275399999999999  1.0000
  C   C112      1.0  0.54904  0.97502  0.6770799999999999  1.0000
  C   C113      1.0  0.61795  0.92156  0.6824  1.0000
  C   C114      1.0  0.6809199999999999  0.9203499999999999  0.63368  1.0000
  C   C115      1.0  0.6746100000000003  0.9660499999999999  0.58127  1.0000
  C   C116      1.0  0.60312  0.013249999999999996  0.57518  1.0000
  C   C117      1.0  0.54177  0.01765  0.62194  1.0000
  C   C118      1.0  0.43082  0.05038999999999999  0.73045  1.0000
  C   C119      1.0  0.50911  0.59965  0.87955  1.0000
  C   C120      1.0  0.51986  0.5999099999999999  0.9393  1.0000
  C   C121      1.0  0.49195  0.50019  0.9686999999999999  1.0000
  C   C122      1.0  0.45209  0.4037  0.93488  1.0000
  C   C123      1.0  0.44451  0.41109  0.8752299999999997  1.0000
  C   C124      1.0  0.82094  0.8809099999999997  0.12978  1.0000
  C   C125      1.0  0.81815  0.86349  0.06528999999999999  1.0000
  C   C126      1.0  0.88251  0.8176999999999998  0.04347999999999999  1.0000
  C   C127      1.0  0.8799099999999999  0.7930799999999998  0.98456  1.0000
  C   C128      1.0  0.82227  0.82417  0.94513  1.0000
  C   C129      1.0  0.76294  0.88041  0.96514  1.0000
  C   C130      1.0  0.7553899999999999  0.8941999999999999  0.026619999999999998  1.0000
  C   C131      1.0  0.68925  0.94203  0.04676999999999999  1.0000
  C   C132      1.0  0.6363  0.97879  0.008  1.0000
  C   C133      1.0  0.64754  0.96979  0.94784  1.0000
  C   C134      1.0  0.7093099999999999  0.9212199999999998  0.92681  1.0000
  C   C135      1.0  0.82215  0.79139  0.88325  1.0000
  C   C136      1.0  0.90073  0.10563999999999998  0.26324  1.0000
  C   C137      1.0  0.8377000000000002  0.16943  0.26898  1.0000
  C   C138      1.0  0.8243900000000002  0.21947  0.2194  1.0000
  C   C139      1.0  0.76711  0.28112999999999994  0.22206999999999993  1.0000
  C   C140      1.0  0.728  0.29949999999999993  0.27444999999999997  1.0000
  C   C141      1.0  0.74134  0.25014  0.32666  1.0000
  C   C142      1.0  0.7937800000000002  0.18039  0.32321  1.0000
  C   C143      1.0  0.8021000000000001  0.12598999999999996  0.37395  1.0000
  C   C144      1.0  0.76266  0.14092999999999997  0.42653  1.0000
  C   C145      1.0  0.7127800000000001  0.21025999999999997  0.43024  1.0000
  C   C146      1.0  0.70218  0.26364  0.38147  1.0000
  C   C147      1.0  0.67092  0.36944  0.27116  1.0000
  C   C148      1.0  0.82099  0.69616  0.24044999999999994  1.0000
  C   C149      1.0  0.88507  0.63347  0.23264999999999994  1.0000
  C   C150      1.0  0.94275  0.62385  0.27994  1.0000
  C   C151      1.0  0.99935  0.56149  0.27613  1.0000
  C   C152      1.0  0.005130000000000017  0.51226  0.22450999999999993  1.0000
  C   C153      1.0  0.95195  0.5257099999999999  0.17365999999999995  1.0000
  C   C154      1.0  0.88698  0.58329  0.17871999999999996  1.0000
  C   C155      1.0  0.82829  0.59103  0.12961  1.0000
  C   C156      1.0  0.8344899999999998  0.5467999999999998  0.07685  1.0000
  C   C157      1.0  0.90098  0.49397  0.07120999999999998  1.0000
  C   C158      1.0  0.95849  0.48374  0.11833999999999997  1.0000
  C   C159      1.0  0.06504999999999998  0.44409  0.22750999999999993  1.0000
  C   C160      1.0  0.9957400000000001  0.90079  0.38017  1.0000
  C   C161      1.0  0.9846500000000002  0.90043  0.43998  1.0000
  C   C162      1.0  0.007609999999999895  0.9992899999999999  0.46876999999999996  1.0000
  C   C163      1.0  0.04281  0.0948  0.43439999999999995  1.0000
  C   C164      1.0  0.051969999999999995  0.08774999999999997  0.3749199999999999  1.0000
  N   N1        1.0  0.52695  0.4922299999999999  0.15328999999999998  1.0000
  N   N2        1.0  0.97464  0.010139999999999998  0.6535299999999999  1.0000
  N   N3        1.0  0.47317  0.50727  0.8471899999999999  1.0000
  N   N4        1.0  0.02830000000000003  0.99242  0.34743999999999997  1.0000
  O   O1        1.0  0.41295  0.41343  0.3458  1.0000
  O   O2        1.0  0.22521999999999998  0.3391799999999999  0.33997  1.0000
  O   O3        1.0  0.40766  0.41213  0.64331  1.0000
  O   O4        1.0  0.28503  0.22860999999999995  0.64021  1.0000
  O   O5        1.0  0.35312999999999994  0.5009099999999999  0.23111  1.0000
  O   O6        1.0  0.50441  0.65859  0.2515  1.0000
  O   O7        1.0  0.12410999999999987  0.8703699999999998  0.27464  1.0000
  O   O8        1.0  0.16300000000000003  0.92017  0.18251999999999993  1.0000
  O   O9        1.0  0.37041000000000013  0.29371  0.23723999999999995  1.0000
  O   O10       1.0  0.21797  0.14768999999999996  0.27168999999999993  1.0000
  O   O11       1.0  0.5806599999999998  0.8989799999999999  0.31747  1.0000
  O   O12       1.0  0.60603  0.9376799999999998  0.22349999999999998  1.0000
  O   O13       1.0  0.08052  0.0569  0.8512499999999997  1.0000
  O   O14       1.0  0.26854  0.15965  0.84473  1.0000
  O   O15       1.0  0.14774  0.14694999999999997  0.15974  1.0000
  O   O16       1.0  0.22092  0.3198  0.12528  1.0000
  O   O17       1.0  0.14780000000000001  0.9958  0.7258  1.0000
  O   O18       1.0  0.99996  0.8436699999999998  0.75699  1.0000
  O   O19       1.0  0.38153999999999993  0.6337699999999998  0.77823  1.0000
  O   O20       1.0  0.33483000000000007  0.57569  0.68782  1.0000
  O   O21       1.0  0.12751999999999997  0.20058  0.74579  1.0000
  O   O22       1.0  0.28786  0.35481  0.7601299999999999  1.0000
  O   O23       1.0  0.91441  0.5915  0.8179099999999999  1.0000
  O   O24       1.0  0.9065  0.5741899999999999  0.72238  1.0000
  O   O25       1.0  0.60348  0.62798  0.65707  1.0000
  O   O26       1.0  0.78239  0.6616  0.65775  1.0000
  O   O27       1.0  0.64026  0.63524  0.3449  1.0000
  O   O28       1.0  0.72347  0.81394  0.37147  1.0000
  O   O29       1.0  0.64726  0.5000199999999999  0.76587  1.0000
  O   O30       1.0  0.49536  0.34231  0.74617  1.0000
  O   O31       1.0  0.8765100000000001  0.12978  0.72539  1.0000
  O   O32       1.0  0.8426  0.08623999999999998  0.8183899999999998  1.0000
  O   O33       1.0  0.6371500000000001  0.7141  0.7708999999999998  1.0000
  O   O34       1.0  0.7855199999999999  0.8518899999999999  0.7282399999999999  1.0000
  O   O35       1.0  0.4149800000000001  0.09587999999999999  0.68542  1.0000
  O   O36       1.0  0.39481  0.06153  0.7798599999999999  1.0000
  O   O37       1.0  0.91841  0.9315899999999999  0.15143999999999996  1.0000
  O   O38       1.0  0.72956  0.84327  0.15737  1.0000
  O   O39       1.0  0.85092  0.86255  0.84263  1.0000
  O   O40       1.0  0.79315  0.68949  0.87433  1.0000
  O   O41       1.0  0.85283  0.0017200000000000002  0.27177  1.0000
  O   O42       1.0  0.0034799999999999944  0.15805  0.24845  1.0000
  O   O43       1.0  0.62465  0.37114999999999987  0.22342  1.0000
  O   O44       1.0  0.6691000000000001  0.4266099999999999  0.31458  1.0000
  O   O45       1.0  0.87168  0.7953499999999999  0.25982  1.0000
  O   O46       1.0  0.71686  0.6485599999999999  0.22887  1.0000
  O   O47       1.0  0.07605000000000005  0.3955  0.18261999999999998  1.0000
  O   O48       1.0  0.10443999999999996  0.43498999999999993  0.27624  1.0000
