data_image0
_chemical_formula_structural       Mn6Co2H132C150N24O24
_chemical_formula_sum              "Mn6 Co2 H132 C150 N24 O24"
_cell_length_a       12.403
_cell_length_b       12.98291
_cell_length_c       33.775029999999994
_cell_angle_alpha    90.00013999999999
_cell_angle_beta     89.9991
_cell_angle_gamma    98.82865999999999

_symmetry_space_group_name_H-M    'P 1'
_symmetry_Int_Tables_number       1

loop_
  _symmetry_equiv_pos_as_xyz
  'x,y,z'

loop_
  _atom_site_type_symbol
  _atom_site_label
  _atom_site_symmetry_multiplicity
  _atom_site_fract_x
  _atom_site_fract_y
  _atom_site_fract_z
  _atom_site_occupancy
  Mn  Mn1       1.0  0.7012  0.1068  0.56794  1.0000
  Mn  Mn2       1.0  0.29881  0.89322  0.06793  1.0000
  Mn  Mn3       1.0  0.2988  0.8932100000000001  0.43205  1.0000
  Mn  Mn4       1.0  0.70119  0.10678  0.93207  1.0000
  Mn  Mn5       1.0  0.4999999999999999  0.0  0.5  1.0000
  Mn  Mn6       1.0  0.4999999999999999  0.0  0.0  1.0000
  Co  Co1       1.0  0.23004  0.20400000000000004  0.25  1.0000
  Co  Co2       1.0  0.7699499999999999  0.7960000000000003  0.75  1.0000
  H   H1        1.0  0.35225999999999996  0.14146000000000003  0.53706  1.0000
  H   H2        1.0  0.8237599999999998  0.28257  0.67434  1.0000
  H   H3        1.0  0.7258999999999999  0.18077  0.6532  1.0000
  H   H4        1.0  0.9456599999999997  0.21001000000000006  0.47756  1.0000
  H   H5        1.0  0.1608  0.16887  0.5464799999999999  1.0000
  H   H6        1.0  0.06315  0.25458000000000003  0.41781  1.0000
  H   H7        1.0  0.97395  0.07357  0.52551  1.0000
  H   H8        1.0  0.88466  0.97542  0.55056  1.0000
  H   H9        1.0  0.028889999999999992  0.9848  0.55715  1.0000
  H   H10       1.0  0.37763  0.07317000000000001  0.66056  1.0000
  H   H11       1.0  0.18209  0.09282  0.67013  1.0000
  H   H12       1.0  0.65983  0.78824  0.62382  1.0000
  H   H13       1.0  0.67949  0.7194000000000003  0.49990999999999997  1.0000
  H   H14       1.0  0.6650099999999998  0.13039  0.4034  1.0000
  H   H15       1.0  0.67731  0.60575  0.64018  1.0000
  H   H16       1.0  0.20028999999999997  0.08806000000000001  0.32791  1.0000
  H   H17       1.0  0.06638999999999998  0.03181  0.34312999999999994  1.0000
  H   H18       1.0  0.15072  0.11455  0.3757  1.0000
  H   H19       1.0  0.7136999999999998  0.54089  0.51605  1.0000
  H   H20       1.0  0.78046  0.17614  0.3434  1.0000
  H   H21       1.0  0.56132  0.26416  0.52954  1.0000
  H   H22       1.0  0.65416  0.36051  0.50493  1.0000
  H   H23       1.0  0.54366  0.3981200000000001  0.53165  1.0000
  H   H24       1.0  0.84302  0.37074  0.28644999999999987  1.0000
  H   H25       1.0  0.9421299999999998  0.47297000000000006  0.3044  1.0000
  H   H26       1.0  0.8580699999999998  0.3920100000000001  0.33824  1.0000
  H   H27       1.0  0.013440000000000007  0.24072000000000005  0.70294  1.0000
  H   H28       1.0  0.025790000000000014  0.35173000000000004  0.67146  1.0000
  H   H29       1.0  0.13179  0.2744500000000001  0.67327  1.0000
  H   H30       1.0  0.92161  0.46180000000000004  0.65283  1.0000
  H   H31       1.0  0.80399  0.47241  0.68183  1.0000
  H   H32       1.0  0.8483799999999998  0.5663  0.64493  1.0000
  H   H33       1.0  0.6477599999999998  0.85853  0.03706  1.0000
  H   H34       1.0  0.17625999999999994  0.71742  0.17435  1.0000
  H   H35       1.0  0.27412  0.81921  0.1532  1.0000
  H   H36       1.0  0.05433999999999998  0.78999  0.9775599999999999  1.0000
  H   H37       1.0  0.83922  0.8311200000000002  0.04648  1.0000
  H   H38       1.0  0.9368299999999999  0.74543  0.91781  1.0000
  H   H39       1.0  0.026080000000000034  0.9264400000000003  0.025519999999999994  1.0000
  H   H40       1.0  0.11538999999999999  0.02459  0.05057  1.0000
  H   H41       1.0  0.97115  0.015220000000000003  0.05716  1.0000
  H   H42       1.0  0.6223599999999999  0.9268200000000002  0.16056  1.0000
  H   H43       1.0  0.81791  0.9071900000000003  0.17013  1.0000
  H   H44       1.0  0.34018999999999994  0.21178000000000002  0.12381  1.0000
  H   H45       1.0  0.32054000000000005  0.28062  0.9999099999999999  1.0000
  H   H46       1.0  0.33499  0.8696000000000003  0.90341  1.0000
  H   H47       1.0  0.32272  0.39427  0.14017  1.0000
  H   H48       1.0  0.7997  0.91193  0.82791  1.0000
  H   H49       1.0  0.9335899999999999  0.96819  0.84313  1.0000
  H   H50       1.0  0.84926  0.8854400000000001  0.8757099999999998  1.0000
  H   H51       1.0  0.28633  0.45914000000000005  0.01605  1.0000
  H   H52       1.0  0.21954  0.8238700000000002  0.84339  1.0000
  H   H53       1.0  0.4386799999999999  0.73583  0.02953  1.0000
  H   H54       1.0  0.34582999999999997  0.6394800000000003  0.00492  1.0000
  H   H55       1.0  0.45634  0.6018600000000001  0.03165  1.0000
  H   H56       1.0  0.15697  0.62927  0.7864399999999998  1.0000
  H   H57       1.0  0.057859999999999995  0.52703  0.8044  1.0000
  H   H58       1.0  0.14192  0.60799  0.83824  1.0000
  H   H59       1.0  0.98656  0.7592800000000002  0.20295  1.0000
  H   H60       1.0  0.97422  0.6482800000000002  0.17145  1.0000
  H   H61       1.0  0.8682199999999998  0.72555  0.17326999999999995  1.0000
  H   H62       1.0  0.07839  0.5381900000000001  0.15283  1.0000
  H   H63       1.0  0.19601  0.52759  0.18182  1.0000
  H   H64       1.0  0.15161  0.4336900000000001  0.14494  1.0000
  H   H65       1.0  0.6477399999999999  0.8585500000000003  0.4629399999999999  1.0000
  H   H66       1.0  0.17624  0.71744  0.32565  1.0000
  H   H67       1.0  0.27409000000000006  0.8192300000000002  0.3467899999999999  1.0000
  H   H68       1.0  0.05433999999999998  0.78999  0.5224399999999998  1.0000
  H   H69       1.0  0.8392  0.8311300000000001  0.4535199999999999  1.0000
  H   H70       1.0  0.93684  0.74543  0.58219  1.0000
  H   H71       1.0  0.026050000000000004  0.92643  0.47448  1.0000
  H   H72       1.0  0.11533999999999997  0.024580000000000008  0.44943  1.0000
  H   H73       1.0  0.9711099999999998  0.015210000000000001  0.44284  1.0000
  H   H74       1.0  0.6223599999999999  0.9268300000000003  0.33944  1.0000
  H   H75       1.0  0.81791  0.90718  0.3298699999999999  1.0000
  H   H76       1.0  0.34017  0.21177000000000007  0.3761799999999999  1.0000
  H   H77       1.0  0.32051  0.28060000000000007  0.50008  1.0000
  H   H78       1.0  0.33499  0.8696100000000002  0.59659  1.0000
  H   H79       1.0  0.32269  0.3942500000000001  0.35982  1.0000
  H   H80       1.0  0.7997099999999998  0.91194  0.67209  1.0000
  H   H81       1.0  0.9336  0.96819  0.65687  1.0000
  H   H82       1.0  0.8492699999999997  0.8854500000000001  0.62429  1.0000
  H   H83       1.0  0.28629  0.4591200000000001  0.48394999999999994  1.0000
  H   H84       1.0  0.21954  0.8238600000000003  0.6566  1.0000
  H   H85       1.0  0.4386699999999999  0.73585  0.47046  1.0000
  H   H86       1.0  0.34582999999999997  0.6395000000000002  0.49506999999999995  1.0000
  H   H87       1.0  0.45634  0.60188  0.46835  1.0000
  H   H88       1.0  0.15697999999999995  0.62926  0.7135499999999999  1.0000
  H   H89       1.0  0.05787  0.52703  0.6956  1.0000
  H   H90       1.0  0.14192  0.60799  0.66175  1.0000
  H   H91       1.0  0.9865499999999999  0.7592800000000002  0.29705  1.0000
  H   H92       1.0  0.9742099999999998  0.6482700000000001  0.32854  1.0000
  H   H93       1.0  0.8681999999999999  0.72555  0.32673  1.0000
  H   H94       1.0  0.07839  0.5382  0.34717  1.0000
  H   H95       1.0  0.19601  0.5276  0.31817  1.0000
  H   H96       1.0  0.15161  0.43371000000000004  0.3550599999999999  1.0000
  H   H97       1.0  0.35224  0.14147  0.9629399999999999  1.0000
  H   H98       1.0  0.8237399999999999  0.28258000000000005  0.82565  1.0000
  H   H99       1.0  0.7258699999999998  0.18079000000000006  0.84679  1.0000
  H   H100      1.0  0.9456599999999997  0.21001000000000006  0.02244  1.0000
  H   H101      1.0  0.16077  0.16888  0.95352  1.0000
  H   H102      1.0  0.06317  0.25457  0.08217999999999998  1.0000
  H   H103      1.0  0.97391  0.07356  0.97448  1.0000
  H   H104      1.0  0.88461  0.9754100000000002  0.9494299999999999  1.0000
  H   H105      1.0  0.02885000000000001  0.9847800000000001  0.94283  1.0000
  H   H106      1.0  0.37763  0.07318000000000001  0.83943  1.0000
  H   H107      1.0  0.18209  0.09281  0.82986  1.0000
  H   H108      1.0  0.6597999999999998  0.78822  0.87619  1.0000
  H   H109      1.0  0.67945  0.7193800000000002  9e-05  1.0000
  H   H110      1.0  0.665  0.1304  0.09659  1.0000
  H   H111      1.0  0.67727  0.6057300000000001  0.8598299999999999  1.0000
  H   H112      1.0  0.2003  0.08808000000000002  0.17207999999999998  1.0000
  H   H113      1.0  0.0664  0.03182  0.15686  1.0000
  H   H114      1.0  0.15072999999999998  0.11456  0.12429  1.0000
  H   H115      1.0  0.71366  0.54087  0.9839499999999999  1.0000
  H   H116      1.0  0.78046  0.17614  0.15659999999999993  1.0000
  H   H117      1.0  0.56131  0.26417  0.9704599999999999  1.0000
  H   H118      1.0  0.65416  0.36052  0.99507  1.0000
  H   H119      1.0  0.54365  0.39814  0.9683500000000002  1.0000
  H   H120      1.0  0.84302  0.37074  0.21355  1.0000
  H   H121      1.0  0.9421299999999998  0.47297000000000006  0.19559999999999994  1.0000
  H   H122      1.0  0.8580699999999998  0.3920100000000001  0.16176  1.0000
  H   H123      1.0  0.01343  0.24073000000000006  0.79705  1.0000
  H   H124      1.0  0.02577000000000003  0.3517200000000001  0.82854  1.0000
  H   H125      1.0  0.13176999999999997  0.2744500000000001  0.8267299999999997  1.0000
  H   H126      1.0  0.92161  0.46181  0.84716  1.0000
  H   H127      1.0  0.80398  0.47241  0.8181699999999997  1.0000
  H   H128      1.0  0.8483799999999998  0.56631  0.85506  1.0000
  H   H129      1.0  0.17886  0.40236  0.25  1.0000
  H   H130      1.0  0.04522  0.44208  0.25  1.0000
  H   H131      1.0  0.8211399999999999  0.59764  0.75  1.0000
  H   H132      1.0  0.9547799999999997  0.55792  0.75  1.0000
  C   C1        1.0  0.69894  0.55953  0.57934  1.0000
  C   C2        1.0  0.9559299999999997  0.1005  0.58763  1.0000
  C   C3        1.0  0.15738999999999997  0.13388000000000003  0.60908  1.0000
  C   C4        1.0  0.67219  0.35874  0.56835  1.0000
  C   C5        1.0  0.6549099999999999  0.87553  0.5513  1.0000
  C   C6        1.0  0.042039999999999994  0.14621000000000003  0.61299  1.0000
  C   C7        1.0  0.66932  0.76585  0.56086  1.0000
  C   C8        1.0  0.72823  0.13456  0.47914999999999996  1.0000
  C   C9        1.0  0.37711999999999996  0.10644000000000003  0.5983399999999999  1.0000
  C   C10       1.0  0.31511  0.13273  0.56625  1.0000
  C   C11       1.0  0.49335  0.09383  0.59239  1.0000
  C   C12       1.0  0.7963  0.24121000000000004  0.6471  1.0000
  C   C13       1.0  0.9834099999999999  0.31873000000000007  0.31289  1.0000
  C   C14       1.0  0.91088  0.20248  0.44794  1.0000
  C   C15       1.0  0.20725999999999994  0.14688  0.5716  1.0000
  C   C16       1.0  0.79878  0.16638  0.44396999999999986  1.0000
  C   C17       1.0  0.7141  0.4524800000000001  0.58903  1.0000
  C   C18       1.0  0.9935  0.20468000000000006  0.64067  1.0000
  C   C19       1.0  0.99648  0.24271000000000004  0.3408199999999999  1.0000
  C   C20       1.0  0.9760099999999999  0.22735  0.4145799999999999  1.0000
  C   C21       1.0  0.9294299999999999  0.21793  0.37649  1.0000
  C   C22       1.0  0.9614199999999998  0.02939  0.55332  1.0000
  C   C23       1.0  0.08465999999999999  0.1935  0.32721  1.0000
  C   C24       1.0  0.32884  0.09434  0.63595  1.0000
  C   C25       1.0  0.22002999999999998  0.10689  0.6411899999999999  1.0000
  C   C26       1.0  0.77136  0.42102  0.62137  1.0000
  C   C27       1.0  0.67053  0.7331600000000001  0.6003999999999999  1.0000
  C   C28       1.0  0.68191  0.69462  0.5306299999999998  1.0000
  C   C29       1.0  0.75191  0.15838000000000002  0.40608  1.0000
  C   C30       1.0  0.6825099999999997  0.63086  0.60943  1.0000
  C   C31       1.0  0.12781999999999996  0.10244  0.34446  1.0000
  C   C32       1.0  0.69925  0.5937800000000001  0.53974  1.0000
  C   C33       1.0  0.81653  0.18417  0.37282  1.0000
  C   C34       1.0  0.604  0.3444800000000001  0.53172  1.0000
  C   C35       1.0  0.9029499999999999  0.39254000000000006  0.3102399999999999  1.0000
  C   C36       1.0  0.0429  0.27135  0.67389  1.0000
  C   C37       1.0  0.83927  0.48297  0.65195  1.0000
  C   C38       1.0  0.30105  0.4404700000000001  0.07933999999999997  1.0000
  C   C39       1.0  0.044090000000000025  0.8995100000000001  0.08764  1.0000
  C   C40       1.0  0.84262  0.86613  0.10908  1.0000
  C   C41       1.0  0.32780999999999993  0.6412500000000001  0.06834999999999997  1.0000
  C   C42       1.0  0.34511  0.12447000000000003  0.0513  1.0000
  C   C43       1.0  0.9579699999999998  0.8538000000000002  0.11299999999999999  1.0000
  C   C44       1.0  0.3306799999999999  0.23414  0.060849999999999994  1.0000
  C   C45       1.0  0.27176  0.86541  0.97915  1.0000
  C   C46       1.0  0.6228899999999999  0.8935500000000001  0.09834  1.0000
  C   C47       1.0  0.6848999999999998  0.86728  0.06625  1.0000
  C   C48       1.0  0.50665  0.9061700000000003  0.0924  1.0000
  C   C49       1.0  0.20372  0.7587800000000001  0.1471  1.0000
  C   C50       1.0  0.016590000000000014  0.6812700000000002  0.8129  1.0000
  C   C51       1.0  0.0891  0.79751  0.94794  1.0000
  C   C52       1.0  0.79276  0.8531200000000002  0.07159  1.0000
  C   C53       1.0  0.20121  0.83361  0.94397  1.0000
  C   C54       1.0  0.28589  0.54752  0.08903  1.0000
  C   C55       1.0  0.006519999999999995  0.79533  0.14067  1.0000
  C   C56       1.0  0.003519999999999992  0.75729  0.84083  1.0000
  C   C57       1.0  0.02398  0.77265  0.91459  1.0000
  C   C58       1.0  0.07056  0.78208  0.8764999999999998  1.0000
  C   C59       1.0  0.03862000000000004  0.9706200000000003  0.05332999999999999  1.0000
  C   C60       1.0  0.9153299999999999  0.8064900000000003  0.82722  1.0000
  C   C61       1.0  0.6711699999999999  0.9056600000000002  0.13595999999999994  1.0000
  C   C62       1.0  0.7799799999999998  0.8931200000000002  0.14119  1.0000
  C   C63       1.0  0.22864000000000004  0.5789800000000002  0.12136999999999999  1.0000
  C   C64       1.0  0.32947  0.26685  0.10039  1.0000
  C   C65       1.0  0.3181  0.30539000000000005  0.03063  1.0000
  C   C66       1.0  0.24808  0.8416200000000001  0.90608  1.0000
  C   C67       1.0  0.3175  0.36914000000000013  0.10943  1.0000
  C   C68       1.0  0.8721600000000002  0.89755  0.8444599999999998  1.0000
  C   C69       1.0  0.30075  0.40623  0.03974  1.0000
  C   C70       1.0  0.18347000000000002  0.8158300000000002  0.87281  1.0000
  C   C71       1.0  0.39599999999999996  0.6555100000000001  0.03172  1.0000
  C   C72       1.0  0.09704999999999997  0.60746  0.81023  1.0000
  C   C73       1.0  0.9571099999999999  0.7286500000000002  0.17388999999999996  1.0000
  C   C74       1.0  0.16072999999999996  0.51702  0.15194999999999995  1.0000
  C   C75       1.0  0.30105  0.4404700000000001  0.42065  1.0000
  C   C76       1.0  0.04407000000000003  0.8995000000000002  0.4123599999999999  1.0000
  C   C77       1.0  0.8426099999999997  0.86612  0.39092  1.0000
  C   C78       1.0  0.3278  0.64126  0.43165  1.0000
  C   C79       1.0  0.3450899999999999  0.12447000000000003  0.44869  1.0000
  C   C80       1.0  0.9579499999999999  0.8537900000000003  0.3869999999999999  1.0000
  C   C81       1.0  0.3306799999999999  0.23415000000000005  0.43914  1.0000
  C   C82       1.0  0.27176999999999996  0.8654400000000002  0.52085  1.0000
  C   C83       1.0  0.62288  0.89356  0.40165999999999996  1.0000
  C   C84       1.0  0.6848799999999998  0.86728  0.43374  1.0000
  C   C85       1.0  0.50664  0.9061700000000003  0.4076  1.0000
  C   C86       1.0  0.20369999999999996  0.7587900000000001  0.3529  1.0000
  C   C87       1.0  0.016580000000000025  0.6812700000000002  0.6871  1.0000
  C   C88       1.0  0.08911  0.79752  0.55206  1.0000
  C   C89       1.0  0.79274  0.8531200000000002  0.4284  1.0000
  C   C90       1.0  0.20121999999999995  0.83362  0.55603  1.0000
  C   C91       1.0  0.28589  0.54752  0.41097  1.0000
  C   C92       1.0  0.0064900000000000365  0.7953200000000002  0.35933  1.0000
  C   C93       1.0  0.003519999999999992  0.75729  0.65917  1.0000
  C   C94       1.0  0.02398999999999997  0.77265  0.58541  1.0000
  C   C95       1.0  0.07056  0.78208  0.6235  1.0000
  C   C96       1.0  0.03858000000000001  0.9706100000000002  0.44667  1.0000
  C   C97       1.0  0.9153299999999999  0.8065000000000002  0.67278  1.0000
  C   C98       1.0  0.67116  0.9056600000000002  0.36405  1.0000
  C   C99       1.0  0.77997  0.89311  0.3588099999999999  1.0000
  C   C100      1.0  0.22864000000000004  0.5789900000000001  0.37862  1.0000
  C   C101      1.0  0.32945999999999986  0.26684  0.3995999999999999  1.0000
  C   C102      1.0  0.31809  0.30538  0.46937  1.0000
  C   C103      1.0  0.24808  0.8416300000000001  0.59392  1.0000
  C   C104      1.0  0.31748999999999994  0.36914000000000013  0.39056  1.0000
  C   C105      1.0  0.8721699999999998  0.8975600000000002  0.65554  1.0000
  C   C106      1.0  0.30074  0.40623  0.46026  1.0000
  C   C107      1.0  0.18347000000000002  0.8158300000000002  0.62718  1.0000
  C   C108      1.0  0.39599  0.6555200000000001  0.46828  1.0000
  C   C109      1.0  0.09704999999999997  0.60746  0.68976  1.0000
  C   C110      1.0  0.95709  0.7286500000000002  0.3261  1.0000
  C   C111      1.0  0.16073  0.51703  0.34805  1.0000
  C   C112      1.0  0.69895  0.55953  0.92066  1.0000
  C   C113      1.0  0.9559  0.10049  0.91236  1.0000
  C   C114      1.0  0.15737  0.13387  0.89092  1.0000
  C   C115      1.0  0.67219  0.3587500000000001  0.93165  1.0000
  C   C116      1.0  0.65488  0.87553  0.9487  1.0000
  C   C117      1.0  0.042019999999999995  0.1462  0.887  1.0000
  C   C118      1.0  0.66931  0.76586  0.93915  1.0000
  C   C119      1.0  0.72823  0.13459000000000002  0.02085  1.0000
  C   C120      1.0  0.3771  0.10645  0.90166  1.0000
  C   C121      1.0  0.3151  0.13273  0.93374  1.0000
  C   C122      1.0  0.4933399999999999  0.09383  0.9075999999999997  1.0000
  C   C123      1.0  0.79628  0.24122  0.8529  1.0000
  C   C124      1.0  0.9834099999999999  0.31873000000000007  0.18709999999999993  1.0000
  C   C125      1.0  0.9108899999999998  0.20249000000000006  0.05206  1.0000
  C   C126      1.0  0.20723999999999998  0.14688  0.9284  1.0000
  C   C127      1.0  0.7987899999999998  0.16639  0.05603  1.0000
  C   C128      1.0  0.7141  0.4524900000000001  0.91097  1.0000
  C   C129      1.0  0.9934799999999998  0.20467  0.8593299999999998  1.0000
  C   C130      1.0  0.9964699999999999  0.24272000000000002  0.15917  1.0000
  C   C131      1.0  0.97602  0.22735  0.08541  1.0000
  C   C132      1.0  0.9294299999999999  0.21793  0.1235  1.0000
  C   C133      1.0  0.9613799999999999  0.02938  0.9466699999999998  1.0000
  C   C134      1.0  0.08467  0.19351000000000004  0.17278  1.0000
  C   C135      1.0  0.3288299999999999  0.09434  0.86404  1.0000
  C   C136      1.0  0.22001  0.10688  0.8587999999999998  1.0000
  C   C137      1.0  0.7713499999999999  0.42102  0.87862  1.0000
  C   C138      1.0  0.6705199999999998  0.7331500000000002  0.8996  1.0000
  C   C139      1.0  0.6818899999999998  0.69461  0.9693699999999998  1.0000
  C   C140      1.0  0.75191  0.15838000000000002  0.09391999999999998  1.0000
  C   C141      1.0  0.6825  0.63086  0.89057  1.0000
  C   C142      1.0  0.12783  0.10245000000000003  0.15552999999999995  1.0000
  C   C143      1.0  0.69925  0.5937700000000001  0.9602599999999999  1.0000
  C   C144      1.0  0.8165199999999998  0.18417  0.12718  1.0000
  C   C145      1.0  0.604  0.34449000000000013  0.96828  1.0000
  C   C146      1.0  0.9029499999999999  0.39254000000000006  0.18976  1.0000
  C   C147      1.0  0.04289  0.27135  0.8261  1.0000
  C   C148      1.0  0.83927  0.4829900000000001  0.8480499999999997  1.0000
  C   C149      1.0  0.08996999999999997  0.37582  0.25  1.0000
  C   C150      1.0  0.91003  0.62418  0.75  1.0000
  N   N1        1.0  0.8844999999999997  0.19149000000000005  0.63146  1.0000
  N   N2        1.0  0.7004299999999999  0.2759  0.58725  1.0000
  N   N3        1.0  0.7608299999999999  0.3145900000000001  0.6193199999999998  1.0000
  N   N4        1.0  0.8610099999999998  0.1279  0.59939  1.0000
  N   N5        1.0  0.06385999999999999  0.31522  0.28529  1.0000
  N   N6        1.0  0.12512000000000004  0.23753  0.29285  1.0000
  N   N7        1.0  0.11552  0.80851  0.13147  1.0000
  N   N8        1.0  0.29958  0.7241000000000001  0.08725  1.0000
  N   N9        1.0  0.23917000000000002  0.6854100000000001  0.11931999999999998  1.0000
  N   N10       1.0  0.13901  0.8721  0.0994  1.0000
  N   N11       1.0  0.93614  0.68478  0.78529  1.0000
  N   N12       1.0  0.8748799999999998  0.76247  0.79285  1.0000
  N   N13       1.0  0.11548999999999998  0.80851  0.36853  1.0000
  N   N14       1.0  0.29956999999999995  0.72411  0.41275  1.0000
  N   N15       1.0  0.23916  0.6854100000000001  0.38068  1.0000
  N   N16       1.0  0.13898  0.8721  0.4006  1.0000
  N   N17       1.0  0.93614  0.68478  0.71471  1.0000
  N   N18       1.0  0.87487  0.76247  0.70715  1.0000
  N   N19       1.0  0.8844799999999998  0.19149000000000005  0.86853  1.0000
  N   N20       1.0  0.70042  0.2759  0.9127499999999997  1.0000
  N   N21       1.0  0.76082  0.3146000000000001  0.88068  1.0000
  N   N22       1.0  0.8609899999999999  0.1279  0.9005999999999997  1.0000
  N   N23       1.0  0.06384999999999999  0.31522  0.21469999999999995  1.0000
  N   N24       1.0  0.12512000000000004  0.23753  0.20715  1.0000
  O   O1        1.0  0.69791  0.94585  0.57547  1.0000
  O   O2        1.0  0.55607  0.0882  0.62128  1.0000
  O   O3        1.0  0.5291  0.09372  0.55581  1.0000
  O   O4        1.0  0.7727499999999998  0.14536  0.51354  1.0000
  O   O5        1.0  0.62874  0.09917000000000001  0.47239  1.0000
  O   O6        1.0  0.6031599999999999  0.8908  0.51989  1.0000
  O   O7        1.0  0.30216  0.054150000000000004  0.07547  1.0000
  O   O8        1.0  0.44392  0.91179  0.12128  1.0000
  O   O9        1.0  0.47091  0.90629  0.05581999999999999  1.0000
  O   O10       1.0  0.22723  0.8546500000000002  0.01353  1.0000
  O   O11       1.0  0.37127  0.90076  0.9723899999999999  1.0000
  O   O12       1.0  0.39683  0.1092  0.01988  1.0000
  O   O13       1.0  0.30209  0.054150000000000004  0.42453  1.0000
  O   O14       1.0  0.44392999999999994  0.9118  0.37872  1.0000
  O   O15       1.0  0.4709  0.90629  0.44419  1.0000
  O   O16       1.0  0.22725000000000004  0.8546400000000002  0.48645999999999995  1.0000
  O   O17       1.0  0.37125999999999987  0.9008300000000002  0.52761  1.0000
  O   O18       1.0  0.39684  0.1092  0.48009999999999997  1.0000
  O   O19       1.0  0.69784  0.94585  0.9245299999999997  1.0000
  O   O20       1.0  0.5560799999999998  0.08821000000000001  0.87871  1.0000
  O   O21       1.0  0.5290799999999999  0.09371000000000002  0.94418  1.0000
  O   O22       1.0  0.77276  0.14535000000000003  0.9864599999999999  1.0000
  O   O23       1.0  0.6287199999999998  0.09924  0.0276  1.0000
  O   O24       1.0  0.6031699999999999  0.8908  0.9801199999999999  1.0000
