data_image0
_chemical_formula_structural       Mn6H108C132O36
_chemical_formula_sum              "Mn6 H108 C132 O36"
_cell_length_a       15.4334
_cell_length_b       19.51641
_cell_length_c       19.753
_cell_angle_alpha    112.95800999999999
_cell_angle_beta     95.62956
_cell_angle_gamma    103.61759000000002

_space_group_name_H-M_alt    "P 1"
_space_group_IT_number       1

loop_
  _space_group_symop_operation_xyz
  'x, y, z'

loop_
  _atom_site_type_symbol
  _atom_site_label
  _atom_site_symmetry_multiplicity
  _atom_site_fract_x
  _atom_site_fract_y
  _atom_site_fract_z
  _atom_site_occupancy
  Mn  Mn1       1.0  0.4463899999999998  0.1531199999999999  0.7937799999999998  1.0000
  Mn  Mn2       1.0  0.8323599999999997  0.12378999999999993  0.9012299999999999  1.0000
  Mn  Mn3       1.0  0.62495  0.11208999999999994  0.7861699999999998  1.0000
  Mn  Mn4       1.0  0.55246  0.84694  0.20685  1.0000
  Mn  Mn5       1.0  0.37397  0.8888200000000002  0.21412999999999996  1.0000
  Mn  Mn6       1.0  0.1658799999999999  0.87589  0.09884999999999997  1.0000
  H   H1        1.0  0.68329  0.50504  0.6021099999999999  1.0000
  H   H2        1.0  0.6816899999999998  0.64371  0.37643  1.0000
  H   H3        1.0  0.9938999999999999  0.27584  0.42893999999999993  1.0000
  H   H4        1.0  0.51153  0.29559  0.29918  1.0000
  H   H5        1.0  0.7873999999999999  0.6616600000000002  0.46992  1.0000
  H   H6        1.0  0.15274999999999994  0.49955000000000005  0.39305999999999996  1.0000
  H   H7        1.0  0.0664  0.17561  0.1072  1.0000
  H   H8        1.0  0.7546899999999997  0.58991  0.60269  1.0000
  H   H9        1.0  0.9024799999999997  0.33297  0.28032  1.0000
  H   H10       1.0  0.92899  0.30179  0.49937  1.0000
  H   H11       1.0  0.4652499999999999  0.30346  0.37941  1.0000
  H   H12       1.0  0.13624999999999995  0.24862  0.24493  1.0000
  H   H13       1.0  0.07999999999999997  0.334  0.6272  1.0000
  H   H14       1.0  0.07031999999999994  0.3289499999999999  0.7398699999999998  1.0000
  H   H15       1.0  0.29292  0.63282  0.65866  1.0000
  H   H16       1.0  0.8352999999999998  0.26088  0.14391  1.0000
  H   H17       1.0  0.23305  0.94048  0.73906  1.0000
  H   H18       1.0  0.60661  0.9167299999999999  0.63021  1.0000
  H   H19       1.0  0.4710099999999999  0.37048  0.48492  1.0000
  H   H20       1.0  0.5158  0.29739  0.9868399999999999  1.0000
  H   H21       1.0  0.2847099999999999  0.62472  0.56588  1.0000
  H   H22       1.0  0.4751499999999999  0.87439  0.69381  1.0000
  H   H23       1.0  0.23482999999999996  0.53741  0.73668  1.0000
  H   H24       1.0  0.44530000000000003  0.31467  0.69148  1.0000
  H   H25       1.0  0.8240399999999997  0.76625  0.63774  1.0000
  H   H26       1.0  0.64304  0.58677  0.61792  1.0000
  H   H27       1.0  0.7388999999999998  0.5780200000000001  0.3254  1.0000
  H   H28       1.0  0.95237  0.35268999999999995  0.3901099999999999  1.0000
  H   H29       1.0  0.63552  0.18848  0.61363  1.0000
  H   H30       1.0  0.21237999999999999  0.61853  0.72916  1.0000
  H   H31       1.0  0.6701099999999999  0.24226  0.184  1.0000
  H   H32       1.0  0.62365  0.56523  0.28974  1.0000
  H   H33       1.0  0.21490999999999993  0.58907  0.4693  1.0000
  H   H34       1.0  0.47632999999999975  0.3806599999999999  0.6081399999999999  1.0000
  H   H35       1.0  0.4829699999999998  0.3886899999999999  0.23994  1.0000
  H   H36       1.0  0.02647  0.2736  0.51595  1.0000
  H   H37       1.0  0.14147999999999994  0.79998  0.68486  1.0000
  H   H38       1.0  0.6736500000000001  0.16852000000000003  0.04847  1.0000
  H   H39       1.0  0.5835699999999999  0.7860299999999998  0.5244899999999998  1.0000
  H   H40       1.0  0.12019999999999997  0.42611  0.70617  1.0000
  H   H41       1.0  0.09579999999999997  0.56688  0.44007  1.0000
  H   H42       1.0  0.6689199999999997  0.25541  0.52919  1.0000
  H   H43       1.0  0.84232  0.8939300000000001  0.74398  1.0000
  H   H44       1.0  0.013190000000000028  0.43034000000000006  0.3721699999999999  1.0000
  H   H45       1.0  0.8159499999999997  0.36555  0.67489  1.0000
  H   H46       1.0  0.7779399999999997  0.6565600000000001  0.55626  1.0000
  H   H47       1.0  0.51422  0.37273  0.12016999999999999  1.0000
  H   H48       1.0  0.41922  0.33379  0.31427  1.0000
  H   H49       1.0  0.12515999999999994  0.55003  0.74101  1.0000
  H   H50       1.0  0.9949899999999996  0.25782999999999995  0.8088399999999998  1.0000
  H   H51       1.0  0.38458  0.73468  0.63704  1.0000
  H   H52       1.0  0.58001  0.45487  0.23418  1.0000
  H   H53       1.0  0.7414999999999998  0.2930599999999999  0.7444199999999997  1.0000
  H   H54       1.0  0.54307  0.4500700000000001  0.56581  1.0000
  H   H55       1.0  0.9322999999999998  0.8230099999999999  0.8927099999999998  1.0000
  H   H56       1.0  0.5171299999999998  0.61138  0.7601  1.0000
  H   H57       1.0  0.7661699999999998  0.05913999999999995  0.26085999999999987  1.0000
  H   H58       1.0  0.35735999999999984  0.41321  0.3820599999999999  1.0000
  H   H59       1.0  0.9041  0.43277  0.55968  1.0000
  H   H60       1.0  0.97327  0.72588  0.48374  1.0000
  H   H61       1.0  0.32844  0.75709  0.81659  1.0000
  H   H62       1.0  0.2609899999999999  0.42193  0.67451  1.0000
  H   H63       1.0  0.37628999999999985  0.43488999999999983  0.7102199999999997  1.0000
  H   H64       1.0  0.48368999999999984  0.70176  0.01319  1.0000
  H   H65       1.0  0.5239699999999998  0.125  0.3061  1.0000
  H   H66       1.0  0.004529999999999985  0.7413  0.19049  1.0000
  H   H67       1.0  0.15483999999999995  0.10633999999999999  0.2572  1.0000
  H   H68       1.0  0.41975  0.54549  0.76588  1.0000
  H   H69       1.0  0.005839999999999981  0.72372  0.5707899999999999  1.0000
  H   H70       1.0  0.48548999999999987  0.62702  0.87969  1.0000
  H   H71       1.0  0.07082  0.69781  0.5004  1.0000
  H   H72       1.0  0.9196799999999998  0.66546  0.37252  1.0000
  H   H73       1.0  0.86265  0.7500999999999999  0.7547799999999999  1.0000
  H   H74       1.0  0.9865999999999999  0.56933  0.6276199999999998  1.0000
  H   H75       1.0  0.24569999999999995  0.41011  0.39728  1.0000
  H   H76       1.0  0.76456  0.4623399999999999  0.26326  1.0000
  H   H77       1.0  0.8470999999999996  0.5000199999999999  0.6067499999999998  1.0000
  H   H78       1.0  0.45745  0.5501099999999999  0.4342699999999999  1.0000
  H   H79       1.0  0.55508  0.6872900000000002  0.30975  1.0000
  H   H80       1.0  0.16450999999999993  0.73936  0.85579  1.0000
  H   H81       1.0  0.5242299999999996  0.6203999999999997  0.3924299999999999  1.0000
  H   H82       1.0  0.7849899999999997  0.41042999999999996  0.5305299999999998  1.0000
  H   H83       1.0  0.58076  0.66612  0.68572  1.0000
  H   H84       1.0  0.7061499999999998  0.36711  0.34132  1.0000
  H   H85       1.0  0.3641699999999999  0.81254  0.38812999999999986  1.0000
  H   H86       1.0  0.22203999999999993  0.34376  0.4439699999999999  1.0000
  H   H87       1.0  0.41666999999999993  0.21353999999999998  0.47421  1.0000
  H   H88       1.0  0.17550999999999994  0.23451  0.36347  1.0000
  H   H89       1.0  0.39138  0.08225  0.36864999999999987  1.0000
  H   H90       1.0  0.21370999999999996  0.33764  0.53005  1.0000
  H   H91       1.0  0.5348899999999998  0.69674  0.62076  1.0000
  H   H92       1.0  0.31838999999999995  0.3564799999999999  0.6234399999999998  1.0000
  H   H93       1.0  0.61437  0.26484  0.36288  1.0000
  H   H94       1.0  0.8741099999999998  0.44947  0.25868  1.0000
  H   H95       1.0  0.48870999999999987  0.70457  0.7010499999999997  1.0000
  H   H96       1.0  0.31713999999999976  0.4948999999999999  0.39772999999999986  1.0000
  H   H97       1.0  0.71456  0.37519  0.43412  1.0000
  H   H98       1.0  0.52922  0.62979  0.51517  1.0000
  H   H99       1.0  0.18415999999999996  0.6344199999999999  0.3250499999999999  1.0000
  H   H100      1.0  0.8797799999999999  0.57339  0.29356  1.0000
  H   H101      1.0  0.047099999999999975  0.64712  0.6098199999999998  1.0000
  H   H102      1.0  0.09747999999999996  0.66734  0.71949  1.0000
  H   H103      1.0  0.32498999999999995  0.8304600000000001  0.95222  1.0000
  H   H104      1.0  0.33055  0.74443  0.47160999999999986  1.0000
  H   H105      1.0  0.2582299999999999  0.70678  0.25529  1.0000
  H   H106      1.0  0.9293599999999999  0.67035  0.25968  1.0000
  H   H107      1.0  0.8576399999999997  0.19978  0.31495  1.0000
  H   H108      1.0  0.7867999999999998  0.38112  0.27066  1.0000
  C   C1        1.0  0.9047399999999998  0.17392  0.03549999999999998  1.0000
  C   C2        1.0  0.7011999999999998  0.76768  0.57471  1.0000
  C   C3        1.0  0.21416999999999992  0.8169599999999999  0.6862599999999998  1.0000
  C   C4        1.0  0.13313  0.5041  0.50174  1.0000
  C   C5        1.0  0.6527099999999998  0.88266  0.63163  1.0000
  C   C6        1.0  0.5572299999999998  0.41539999999999994  0.26021  1.0000
  C   C7        1.0  0.031429999999999986  0.2104  0.14582  1.0000
  C   C8        1.0  0.58385  0.45607999999999993  0.34479  1.0000
  C   C9        1.0  0.59426  0.18568  0.92873  1.0000
  C   C10       1.0  0.63986  0.81039  0.57291  1.0000
  C   C11       1.0  0.54975  0.41367000000000004  0.38539  1.0000
  C   C12       1.0  0.9986099999999999  0.30616999999999994  0.4895099999999999  1.0000
  C   C13       1.0  0.64712  0.52099  0.50175  1.0000
  C   C14       1.0  0.9984699999999999  0.32145  0.74028  1.0000
  C   C15       1.0  0.6019399999999999  0.23122  0.61229  1.0000
  C   C16       1.0  0.53837  0.24781  0.65807  1.0000
  C   C17       1.0  0.07378999999999997  0.39346  0.6508  1.0000
  C   C18       1.0  0.6764299999999996  0.56426  0.46123999999999993  1.0000
  C   C19       1.0  0.8544299999999998  0.3416599999999999  0.7043599999999998  1.0000
  C   C20       1.0  0.59429  0.31325  0.16062999999999997  1.0000
  C   C21       1.0  0.77503  0.79781  0.63607  1.0000
  C   C22       1.0  0.7257499999999998  0.91356  0.69405  1.0000
  C   C23       1.0  0.09484  0.43212000000000006  0.5991999999999998  1.0000
  C   C24       1.0  0.4020999999999999  0.85778  0.6915  1.0000
  C   C25       1.0  0.9009999999999998  0.25832  0.16658  1.0000
  C   C26       1.0  0.58043  0.4473500000000001  0.4639  1.0000
  C   C27       1.0  0.54904  0.32834  0.10535  1.0000
  C   C28       1.0  0.2569799999999999  0.7587  0.6573  1.0000
  C   C29       1.0  0.24504999999999988  0.6219999999999999  0.6082899999999998  1.0000
  C   C30       1.0  0.6733499999999998  0.58216  0.34127  1.0000
  C   C31       1.0  0.86354  0.26998  0.7802499999999998  1.0000
  C   C32       1.0  0.6436799999999998  0.53266  0.3826399999999999  1.0000
  C   C33       1.0  0.8133599999999997  0.3014199999999999  0.7429599999999997  1.0000
  C   C34       1.0  0.9394999999999998  0.29964  0.24318999999999996  1.0000
  C   C35       1.0  0.62092  0.2685  0.56567  1.0000
  C   C36       1.0  0.1739899999999999  0.5441  0.57909  1.0000
  C   C37       1.0  0.63751  0.2543  0.1402  1.0000
  C   C38       1.0  0.15053999999999998  0.54189  0.4485999999999999  1.0000
  C   C39       1.0  0.15054  0.51009  0.62869  1.0000
  C   C40       1.0  0.8172699999999998  0.22249000000000002  0.81701  1.0000
  C   C41       1.0  0.5128199999999999  0.34010999999999986  0.6099099999999997  1.0000
  C   C42       1.0  0.5761399999999998  0.32315  0.56428  1.0000
  C   C43       1.0  0.54943  0.2856  0.03021  1.0000
  C   C44       1.0  0.024980000000000002  0.29677  0.27139  1.0000
  C   C45       1.0  0.057189999999999956  0.39007999999999987  0.5214299999999998  1.0000
  C   C46       1.0  0.5419299999999998  0.40674  0.5097399999999997  1.0000
  C   C47       1.0  0.7386799999999997  0.6467900000000001  0.50252  1.0000
  C   C48       1.0  0.35127000000000014  0.7792300000000002  0.66009  1.0000
  C   C49       1.0  0.07044999999999996  0.2510899999999999  0.22236999999999996  1.0000
  C   C50       1.0  0.5137499999999998  0.20797999999999994  0.70645  1.0000
  C   C51       1.0  0.35979  0.91626  0.71982  1.0000
  C   C52       1.0  0.5941099999999998  0.22800999999999996  0.00907  1.0000
  C   C53       1.0  0.021009999999999987  0.38776999999999995  0.3938499999999999  1.0000
  C   C54       1.0  0.18257999999999988  0.5563099999999999  0.7129199999999999  1.0000
  C   C55       1.0  0.6839799999999998  0.55234  0.58528  1.0000
  C   C56       1.0  0.48320999999999986  0.33268  0.34321  1.0000
  C   C57       1.0  0.9463499999999998  0.21386000000000002  0.11694  1.0000
  C   C58       1.0  0.7376299999999997  0.9917999999999998  0.7551699999999998  1.0000
  C   C59       1.0  0.63798  0.21245000000000003  0.06497  1.0000
  C   C60       1.0  0.26524  0.89478  0.71685  1.0000
  C   C61       1.0  0.4118099999999999  0.9995400000000001  0.7501899999999999  1.0000
  C   C62       1.0  0.07302999999999998  0.42789  0.47395  1.0000
  C   C63       1.0  0.9470399999999995  0.35083  0.70185  1.0000
  C   C64       1.0  0.78584  0.87007  0.69573  1.0000
  C   C65       1.0  0.4947099999999998  0.3026699999999999  0.6562799999999998  1.0000
  C   C66       1.0  0.9563499999999998  0.28144  0.77919  1.0000
  C   C67       1.0  0.51686  0.66745  0.65689  1.0000
  C   C68       1.0  0.40537  0.81322  0.07154999999999997  1.0000
  C   C69       1.0  0.04322999999999997  0.71779  0.22022999999999995  1.0000
  C   C70       1.0  0.7419599999999997  0.24087  0.34249  1.0000
  C   C71       1.0  0.45834999999999976  0.59337  0.49032  1.0000
  C   C72       1.0  0.5970199999999998  0.14179  0.30845  1.0000
  C   C73       1.0  0.36057999999999985  0.7864699999999999  0.9355099999999998  1.0000
  C   C74       1.0  0.0011900000000000116  0.69337  0.51023  1.0000
  C   C75       1.0  0.9285899999999998  0.74796  0.7774399999999998  1.0000
  C   C76       1.0  0.31641999999999987  0.44765999999999995  0.41466  1.0000
  C   C77       1.0  0.8490499999999997  0.48949000000000004  0.37111  1.0000
  C   C78       1.0  0.05266  0.78531  0.88291  1.0000
  C   C79       1.0  0.48738999999999993  0.66077  0.39072  1.0000
  C   C80       1.0  0.4046899999999999  0.7707  0.9911199999999998  1.0000
  C   C81       1.0  0.4050299999999999  0.68648  0.83958  1.0000
  C   C82       1.0  0.5054199999999998  0.69876  0.3448  1.0000
  C   C83       1.0  0.09855  0.74156  0.83323  1.0000
  C   C84       1.0  0.8167799999999996  0.44332000000000005  0.28687999999999997  1.0000
  C   C85       1.0  0.7339799999999997  0.10486  0.28307  1.0000
  C   C86       1.0  0.4614199999999999  0.75357  0.34336  1.0000
  C   C87       1.0  0.7540699999999998  0.37772999999999995  0.39157999999999993  1.0000
  C   C88       1.0  0.8492799999999997  0.4577  0.55119  1.0000
  C   C89       1.0  0.25902  0.00769999999999998  0.24456  1.0000
  C   C90       1.0  0.32368  0.43595  0.53881  1.0000
  C   C91       1.0  0.39779999999999993  0.76972  0.38914  1.0000
  C   C92       1.0  0.22413999999999995  0.20249999999999999  0.3645  1.0000
  C   C93       1.0  0.64772  0.22033000000000003  0.33984  1.0000
  C   C94       1.0  0.05277999999999998  0.64879  0.29793  1.0000
  C   C95       1.0  0.060169999999999946  0.70031  0.7565999999999998  1.0000
  C   C96       1.0  0.26186  0.35331  0.49743  1.0000
  C   C97       1.0  0.18270999999999996  0.77732  0.18317999999999995  1.0000
  C   C98       1.0  0.27178999999999987  0.08602000000000003  0.30584  1.0000
  C   C99       1.0  0.3265999999999999  0.41797999999999996  0.65869  1.0000
  C   C100      1.0  0.41609999999999986  0.54419  0.65531  1.0000
  C   C101      1.0  0.3562699999999999  0.4676  0.6174299999999998  1.0000
  C   C102      1.0  0.97442  0.70271  0.72842  1.0000
  C   C103      1.0  0.18634  0.69813  0.25673  1.0000
  C   C104      1.0  0.96741  0.78847  0.85401  1.0000
  C   C105      1.0  0.09337000000000004  0.82469  0.96451  1.0000
  C   C106      1.0  0.3597599999999999  0.18929000000000004  0.42629  1.0000
  C   C107      1.0  0.5871899999999998  0.00026000000000001743  0.24958  1.0000
  C   C108      1.0  0.3612299999999999  0.74501  0.86026  1.0000
  C   C109      1.0  0.2988599999999999  0.23247999999999996  0.42505  1.0000
  C   C110      1.0  0.44277  0.58494  0.7399099999999998  1.0000
  C   C111      1.0  0.8254799999999999  0.4555  0.42072  1.0000
  C   C112      1.0  0.44962999999999986  0.71333  0.96981  1.0000
  C   C113      1.0  0.9785799999999998  0.61187  0.60596  1.0000
  C   C114      1.0  0.86652  0.49547  0.49805  1.0000
  C   C115      1.0  0.21203999999999992  0.12995999999999996  0.30484999999999995  1.0000
  C   C116      1.0  0.9260899999999997  0.6060800000000001  0.3489799999999999  1.0000
  C   C117      1.0  0.9426499999999995  0.60944  0.47834  1.0000
  C   C118      1.0  0.0012199999999999859  0.67792  0.2592899999999999  1.0000
  C   C119      1.0  0.35312999999999994  0.47913000000000006  0.49822999999999995  1.0000
  C   C120      1.0  0.4856899999999999  0.79342  0.29497  1.0000
  C   C121      1.0  0.90501  0.56738  0.4005699999999999  1.0000
  C   C122      1.0  0.41981  0.55275  0.53613  1.0000
  C   C123      1.0  0.45025999999999994  0.58651  0.61467  1.0000
  C   C124      1.0  0.37872999999999984  0.7317799999999999  0.43519999999999986  1.0000
  C   C125      1.0  0.34561999999999976  0.11669999999999997  0.36763999999999997  1.0000
  C   C126      1.0  0.7849499999999998  0.18269  0.31361  1.0000
  C   C127      1.0  0.4502599999999999  0.6711  0.89464  1.0000
  C   C128      1.0  0.13611999999999996  0.72947  0.21942999999999993  1.0000
  C   C129      1.0  0.6394199999999998  0.08341999999999997  0.28010999999999997  1.0000
  C   C130      1.0  0.92666  0.57168  0.5258299999999999  1.0000
  C   C131      1.0  0.14541999999999994  0.65803  0.29547  1.0000
  C   C132      1.0  0.4238199999999999  0.6772  0.43624  1.0000
  O   O1        1.0  0.20084999999999995  0.68349  0.62719  1.0000
  O   O2        1.0  0.9486399999999998  0.14238000000000006  0.98636  1.0000
  O   O3        1.0  0.6012699999999997  0.3541  0.23630999999999996  1.0000
  O   O4        1.0  0.06852999999999997  0.33729  0.34621  1.0000
  O   O5        1.0  0.5972  0.35732  0.51665  1.0000
  O   O6        1.0  0.69198  0.033189999999999976  0.74094  1.0000
  O   O7        1.0  0.6795799999999997  0.69676  0.51354  1.0000
  O   O8        1.0  0.4973699999999998  0.020679999999999976  0.7531399999999999  1.0000
  O   O9        1.0  0.6366399999999998  0.13554  0.90543  1.0000
  O   O10       1.0  0.5496099999999998  0.15632  0.7104  1.0000
  O   O11       1.0  0.7924899999999998  0.01384999999999992  0.8180299999999998  1.0000
  O   O12       1.0  0.7311399999999998  0.20930000000000007  0.81073  1.0000
  O   O13       1.0  0.36559999999999987  0.04923999999999991  0.7715199999999998  1.0000
  O   O14       1.0  0.98079  0.38907  0.66004  1.0000
  O   O15       1.0  0.8225599999999997  0.1732  0.013359999999999997  1.0000
  O   O16       1.0  0.45154999999999984  0.22556999999999994  0.7441599999999999  1.0000
  O   O17       1.0  0.8663399999999998  0.19689999999999994  0.8521699999999998  1.0000
  O   O18       1.0  0.5492299999999998  0.20357  0.88168  1.0000
  O   O19       1.0  0.01918999999999997  0.6107999999999999  0.33997999999999995  1.0000
  O   O20       1.0  0.5015599999999999  0.9792300000000002  0.24643  1.0000
  O   O21       1.0  0.4027800000000001  0.6425600000000001  0.48349  1.0000
  O   O22       1.0  0.45146  0.8463600000000001  0.2921799999999999  1.0000
  O   O23       1.0  0.04782000000000005  0.8538800000000001  0.01328  1.0000
  O   O24       1.0  0.4507899999999999  0.79529  0.11823999999999998  1.0000
  O   O25       1.0  0.931  0.66226  0.6536  1.0000
  O   O26       1.0  0.6330699999999998  0.95039  0.22821999999999998  1.0000
  O   O27       1.0  0.7978899999999998  0.31605  0.37249  1.0000
  O   O28       1.0  0.13375  0.80288  0.14792999999999998  1.0000
  O   O29       1.0  0.36332  0.86362  0.09504  1.0000
  O   O30       1.0  0.32152999999999987  0.30379  0.48574  1.0000
  O   O31       1.0  0.20395  0.98601  0.18188  1.0000
  O   O32       1.0  0.54603  0.7740599999999999  0.25575  1.0000
  O   O33       1.0  0.3987499999999998  0.6462899999999999  0.7638699999999998  1.0000
  O   O34       1.0  0.17642999999999995  0.8275299999999998  0.9870999999999999  1.0000
  O   O35       1.0  0.26898999999999984  0.7910199999999998  0.19018999999999997  1.0000
  O   O36       1.0  0.30424  0.9658200000000001  0.25844999999999996  1.0000
