data_image0
_chemical_formula_structural       Cu8Mo16H64C96N24O28
_chemical_formula_sum              "Cu8 Mo16 H64 C96 N24 O28"
_cell_length_a       10.90607
_cell_length_b       14.43262
_cell_length_c       23.739250000000002
_cell_angle_alpha    80.53362
_cell_angle_beta     76.45608
_cell_angle_gamma    67.56695

_symmetry_space_group_name_H-M    'P 1'
_symmetry_Int_Tables_number       1

loop_
  _symmetry_equiv_pos_as_xyz
  'x,y,z'

loop_
  _atom_site_type_symbol
  _atom_site_label
  _atom_site_symmetry_multiplicity
  _atom_site_fract_x
  _atom_site_fract_y
  _atom_site_fract_z
  _atom_site_occupancy
  Cu  Cu1       1.0  0.65101  0.8054799999999999  0.10166  1.0000
  Cu  Cu2       1.0  0.3482899999999999  0.9373500000000001  0.1383  1.0000
  Cu  Cu3       1.0  0.5588800000000003  0.69397  0.39977999999999997  1.0000
  Cu  Cu4       1.0  0.42482000000000014  0.56369  0.36171999999999993  1.0000
  Cu  Cu5       1.0  0.34814000000000006  0.19464999999999996  0.89846  1.0000
  Cu  Cu6       1.0  0.6522200000000002  0.062430000000000006  0.86161  1.0000
  Cu  Cu7       1.0  0.4400000000000001  0.30484999999999995  0.60132  1.0000
  Cu  Cu8       1.0  0.5750800000000003  0.43636  0.63819  1.0000
  Mo  Mo1       1.0  0.0897  0.52304  0.98497  1.0000
  Mo  Mo2       1.0  0.07841999999999999  0.41322  0.10325  1.0000
  Mo  Mo3       1.0  0.94841  0.61653  0.08742999999999997  1.0000
  Mo  Mo4       1.0  0.8761800000000003  0.71164  0.9821499999999997  1.0000
  Mo  Mo5       1.0  0.5950000000000006  0.98211  0.5151399999999999  1.0000
  Mo  Mo6       1.0  0.59519  0.08622999999999999  0.39773  1.0000
  Mo  Mo7       1.0  0.6572500000000002  0.8795399999999999  0.41107999999999995  1.0000
  Mo  Mo8       1.0  0.57168  0.79031  0.51609  1.0000
  Mo  Mo9       1.0  0.9093399999999999  0.47611  0.01504  1.0000
  Mo  Mo10      1.0  0.9258  0.58577  0.89496  1.0000
  Mo  Mo11      1.0  0.049179999999999995  0.38794000000000006  0.9133599999999998  1.0000
  Mo  Mo12      1.0  0.12389  0.28657  0.01737  1.0000
  Mo  Mo13      1.0  0.40287  0.021059999999999992  0.48536  1.0000
  Mo  Mo14      1.0  0.40372000000000013  0.91118  0.60285  1.0000
  Mo  Mo15      1.0  0.3490400000000001  0.11636000000000002  0.58716  1.0000
  Mo  Mo16      1.0  0.42656000000000005  0.21403  0.48342999999999997  1.0000
  H   H1        1.0  0.60323  0.74278  0.00199  1.0000
  H   H2        1.0  0.47387  0.6472299999999999  0.98094  1.0000
  H   H3        1.0  0.33101  0.57916  0.06495  1.0000
  H   H4        1.0  0.33552000000000004  0.60667  0.16592999999999997  1.0000
  H   H5        1.0  0.67325  0.54585  0.1559  1.0000
  H   H6        1.0  0.7888  0.36106  0.15939  1.0000
  H   H7        1.0  0.7245599999999999  0.25498  0.24986  1.0000
  H   H8        1.0  0.5628400000000001  0.34242000000000006  0.33451999999999993  1.0000
  H   H9        1.0  0.71789  0.8588  0.20231999999999994  1.0000
  H   H10       1.0  0.6792800000000001  0.01694  0.24568  1.0000
  H   H11       1.0  0.5659400000000001  0.18414  0.19245999999999996  1.0000
  H   H12       1.0  0.50092  0.18359  0.09759  1.0000
  H   H13       1.0  0.77039  0.06246  0.05448  1.0000
  H   H14       1.0  0.96176  0.12078999999999998  0.01495  1.0000
  H   H15       1.0  0.02602999999999995  0.15400000000000003  0.907  1.0000
  H   H16       1.0  0.8924299999999998  0.12401999999999999  0.84328  1.0000
  H   H17       1.0  0.3479  0.7572  0.49807  1.0000
  H   H18       1.0  0.10049000000000008  0.85339  0.51941  1.0000
  H   H19       1.0  0.9740100000000002  0.92125  0.43556  1.0000
  H   H20       1.0  0.10838999999999999  0.89318  0.3345  1.0000
  H   H21       1.0  0.37467  0.9537  0.34382  1.0000
  H   H22       1.0  0.30882000000000004  0.13839000000000004  0.34027  1.0000
  H   H23       1.0  0.22953999999999997  0.24475  0.25  1.0000
  H   H24       1.0  0.23962000000000003  0.15777  0.16565  1.0000
  H   H25       1.0  0.77971  0.64081  0.2973  1.0000
  H   H26       1.0  0.94304  0.48277  0.25359  1.0000
  H   H27       1.0  0.9437600000000002  0.31545  0.30677999999999994  1.0000
  H   H28       1.0  0.78293  0.31622  0.40229  1.0000
  H   H29       1.0  0.8888200000000002  0.43766  0.44515999999999994  1.0000
  H   H30       1.0  0.09904000000000002  0.37919  0.4845999999999999  1.0000
  H   H31       1.0  0.08691000000000003  0.34626  0.59254  1.0000
  H   H32       1.0  0.858  0.37632  0.65644  1.0000
  H   H33       1.0  0.39672  0.25717  0.99811  1.0000
  H   H34       1.0  0.52584  0.35288  0.01908  1.0000
  H   H35       1.0  0.6687699999999999  0.42084  0.9350099999999999  1.0000
  H   H36       1.0  0.6642600000000001  0.39328  0.8340799999999999  1.0000
  H   H37       1.0  0.32714  0.4541  0.84417  1.0000
  H   H38       1.0  0.2113700000000001  0.63892  0.8406199999999999  1.0000
  H   H39       1.0  0.27541  0.74495  0.7501599999999999  1.0000
  H   H40       1.0  0.4372200000000001  0.65755  0.66543  1.0000
  H   H41       1.0  0.28205999999999987  0.14123  0.79774  1.0000
  H   H42       1.0  0.3208499999999999  0.9832  0.7542599999999999  1.0000
  H   H43       1.0  0.4340599999999999  0.8158700000000002  0.8074899999999998  1.0000
  H   H44       1.0  0.49928000000000006  0.81631  0.90235  1.0000
  H   H45       1.0  0.22916000000000006  0.93785  0.9454799999999999  1.0000
  H   H46       1.0  0.03824999999999992  0.87899  0.98506  1.0000
  H   H47       1.0  0.97397  0.8459699999999999  0.09302  1.0000
  H   H48       1.0  0.10767999999999996  0.8760500000000001  0.15668  1.0000
  H   H49       1.0  0.6521799999999999  0.24258000000000005  0.502  1.0000
  H   H50       1.0  0.89932  0.14664  0.4806  1.0000
  H   H51       1.0  0.026070000000000065  0.07886  0.5643899999999998  1.0000
  H   H52       1.0  0.89177  0.10690000000000002  0.66548  1.0000
  H   H53       1.0  0.6247800000000001  0.0464  0.65626  1.0000
  H   H54       1.0  0.69085  0.86169  0.65974  1.0000
  H   H55       1.0  0.7703200000000002  0.7552900000000001  0.7499699999999999  1.0000
  H   H56       1.0  0.7604800000000003  0.8422200000000001  0.8343599999999998  1.0000
  H   H57       1.0  0.2201100000000001  0.35915  0.70268  1.0000
  H   H58       1.0  0.05693000000000001  0.51718  0.74639  1.0000
  H   H59       1.0  0.056320000000000064  0.68451  0.69316  1.0000
  H   H60       1.0  0.21736999999999987  0.68364  0.5977  1.0000
  H   H61       1.0  0.11104000000000001  0.56288  0.55484  1.0000
  H   H62       1.0  0.9008800000000002  0.62087  0.51537  1.0000
  H   H63       1.0  0.9131799999999998  0.65337  0.40744  1.0000
  H   H64       1.0  0.14195999999999995  0.62359  0.34352  1.0000
  C   C1        1.0  0.53997  0.71314  0.03683  1.0000
  C   C2        1.0  0.4679900000000001  0.6590700000000002  0.02567  1.0000
  C   C3        1.0  0.3914400000000001  0.6199  0.07194  1.0000
  C   C4        1.0  0.3926899999999999  0.63559  0.12826  1.0000
  C   C5        1.0  0.46526  0.6925  0.13631  1.0000
  C   C6        1.0  0.45426999999999995  0.71981  0.19527  1.0000
  C   C7        1.0  0.47941  0.6489500000000001  0.24387999999999999  1.0000
  C   C8        1.0  0.55121  0.542  0.24173  1.0000
  C   C9        1.0  0.64683  0.49798  0.19360999999999998  1.0000
  C   C10       1.0  0.71093  0.39467  0.19585999999999998  1.0000
  C   C11       1.0  0.67827  0.33648000000000006  0.24636  1.0000
  C   C12       1.0  0.5875400000000001  0.38421999999999995  0.29366  1.0000
  C   C13       1.0  0.67425  0.93281  0.18037  1.0000
  C   C14       1.0  0.65206  0.02151000000000001  0.20378999999999997  1.0000
  C   C15       1.0  0.58878  0.11341000000000001  0.17445  1.0000
  C   C16       1.0  0.55282  0.11419  0.12164  1.0000
  C   C17       1.0  0.58219  0.022350000000000005  0.10007999999999997  1.0000
  C   C18       1.0  0.54341  0.01435  0.04563  1.0000
  C   C19       1.0  0.6062300000000002  0.03518000000000005  0.9885399999999998  1.0000
  C   C20       1.0  0.7232100000000001  0.06664000000000002  0.97049  1.0000
  C   C21       1.0  0.7967000000000001  0.07956  0.00802  1.0000
  C   C22       1.0  0.90435  0.11153000000000002  0.98592  1.0000
  C   C23       1.0  0.9416  0.12928000000000006  0.9255799999999997  1.0000
  C   C24       1.0  0.8675700000000001  0.11283000000000003  0.89048  1.0000
  C   C25       1.0  0.28961999999999993  0.78692  0.46333  1.0000
  C   C26       1.0  0.15209999999999996  0.84116  0.47468  1.0000
  C   C27       1.0  0.08250000000000002  0.8804199999999999  0.42847  1.0000
  C   C28       1.0  0.15684999999999996  0.86429  0.37209  1.0000
  C   C29       1.0  0.29486000000000023  0.80745  0.36384  1.0000
  C   C30       1.0  0.37057  0.78006  0.30477  1.0000
  C   C31       1.0  0.37237999999999993  0.85097  0.25606  1.0000
  C   C32       1.0  0.33513  0.95777  0.25817  1.0000
  C   C33       1.0  0.33851000000000014  0.0016500000000000089  0.30616999999999994  1.0000
  C   C34       1.0  0.30141999999999997  0.10487999999999999  0.30388  1.0000
  C   C35       1.0  0.26104999999999995  0.1633  0.25355  1.0000
  C   C36       1.0  0.26531  0.11581  0.20639  1.0000
  C   C37       1.0  0.7883900000000003  0.5668299999999997  0.31944999999999996  1.0000
  C   C38       1.0  0.8785799999999999  0.47815  0.29565  1.0000
  C   C39       1.0  0.8778800000000001  0.38610999999999995  0.32506  1.0000
  C   C40       1.0  0.7898500000000003  0.3855  0.37811  1.0000
  C   C41       1.0  0.7060499999999998  0.47732  0.39992999999999995  1.0000
  C   C42       1.0  0.60412  0.48565  0.45434999999999987  1.0000
  C   C43       1.0  0.6301199999999999  0.46498  0.51133  1.0000
  C   C44       1.0  0.7606399999999999  0.43335  0.52919  1.0000
  C   C45       1.0  0.8851000000000001  0.42064  0.49166  1.0000
  C   C46       1.0  0.002760000000000015  0.38861000000000007  0.5136599999999999  1.0000
  C   C47       1.0  0.99627  0.37101  0.5740699999999999  1.0000
  C   C48       1.0  0.87016  0.38735  0.60917  1.0000
  C   C49       1.0  0.4598499999999999  0.28681  0.96322  1.0000
  C   C50       1.0  0.53183  0.34091  0.97435  1.0000
  C   C51       1.0  0.60833  0.38006  0.92806  1.0000
  C   C52       1.0  0.60707  0.3643200000000001  0.8717399999999997  1.0000
  C   C53       1.0  0.5344900000000002  0.30737  0.86374  1.0000
  C   C54       1.0  0.5454299999999999  0.28011  0.80478  1.0000
  C   C55       1.0  0.52071  0.351  0.75612  1.0000
  C   C56       1.0  0.44872  0.4579800000000001  0.75826  1.0000
  C   C57       1.0  0.35331000000000023  0.5019699999999999  0.8064199999999998  1.0000
  C   C58       1.0  0.2891399999999999  0.6052900000000001  0.80414  1.0000
  C   C59       1.0  0.3217800000000001  0.66346  0.7536299999999999  1.0000
  C   C60       1.0  0.4124600000000001  0.6157600000000001  0.7063099999999999  1.0000
  C   C61       1.0  0.32564  0.06720000000000001  0.81969  1.0000
  C   C62       1.0  0.34787999999999986  0.97852  0.79621  1.0000
  C   C63       1.0  0.4111699999999999  0.88657  0.82552  1.0000
  C   C64       1.0  0.44723  0.88571  0.8783399999999998  1.0000
  C   C65       1.0  0.41787000000000013  0.97751  0.8999199999999999  1.0000
  C   C66       1.0  0.4567300000000001  0.98557  0.95432  1.0000
  C   C67       1.0  0.39367999999999986  0.96493  0.01141  1.0000
  C   C68       1.0  0.27676000000000006  0.93342  0.029419999999999998  1.0000
  C   C69       1.0  0.20309000000000013  0.9206199999999999  0.9919199999999999  1.0000
  C   C70       1.0  0.09552999999999999  0.8884799999999999  0.014059999999999998  1.0000
  C   C71       1.0  0.058400000000000035  0.87072  0.0744  1.0000
  C   C72       1.0  0.13243999999999997  0.88716  0.10947999999999997  1.0000
  C   C73       1.0  0.71022  0.21288  0.53681  1.0000
  C   C74       1.0  0.8477799999999998  0.15889  0.52536  1.0000
  C   C75       1.0  0.91758  0.11962000000000002  0.57151  1.0000
  C   C76       1.0  0.84326  0.13576999999999995  0.6279  1.0000
  C   C77       1.0  0.70523  0.19245000000000004  0.63619  1.0000
  C   C78       1.0  0.6297000000000004  0.21986  0.69529  1.0000
  C   C79       1.0  0.62749  0.14904  0.74399  1.0000
  C   C80       1.0  0.6648499999999999  0.04215  0.74183  1.0000
  C   C81       1.0  0.66125  0.9983999999999998  0.69386  1.0000
  C   C82       1.0  0.6982900000000004  0.89519  0.6961499999999999  1.0000
  C   C83       1.0  0.73874  0.83674  0.74643  1.0000
  C   C84       1.0  0.7346799999999998  0.88417  0.79362  1.0000
  C   C85       1.0  0.2115  0.43312  0.68056  1.0000
  C   C86       1.0  0.12133000000000019  0.52184  0.7043099999999999  1.0000
  C   C87       1.0  0.12219999999999989  0.61382  0.67489  1.0000
  C   C88       1.0  0.21028000000000005  0.61438  0.62185  1.0000
  C   C89       1.0  0.29399  0.52249  0.60005  1.0000
  C   C90       1.0  0.3958300000000001  0.5144599999999998  0.5456  1.0000
  C   C91       1.0  0.36980999999999997  0.53547  0.48861  1.0000
  C   C92       1.0  0.23932000000000003  0.56686  0.47077  1.0000
  C   C93       1.0  0.11486000000000009  0.57969  0.5083399999999999  1.0000
  C   C94       1.0  0.9971299999999997  0.61156  0.48635  1.0000
  C   C95       1.0  0.0037599999999999635  0.6290000000000001  0.42593  1.0000
  C   C96       1.0  0.12985000000000002  0.61258  0.39081  1.0000
  N   N1        1.0  0.53818  0.7313999999999999  0.09118  1.0000
  N   N2        1.0  0.52573  0.48507  0.29238  1.0000
  N   N3        1.0  0.40618999999999994  0.8187900000000001  0.20089999999999997  1.0000
  N   N4        1.0  0.6387699999999998  0.93288  0.12959  1.0000
  N   N5        1.0  0.44229  0.97871  0.05669  1.0000
  N   N6        1.0  0.7621200000000001  0.08216000000000005  0.9114899999999998  1.0000
  N   N7        1.0  0.36151  0.7685  0.40893  1.0000
  N   N8        1.0  0.30302  0.015010000000000004  0.20768999999999999  1.0000
  N   N9        1.0  0.4271199999999999  0.68115  0.29911  1.0000
  N   N10       1.0  0.7024499999999998  0.5669300000000003  0.3705299999999999  1.0000
  N   N11       1.0  0.4783299999999999  0.5217700000000001  0.4432599999999999  1.0000
  N   N12       1.0  0.7550999999999999  0.41752000000000006  0.58821  1.0000
  N   N13       1.0  0.46164000000000033  0.26838  0.90889  1.0000
  N   N14       1.0  0.4740900000000002  0.51489  0.7075899999999999  1.0000
  N   N15       1.0  0.59314  0.18118000000000006  0.7991199999999999  1.0000
  N   N16       1.0  0.36111999999999994  0.06704999999999998  0.8705  1.0000
  N   N17       1.0  0.5575000000000002  0.021590000000000015  0.94326  1.0000
  N   N18       1.0  0.23809  0.91764  0.08843  1.0000
  N   N19       1.0  0.63819  0.23123  0.5912  1.0000
  N   N20       1.0  0.69721  0.98493  0.7922499999999999  1.0000
  N   N21       1.0  0.5732899999999999  0.31881  0.7009699999999999  1.0000
  N   N22       1.0  0.29748  0.43293  0.62949  1.0000
  N   N23       1.0  0.5216200000000002  0.47863  0.5566599999999999  1.0000
  N   N24       1.0  0.24492999999999993  0.58227  0.41173  1.0000
  O   O1        1.0  0.16857000000000005  0.5019399999999999  0.06178999999999999  1.0000
  O   O2        1.0  0.82683  0.7155100000000001  0.12792  1.0000
  O   O3        1.0  0.03873000000000003  0.67257  0.01647  1.0000
  O   O4        1.0  0.7590600000000001  0.8193600000000001  0.015129999999999996  1.0000
  O   O5        1.0  0.8011800000000001  0.71836  0.91181  1.0000
  O   O6        1.0  0.98734  0.50823  0.15647  1.0000
  O   O7        1.0  0.05224000000000007  0.63497  0.9143699999999998  1.0000
  O   O8        1.0  0.7337599999999999  0.99905  0.4379799999999999  1.0000
  O   O9        1.0  0.67157  0.78253  0.3707599999999999  1.0000
  O   O10       1.0  0.72939  0.82895  0.48203  1.0000
  O   O11       1.0  0.6001300000000002  0.67811  0.4867099999999999  1.0000
  O   O12       1.0  0.4244800000000001  0.78159  0.58849  1.0000
  O   O13       1.0  0.65069  0.99203  0.3438  1.0000
  O   O14       1.0  0.59985  0.8658  0.58417  1.0000
  O   O15       1.0  0.8340799999999999  0.49689000000000005  0.9374699999999999  1.0000
  O   O16       1.0  0.17376000000000016  0.28667  0.8729799999999998  1.0000
  O   O17       1.0  0.9611699999999997  0.3270700000000001  0.98424  1.0000
  O   O18       1.0  0.24013000000000007  0.17845  0.9856599999999998  1.0000
  O   O19       1.0  0.20003  0.28238  0.08834  1.0000
  O   O20       1.0  0.013250000000000118  0.4919  0.8409199999999998  1.0000
  O   O21       1.0  0.94942  0.36462  0.08562  1.0000
  O   O22       1.0  0.26591  0.0038299999999999988  0.56353  1.0000
  O   O23       1.0  0.32780000000000037  0.21584  0.6281099999999998  1.0000
  O   O24       1.0  0.27018  0.17263  0.51709  1.0000
  O   O25       1.0  0.40048000000000006  0.32381  0.51419  1.0000
  O   O26       1.0  0.5740200000000001  0.21592  0.41176  1.0000
  O   O27       1.0  0.35198999999999997  0.00718  0.65623  1.0000
  O   O28       1.0  0.39919  0.13465  0.41561  1.0000
