data_image0
_chemical_formula_structural       Zn12H96C168S12O72
_chemical_formula_sum              "Zn12 H96 C168 S12 O72"
_cell_length_a       16.25899
_cell_length_b       16.78012
_cell_length_c       20.75765
_cell_angle_alpha    90.00249
_cell_angle_beta     90.00090000000002
_cell_angle_gamma    100.71161999999998

_space_group_name_H-M_alt    "P 1"
_space_group_IT_number       1

loop_
  _space_group_symop_operation_xyz
  'x, y, z'

loop_
  _atom_site_type_symbol
  _atom_site_label
  _atom_site_symmetry_multiplicity
  _atom_site_fract_x
  _atom_site_fract_y
  _atom_site_fract_z
  _atom_site_occupancy
  Zn  Zn1       1.0  0.51906  0.74744  0.8229399999999998  1.0000
  Zn  Zn2       1.0  0.4067  0.57345  0.8489899999999998  1.0000
  Zn  Zn3       1.0  0.59922  0.92366  0.85842  1.0000
  Zn  Zn4       1.0  0.9809499999999999  0.75257  0.32294  1.0000
  Zn  Zn5       1.0  0.09327999999999997  0.9265299999999997  0.34901  1.0000
  Zn  Zn6       1.0  0.90078  0.57623  0.3583899999999999  1.0000
  Zn  Zn7       1.0  0.48095  0.25257  0.17706  1.0000
  Zn  Zn8       1.0  0.5932999999999998  0.42655  0.15100999999999998  1.0000
  Zn  Zn9       1.0  0.40078  0.07635  0.14158  1.0000
  Zn  Zn10      1.0  0.01905  0.24742999999999998  0.67706  1.0000
  Zn  Zn11      1.0  0.90672  0.07347  0.65099  1.0000
  Zn  Zn12      1.0  0.09922  0.42377  0.6416099999999999  1.0000
  H   H1        1.0  0.81756  0.6804  0.9445599999999997  1.0000
  H   H2        1.0  0.84075  0.93418  0.7758299999999999  1.0000
  H   H3        1.0  0.98111  0.90927  0.74172  1.0000
  H   H4        1.0  0.72749  0.43346  0.00506  1.0000
  H   H5        1.0  0.7539  0.67754  0.79913  1.0000
  H   H6        1.0  0.038269999999999985  0.84369  0.60658  1.0000
  H   H7        1.0  0.36991  0.50633  0.52158  1.0000
  H   H8        1.0  0.001309999999999986  0.78931  0.49477  1.0000
  H   H9        1.0  0.97168  0.54542  0.5674499999999999  1.0000
  H   H10       1.0  0.89476  0.65209  0.76609  1.0000
  H   H11       1.0  0.017820000000000006  0.56814  0.7842199999999999  1.0000
  H   H12       1.0  0.36522  0.50149  0.64154  1.0000
  H   H13       1.0  0.88074  0.38027  0.9542599999999999  1.0000
  H   H14       1.0  0.541  0.72741  0.64996  1.0000
  H   H15       1.0  0.010260000000000005  0.59873  0.6780699999999998  1.0000
  H   H16       1.0  0.67198  0.6903  0.90877  1.0000
  H   H17       1.0  0.16727999999999996  0.63521  0.36732999999999993  1.0000
  H   H18       1.0  0.58381  0.44287999999999994  0.9660299999999998  1.0000
  H   H19       1.0  0.54184  0.73537  0.5294899999999999  1.0000
  H   H20       1.0  0.4408000000000001  0.79493  0.44031  1.0000
  H   H21       1.0  0.32247  0.86463  0.41437  1.0000
  H   H22       1.0  0.9307299999999998  0.3246  0.85234  1.0000
  H   H23       1.0  0.96441  0.62355  0.88289  1.0000
  H   H24       1.0  0.28743  0.56459  0.39202  1.0000
  H   H25       1.0  0.68241  0.81991  0.44444  1.0000
  H   H26       1.0  0.6591999999999998  0.56576  0.27592  1.0000
  H   H27       1.0  0.5188999999999998  0.59072  0.24179999999999993  1.0000
  H   H28       1.0  0.77248  0.06682  0.5048299999999999  1.0000
  H   H29       1.0  0.7461999999999998  0.8224  0.29915  1.0000
  H   H30       1.0  0.46157  0.65626  0.10681999999999998  1.0000
  H   H31       1.0  0.13010000000000002  0.9937600000000001  0.02166  1.0000
  H   H32       1.0  0.49872  0.71051  0.9949599999999998  1.0000
  H   H33       1.0  0.52834  0.95448  0.06746999999999999  1.0000
  H   H34       1.0  0.60537  0.84792  0.26614  1.0000
  H   H35       1.0  0.4824399999999999  0.93201  0.28416  1.0000
  H   H36       1.0  0.13483  0.99856  0.14161  1.0000
  H   H37       1.0  0.61939  0.11991  0.45423999999999987  1.0000
  H   H38       1.0  0.95889  0.77272  0.15001  1.0000
  H   H39       1.0  0.48947  0.90126  0.17809999999999995  1.0000
  H   H40       1.0  0.82801  0.80994  0.40875999999999996  1.0000
  H   H41       1.0  0.33264  0.86466  0.8673199999999998  1.0000
  H   H42       1.0  0.91619  0.05737  0.46599999999999997  1.0000
  H   H43       1.0  0.9579999999999997  0.76483  0.029549999999999996  1.0000
  H   H44       1.0  0.05916999999999998  0.70505  0.9404699999999999  1.0000
  H   H45       1.0  0.17746  0.6353  0.9144199999999999  1.0000
  H   H46       1.0  0.56973  0.17563  0.3521599999999999  1.0000
  H   H47       1.0  0.53552  0.87666  0.3829999999999999  1.0000
  H   H48       1.0  0.21252  0.93537  0.89204  1.0000
  H   H49       1.0  0.18244  0.3196  0.05544  1.0000
  H   H50       1.0  0.15925  0.06583  0.22416999999999998  1.0000
  H   H51       1.0  0.01889  0.09074  0.25827999999999995  1.0000
  H   H52       1.0  0.27251  0.56654  0.9949399999999999  1.0000
  H   H53       1.0  0.2461  0.32246  0.20087  1.0000
  H   H54       1.0  0.96174  0.15631  0.3934199999999999  1.0000
  H   H55       1.0  0.6300899999999998  0.49366999999999994  0.4784199999999999  1.0000
  H   H56       1.0  0.9986900000000001  0.21069  0.50523  1.0000
  H   H57       1.0  0.028320000000000005  0.45458  0.43255  1.0000
  H   H58       1.0  0.10523999999999997  0.34791  0.23391  1.0000
  H   H59       1.0  0.98218  0.43187  0.21577999999999997  1.0000
  H   H60       1.0  0.63478  0.49852  0.35846  1.0000
  H   H61       1.0  0.11926  0.61974  0.04574  1.0000
  H   H62       1.0  0.459  0.27259  0.3500399999999999  1.0000
  H   H63       1.0  0.98974  0.40128  0.3219299999999999  1.0000
  H   H64       1.0  0.32802  0.3097  0.09122999999999998  1.0000
  H   H65       1.0  0.83272  0.36479  0.6326699999999998  1.0000
  H   H66       1.0  0.4161899999999999  0.55713  0.03397  1.0000
  H   H67       1.0  0.4581599999999999  0.26464  0.47051  1.0000
  H   H68       1.0  0.5592  0.20508  0.55969  1.0000
  H   H69       1.0  0.67753  0.13537  0.58563  1.0000
  H   H70       1.0  0.06926999999999998  0.6754  0.14765999999999999  1.0000
  H   H71       1.0  0.03559  0.37645  0.11711  1.0000
  H   H72       1.0  0.71257  0.43542  0.6079799999999999  1.0000
  H   H73       1.0  0.31759  0.1801  0.55556  1.0000
  H   H74       1.0  0.34080000000000005  0.43424  0.7240799999999998  1.0000
  H   H75       1.0  0.4811  0.40928  0.7582  1.0000
  H   H76       1.0  0.22752  0.93318  0.49517  1.0000
  H   H77       1.0  0.2538  0.17761  0.70085  1.0000
  H   H78       1.0  0.53844  0.34375  0.8931799999999999  1.0000
  H   H79       1.0  0.8699  0.00624  0.97834  1.0000
  H   H80       1.0  0.50128  0.28949  0.00504  1.0000
  H   H81       1.0  0.4716599999999999  0.04553  0.93253  1.0000
  H   H82       1.0  0.39463  0.15208  0.7338599999999997  1.0000
  H   H83       1.0  0.5175599999999998  0.068  0.71584  1.0000
  H   H84       1.0  0.86517  0.00144  0.8583899999999999  1.0000
  H   H85       1.0  0.38061  0.88009  0.54576  1.0000
  H   H86       1.0  0.04111  0.22729  0.84999  1.0000
  H   H87       1.0  0.51054  0.09875  0.8219  1.0000
  H   H88       1.0  0.17199  0.19006  0.59124  1.0000
  H   H89       1.0  0.66736  0.13535  0.13268  1.0000
  H   H90       1.0  0.08381000000000002  0.94263  0.5339999999999999  1.0000
  H   H91       1.0  0.042  0.23517  0.9704499999999999  1.0000
  H   H92       1.0  0.94083  0.29496  0.05953  1.0000
  H   H93       1.0  0.8225399999999998  0.3647  0.08558  1.0000
  H   H94       1.0  0.43027000000000004  0.82438  0.6478399999999999  1.0000
  H   H95       1.0  0.46448  0.12334000000000002  0.6169999999999999  1.0000
  H   H96       1.0  0.78748  0.06463999999999999  0.10797  1.0000
  C   C1        1.0  0.76598  0.62912  0.9492899999999997  1.0000
  C   C2        1.0  0.8529599999999998  0.87278  0.7740799999999998  1.0000
  C   C3        1.0  0.93106  0.85922  0.75435  1.0000
  C   C4        1.0  0.71516  0.48862000000000005  0.98263  1.0000
  C   C5        1.0  0.80413  0.72762  0.7869699999999998  1.0000
  C   C6        1.0  0.02386  0.7788  0.5970699999999999  1.0000
  C   C7        1.0  0.37011  0.67598  0.41726  1.0000
  C   C8        1.0  0.40582  0.55509  0.55008  1.0000
  C   C9        1.0  0.0035500000000000106  0.74868  0.53538  1.0000
  C   C10       1.0  0.78961  0.80747  0.79072  1.0000
  C   C11       1.0  0.98618  0.61034  0.57658  1.0000
  C   C12       1.0  0.53769  0.57265  0.9068199999999997  1.0000
  C   C13       1.0  0.8823900000000001  0.71355  0.7681499999999999  1.0000
  C   C14       1.0  0.9854399999999999  0.52699  0.82022  1.0000
  C   C15       1.0  0.91855  0.50469  0.92339  1.0000
  C   C16       1.0  0.40403  0.55228  0.61721  1.0000
  C   C17       1.0  0.9451700000000001  0.77968  0.75214  1.0000
  C   C18       1.0  0.23761  0.75374  0.38976  1.0000
  C   C19       1.0  0.70657  0.82294  0.81269  1.0000
  C   C20       1.0  0.90862  0.42055  0.91592  1.0000
  C   C21       1.0  0.50345  0.6799  0.6212599999999999  1.0000
  C   C22       1.0  0.97518  0.44285  0.8114899999999999  1.0000
  C   C23       1.0  0.007350000000000006  0.64021  0.63822  1.0000
  C   C24       1.0  0.6853700000000001  0.63463  0.9295099999999998  1.0000
  C   C25       1.0  0.22729  0.66912  0.3835  1.0000
  C   C26       1.0  0.9837  0.66436  0.5253  1.0000
  C   C27       1.0  0.63518  0.49421000000000004  0.96142  1.0000
  C   C28       1.0  0.45504  0.61371  0.72495  1.0000
  C   C29       1.0  0.50427  0.68408  0.55425  1.0000
  C   C30       1.0  0.95689  0.6326499999999999  0.46063  1.0000
  C   C31       1.0  0.38098  0.76018  0.42446  1.0000
  C   C32       1.0  0.45573  0.62105  0.5192499999999999  1.0000
  C   C33       1.0  0.16727999999999996  0.79545  0.3722299999999999  1.0000
  C   C34       1.0  0.62048  0.56677  0.9340099999999999  1.0000
  C   C35       1.0  0.3145  0.79905  0.41039999999999993  1.0000
  C   C36       1.0  0.93699  0.38964  0.8594799999999998  1.0000
  C   C37       1.0  0.45327  0.61438  0.65308  1.0000
  C   C38       1.0  0.95645  0.55837  0.8759599999999998  1.0000
  C   C39       1.0  0.007299999999999992  0.41094  0.75139  1.0000
  C   C40       1.0  0.77995  0.55577  0.9750499999999999  1.0000
  C   C41       1.0  0.025160000000000002  0.7242  0.64791  1.0000
  C   C42       1.0  0.2936  0.62987  0.39733  1.0000
  C   C43       1.0  0.73402  0.87115  0.44919999999999993  1.0000
  C   C44       1.0  0.64705  0.62718  0.27414  1.0000
  C   C45       1.0  0.56896  0.64077  0.25442  1.0000
  C   C46       1.0  0.78485  0.01163  0.4824899999999999  1.0000
  C   C47       1.0  0.69594  0.77234  0.28698999999999997  1.0000
  C   C48       1.0  0.47608  0.72114  0.09724999999999999  1.0000
  C   C49       1.0  0.12986  0.82399  0.9173599999999998  1.0000
  C   C50       1.0  0.09417999999999997  0.94499  0.05014  1.0000
  C   C51       1.0  0.49653  0.75119  0.03555  1.0000
  C   C52       1.0  0.7104300000000001  0.69249  0.29076  1.0000
  C   C53       1.0  0.5138699999999998  0.88956  0.07665  1.0000
  C   C54       1.0  0.96238  0.92746  0.40685  1.0000
  C   C55       1.0  0.6176799999999998  0.7864399999999999  0.2682  1.0000
  C   C56       1.0  0.51474  0.97321  0.32016  1.0000
  C   C57       1.0  0.58144  0.9955200000000001  0.4233999999999999  1.0000
  C   C58       1.0  0.09598999999999998  0.94779  0.11727  1.0000
  C   C59       1.0  0.5548699999999998  0.72032  0.25221999999999994  1.0000
  C   C60       1.0  0.2623199999999999  0.74618  0.8897799999999999  1.0000
  C   C61       1.0  0.79348  0.67703  0.31270999999999993  1.0000
  C   C62       1.0  0.5915499999999998  0.07966  0.41587  1.0000
  C   C63       1.0  0.9964800000000001  0.82023  0.12133999999999999  1.0000
  C   C64       1.0  0.52501  0.05734  0.31143  1.0000
  C   C65       1.0  0.49254  0.85976  0.13828999999999997  1.0000
  C   C66       1.0  0.81465  0.86563  0.42946999999999996  1.0000
  C   C67       1.0  0.27263  0.8307899999999998  0.8835099999999998  1.0000
  C   C68       1.0  0.51645  0.8355  0.0254  1.0000
  C   C69       1.0  0.8648499999999998  0.00603  0.4613499999999999  1.0000
  C   C70       1.0  0.045009999999999994  0.88636  0.22501  1.0000
  C   C71       1.0  0.99564  0.81607  0.05432  1.0000
  C   C72       1.0  0.5430899999999997  0.8672899999999998  0.9607  1.0000
  C   C73       1.0  0.11899  0.73978  0.9245699999999999  1.0000
  C   C74       1.0  0.04423  0.87903  0.01931  1.0000
  C   C75       1.0  0.33267  0.7045  0.87223  1.0000
  C   C76       1.0  0.8795799999999999  0.93344  0.43399999999999994  1.0000
  C   C77       1.0  0.18544  0.70088  0.91046  1.0000
  C   C78       1.0  0.56331  0.11058  0.35938  1.0000
  C   C79       1.0  0.04673  0.88572  0.15314999999999998  1.0000
  C   C80       1.0  0.54361  0.94183  0.37596  1.0000
  C   C81       1.0  0.49276  0.08925  0.25137  1.0000
  C   C82       1.0  0.7200500000000001  0.94448  0.47498  1.0000
  C   C83       1.0  0.47481  0.77578  0.14806  1.0000
  C   C84       1.0  0.20636  0.87008  0.8973699999999999  1.0000
  C   C85       1.0  0.2340199999999999  0.37088  0.05070999999999999  1.0000
  C   C86       1.0  0.14703999999999995  0.12723  0.22591999999999998  1.0000
  C   C87       1.0  0.06894  0.14079  0.24564999999999998  1.0000
  C   C88       1.0  0.28484  0.51138  0.01737  1.0000
  C   C89       1.0  0.19588  0.27238  0.21302999999999994  1.0000
  C   C90       1.0  0.97614  0.2212  0.40293  1.0000
  C   C91       1.0  0.62989  0.32403  0.58274  1.0000
  C   C92       1.0  0.59419  0.44492  0.44993  1.0000
  C   C93       1.0  0.9964500000000001  0.25132  0.4646199999999999  1.0000
  C   C94       1.0  0.2104  0.19254  0.20928  1.0000
  C   C95       1.0  0.01382999999999999  0.38966999999999996  0.42342  1.0000
  C   C96       1.0  0.46231  0.42735  0.09318  1.0000
  C   C97       1.0  0.11761  0.28646  0.23185  1.0000
  C   C98       1.0  0.014559999999999997  0.47302  0.17978  1.0000
  C   C99       1.0  0.08144999999999997  0.4953199999999999  0.07660999999999998  1.0000
  C   C100      1.0  0.59597  0.44772  0.3827899999999999  1.0000
  C   C101      1.0  0.05483  0.22033  0.24786  1.0000
  C   C102      1.0  0.76239  0.24627  0.61024  1.0000
  C   C103      1.0  0.2934399999999999  0.17706  0.18730999999999998  1.0000
  C   C104      1.0  0.09138  0.57945  0.08407999999999999  1.0000
  C   C105      1.0  0.49654999999999994  0.32011  0.37874  1.0000
  C   C106      1.0  0.024820000000000002  0.55715  0.18851  1.0000
  C   C107      1.0  0.9926500000000001  0.3598  0.3617799999999999  1.0000
  C   C108      1.0  0.31463  0.36537  0.07049  1.0000
  C   C109      1.0  0.7727099999999998  0.33088  0.6164999999999999  1.0000
  C   C110      1.0  0.016299999999999985  0.33564  0.4746999999999999  1.0000
  C   C111      1.0  0.36482  0.5058  0.03858  1.0000
  C   C112      1.0  0.54496  0.3863  0.27505  1.0000
  C   C113      1.0  0.49573  0.31593  0.44575999999999993  1.0000
  C   C114      1.0  0.04311000000000001  0.36736  0.53937  1.0000
  C   C115      1.0  0.61903  0.23982  0.57554  1.0000
  C   C116      1.0  0.54427  0.37895  0.48075  1.0000
  C   C117      1.0  0.83272  0.20455  0.6277699999999998  1.0000
  C   C118      1.0  0.37952  0.43323  0.06598999999999998  1.0000
  C   C119      1.0  0.6855  0.20095  0.5896  1.0000
  C   C120      1.0  0.06301000000000001  0.61037  0.14052  1.0000
  C   C121      1.0  0.54673  0.38562  0.34692  1.0000
  C   C122      1.0  0.04355  0.44164  0.12404  1.0000
  C   C123      1.0  0.99271  0.58906  0.24861  1.0000
  C   C124      1.0  0.22005  0.44423  0.02495  1.0000
  C   C125      1.0  0.97485  0.2758  0.3520899999999999  1.0000
  C   C126      1.0  0.7063999999999999  0.37013  0.60267  1.0000
  C   C127      1.0  0.26598  0.12886  0.5508  1.0000
  C   C128      1.0  0.35295  0.37282  0.7258599999999997  1.0000
  C   C129      1.0  0.43104  0.35923  0.74558  1.0000
  C   C130      1.0  0.21515999999999996  0.9883700000000001  0.51751  1.0000
  C   C131      1.0  0.30406  0.22766  0.7130099999999998  1.0000
  C   C132      1.0  0.52392  0.27886  0.9027499999999998  1.0000
  C   C133      1.0  0.87014  0.17601  0.08264  1.0000
  C   C134      1.0  0.9058199999999997  0.05501  0.9498599999999998  1.0000
  C   C135      1.0  0.50347  0.24880999999999998  0.9644499999999998  1.0000
  C   C136      1.0  0.2895699999999999  0.30751  0.7092399999999999  1.0000
  C   C137      1.0  0.48613  0.11044  0.9233499999999998  1.0000
  C   C138      1.0  0.03762  0.07255  0.59315  1.0000
  C   C139      1.0  0.38232  0.21356  0.7317999999999999  1.0000
  C   C140      1.0  0.4852599999999999  0.0268  0.6798399999999999  1.0000
  C   C141      1.0  0.41856  0.00448  0.5766  1.0000
  C   C142      1.0  0.90401  0.05221  0.8827299999999998  1.0000
  C   C143      1.0  0.44513  0.27969  0.7477799999999999  1.0000
  C   C144      1.0  0.73768  0.25382  0.11022  1.0000
  C   C145      1.0  0.20652  0.32297  0.6872899999999998  1.0000
  C   C146      1.0  0.40845  0.92034  0.58413  1.0000
  C   C147      1.0  0.0035199999999999984  0.17977  0.8786599999999999  1.0000
  C   C148      1.0  0.47499  0.94266  0.68857  1.0000
  C   C149      1.0  0.50746  0.14024  0.8617099999999999  1.0000
  C   C150      1.0  0.18535  0.13437  0.57053  1.0000
  C   C151      1.0  0.72737  0.16922  0.11649  1.0000
  C   C152      1.0  0.48354999999999987  0.1645  0.9746  1.0000
  C   C153      1.0  0.13514999999999996  0.99397  0.53865  1.0000
  C   C154      1.0  0.955  0.11364  0.77499  1.0000
  C   C155      1.0  0.004360000000000001  0.18393  0.9456799999999999  1.0000
  C   C156      1.0  0.45691  0.13271  0.0393  1.0000
  C   C157      1.0  0.88101  0.26022  0.07542999999999998  1.0000
  C   C158      1.0  0.95577  0.12097  0.98069  1.0000
  C   C159      1.0  0.66733  0.2955  0.12778  1.0000
  C   C160      1.0  0.12041999999999997  0.06656  0.566  1.0000
  C   C161      1.0  0.8145599999999997  0.29912  0.08954  1.0000
  C   C162      1.0  0.4366899999999999  0.88942  0.6406199999999999  1.0000
  C   C163      1.0  0.9532699999999997  0.11428  0.8468499999999999  1.0000
  C   C164      1.0  0.45639  0.05817  0.62404  1.0000
  C   C165      1.0  0.50724  0.91076  0.7486299999999999  1.0000
  C   C166      1.0  0.27994999999999987  0.05552  0.52502  1.0000
  C   C167      1.0  0.52519  0.22421999999999997  0.8519399999999999  1.0000
  C   C168      1.0  0.79364  0.12993  0.10263  1.0000
  S   S1        1.0  0.45588000000000006  0.62578  0.4332299999999999  1.0000
  S   S2        1.0  0.04573000000000003  0.76308  0.72775  1.0000
  S   S3        1.0  0.8840399999999997  0.54567  0.9953199999999999  1.0000
  S   S4        1.0  0.04411  0.87422  0.9332899999999997  1.0000
  S   S5        1.0  0.45427999999999996  0.73692  0.22788999999999998  1.0000
  S   S6        1.0  0.61594  0.9545  0.4953  1.0000
  S   S7        1.0  0.54412  0.37422  0.56677  1.0000
  S   S8        1.0  0.95427  0.23693  0.27224999999999994  1.0000
  S   S9        1.0  0.11596000000000001  0.45433  0.00468  1.0000
  S   S10       1.0  0.95589  0.12578  0.06672  1.0000
  S   S11       1.0  0.54572  0.26309  0.77211  1.0000
  S   S12       1.0  0.3840599999999999  0.04551  0.5047  1.0000
  O   O1        1.0  0.10421999999999998  0.75433  0.34398  1.0000
  O   O2        1.0  0.5124499999999997  0.66279  0.75297  1.0000
  O   O3        1.0  0.52056  0.64237  0.8931899999999999  1.0000
  O   O4        1.0  0.008619999999999996  0.3361  0.74683  1.0000
  O   O5        1.0  0.64631  0.76302  0.8153099999999999  1.0000
  O   O6        1.0  0.9584  0.68178  0.41298  1.0000
  O   O7        1.0  0.3987  0.56283  0.7554199999999999  1.0000
  O   O8        1.0  0.17662  0.87185  0.38623  1.0000
  O   O9        1.0  0.48285  0.50818  0.8957199999999997  1.0000
  O   O10       1.0  0.03356999999999999  0.46421  0.70707  1.0000
  O   O11       1.0  0.70358  0.8970699999999999  0.82806  1.0000
  O   O12       1.0  0.92887  0.55651  0.45161999999999997  1.0000
  O   O13       1.0  0.10120999999999998  0.8418  0.7236899999999999  1.0000
  O   O14       1.0  0.06709  0.69756  0.7669399999999998  1.0000
  O   O15       1.0  0.87926  0.48463  0.04596  1.0000
  O   O16       1.0  0.93334  0.62728  0.00355  1.0000
  O   O17       1.0  0.43314999999999987  0.54301  0.40887  1.0000
  O   O18       1.0  0.53308  0.67907  0.4126999999999999  1.0000
  O   O19       1.0  0.39575  0.74568  0.84402  1.0000
  O   O20       1.0  0.98759  0.83725  0.253  1.0000
  O   O21       1.0  0.97944  0.8577  0.39323  1.0000
  O   O22       1.0  0.49146  0.16409  0.24682  1.0000
  O   O23       1.0  0.85373  0.73697  0.3153399999999999  1.0000
  O   O24       1.0  0.54163  0.81819  0.9130099999999999  1.0000
  O   O25       1.0  0.10136999999999997  0.93723  0.25548  1.0000
  O   O26       1.0  0.32333  0.6281  0.8861999999999998  1.0000
  O   O27       1.0  0.01726  0.99188  0.39571  1.0000
  O   O28       1.0  0.46635  0.03591  0.20712999999999998  1.0000
  O   O29       1.0  0.79645  0.60289  0.32805  1.0000
  O   O30       1.0  0.57095  0.94346  0.9517  1.0000
  O   O31       1.0  0.39874  0.65823  0.22375  1.0000
  O   O32       1.0  0.43297  0.8024  0.26714  1.0000
  O   O33       1.0  0.62071  0.01553  0.54595  1.0000
  O   O34       1.0  0.56667  0.87287  0.50357  1.0000
  O   O35       1.0  0.06685999999999998  0.95696  0.90887  1.0000
  O   O36       1.0  0.96693  0.82092  0.91272  1.0000
  O   O37       1.0  0.89578  0.24567  0.65602  1.0000
  O   O38       1.0  0.48755  0.33722  0.24702999999999994  1.0000
  O   O39       1.0  0.47944  0.3576299999999999  0.10680999999999999  1.0000
  O   O40       1.0  0.99138  0.6639  0.25317  1.0000
  O   O41       1.0  0.35369000000000006  0.23699  0.18468999999999994  1.0000
  O   O42       1.0  0.0416  0.31822  0.5870199999999999  1.0000
  O   O43       1.0  0.6013  0.43717  0.24458  1.0000
  O   O44       1.0  0.82338  0.12815  0.61377  1.0000
  O   O45       1.0  0.5171499999999998  0.49182000000000003  0.10428  1.0000
  O   O46       1.0  0.96644  0.53579  0.29293  1.0000
  O   O47       1.0  0.29642  0.10292999999999998  0.17193999999999998  1.0000
  O   O48       1.0  0.07113  0.4435  0.54838  1.0000
  O   O49       1.0  0.89879  0.1582  0.27631  1.0000
  O   O50       1.0  0.9329099999999998  0.30244  0.23305999999999993  1.0000
  O   O51       1.0  0.12074  0.51538  0.95404  1.0000
  O   O52       1.0  0.06667  0.37272  0.9964499999999998  1.0000
  O   O53       1.0  0.56685  0.45699  0.59114  1.0000
  O   O54       1.0  0.4669199999999999  0.32093  0.5873  1.0000
  O   O55       1.0  0.60425  0.25432  0.15597999999999998  1.0000
  O   O56       1.0  0.012409999999999994  0.16275  0.7469999999999999  1.0000
  O   O57       1.0  0.02055999999999999  0.14229999999999998  0.60677  1.0000
  O   O58       1.0  0.5085399999999998  0.83591  0.75319  1.0000
  O   O59       1.0  0.14627  0.26303  0.6846599999999998  1.0000
  O   O60       1.0  0.45837  0.18181  0.08699  1.0000
  O   O61       1.0  0.89863  0.06277  0.7445199999999997  1.0000
  O   O62       1.0  0.67667  0.3719  0.11379999999999998  1.0000
  O   O63       1.0  0.98274  0.00812  0.60429  1.0000
  O   O64       1.0  0.53365  0.96409  0.7928799999999999  1.0000
  O   O65       1.0  0.20354999999999998  0.39711  0.6719499999999999  1.0000
  O   O66       1.0  0.4290499999999999  0.05654  0.04829999999999999  1.0000
  O   O67       1.0  0.60126  0.34177  0.7762499999999999  1.0000
  O   O68       1.0  0.56703  0.19761  0.7328599999999998  1.0000
  O   O69       1.0  0.37928999999999996  0.9844700000000001  0.45405  1.0000
  O   O70       1.0  0.43333  0.12713  0.4964299999999999  1.0000
  O   O71       1.0  0.93314  0.04304  0.09112999999999997  1.0000
  O   O72       1.0  0.033069999999999995  0.17908  0.08728  1.0000
