data_image0
_chemical_formula_structural       Hf24H56C120S20O112
_chemical_formula_sum              "Hf24 H56 C120 S20 O112"
_cell_length_a       13.86679
_cell_length_b       19.07614
_cell_length_c       28.2252
_cell_angle_alpha    90.0
_cell_angle_beta     90.0
_cell_angle_gamma    90.02106000000002

_space_group_name_H-M_alt    "P 1"
_space_group_IT_number       1

loop_
  _space_group_symop_operation_xyz
  'x, y, z'

loop_
  _atom_site_type_symbol
  _atom_site_label
  _atom_site_symmetry_multiplicity
  _atom_site_fract_x
  _atom_site_fract_y
  _atom_site_fract_z
  _atom_site_occupancy
  Hf  Hf1       1.0  0.19384000000000004  0.13362  0.12594  1.0000
  Hf  Hf2       1.0  0.3036300000000001  0.8768000000000001  0.12473  1.0000
  Hf  Hf3       1.0  0.14829000000000006  0.97792  0.19336  1.0000
  Hf  Hf4       1.0  0.38118  0.02983  0.17939  1.0000
  Hf  Hf5       1.0  0.35274000000000005  0.02577  0.0571  1.0000
  Hf  Hf6       1.0  0.11999  0.97356  0.07138  1.0000
  Hf  Hf7       1.0  0.30616  0.86638  0.62594  1.0000
  Hf  Hf8       1.0  0.19637  0.12320000000000002  0.62473  1.0000
  Hf  Hf9       1.0  0.3517100000000001  0.02208  0.69336  1.0000
  Hf  Hf10      1.0  0.11883000000000002  0.97017  0.67939  1.0000
  Hf  Hf11      1.0  0.14727  0.97423  0.5571  1.0000
  Hf  Hf12      1.0  0.3800100000000001  0.02644  0.57139  1.0000
  Hf  Hf13      1.0  0.8060100000000002  0.6337300000000002  0.37407000000000007  1.0000
  Hf  Hf14      1.0  0.69619  0.37677  0.37537  1.0000
  Hf  Hf15      1.0  0.8517400000000002  0.47784  0.30673  1.0000
  Hf  Hf16      1.0  0.61886  0.52978  0.32058  1.0000
  Hf  Hf17      1.0  0.64699  0.52587  0.44292  1.0000
  Hf  Hf18      1.0  0.8797200000000002  0.47365  0.42871  1.0000
  Hf  Hf19      1.0  0.6939900000000002  0.36627  0.87407  1.0000
  Hf  Hf20      1.0  0.8038200000000002  0.62323  0.87538  1.0000
  Hf  Hf21      1.0  0.64827  0.52216  0.80673  1.0000
  Hf  Hf22      1.0  0.8811500000000002  0.47022  0.82058  1.0000
  Hf  Hf23      1.0  0.85302  0.47413  0.94292  1.0000
  Hf  Hf24      1.0  0.6202800000000002  0.52635  0.9287100000000001  1.0000
  H   H1        1.0  0.2862700000000001  0.33199  0.1872  1.0000
  H   H2        1.0  0.36475000000000013  0.43026000000000003  0.24152  1.0000
  H   H3        1.0  0.28535  0.32957  0.06205  1.0000
  H   H4        1.0  0.38019  0.42728  0.0137  1.0000
  H   H5        1.0  0.18799  0.6702  0.07761  1.0000
  H   H6        1.0  0.10042  0.57047  0.02753  1.0000
  H   H7        1.0  0.19923  0.67635  0.17914  1.0000
  H   H8        1.0  0.09242  0.57667  0.21985000000000002  1.0000
  H   H9        1.0  0.4576300000000001  0.04073  0.32819  1.0000
  H   H10       1.0  0.46066  0.03179  0.42268  1.0000
  H   H11       1.0  0.6883  0.40816  0.27643  1.0000
  H   H12       1.0  0.73157  0.40208  0.47427  1.0000
  H   H13       1.0  0.0058  0.53613  0.36225999999999997  1.0000
  H   H14       1.0  0.56213  0.63509  0.38674  1.0000
  H   H15       1.0  0.21374000000000004  0.66801  0.6872  1.0000
  H   H16       1.0  0.13526  0.56974  0.74152  1.0000
  H   H17       1.0  0.21466  0.67044  0.56205  1.0000
  H   H18       1.0  0.11982000000000002  0.5727200000000001  0.5137  1.0000
  H   H19       1.0  0.31201  0.3298  0.57761  1.0000
  H   H20       1.0  0.39959  0.42953  0.52753  1.0000
  H   H21       1.0  0.30077000000000004  0.32365  0.67914  1.0000
  H   H22       1.0  0.40759  0.42333  0.71985  1.0000
  H   H23       1.0  0.04237  0.95927  0.82819  1.0000
  H   H24       1.0  0.03935000000000001  0.96821  0.9226800000000001  1.0000
  H   H25       1.0  0.8117100000000003  0.59184  0.7764400000000001  1.0000
  H   H26       1.0  0.7684400000000002  0.59792  0.97427  1.0000
  H   H27       1.0  0.4942100000000001  0.46387  0.86227  1.0000
  H   H28       1.0  0.9378800000000003  0.36491000000000007  0.88674  1.0000
  H   H29       1.0  0.71372  0.83193  0.31279  1.0000
  H   H30       1.0  0.63523  0.9301900000000001  0.25853  1.0000
  H   H31       1.0  0.7147  0.82954  0.43787  1.0000
  H   H32       1.0  0.6202300000000001  0.92754  0.4861  1.0000
  H   H33       1.0  0.8122900000000002  0.17002000000000003  0.42253  1.0000
  H   H34       1.0  0.90017  0.07056  0.47275  1.0000
  H   H35       1.0  0.80069  0.17619  0.32088  1.0000
  H   H36       1.0  0.9075700000000002  0.0766  0.28012  1.0000
  H   H37       1.0  0.5424  0.54078  0.17178  1.0000
  H   H38       1.0  0.53935  0.53182  0.0773  1.0000
  H   H39       1.0  0.31179000000000007  0.9083400000000001  0.22365  1.0000
  H   H40       1.0  0.26819  0.90195  0.02583  1.0000
  H   H41       1.0  0.9942800000000002  0.03634  0.13774  1.0000
  H   H42       1.0  0.43803000000000003  0.13499  0.11313  1.0000
  H   H43       1.0  0.7862900000000003  0.16807  0.81279  1.0000
  H   H44       1.0  0.8647800000000002  0.06981  0.7585300000000001  1.0000
  H   H45       1.0  0.7853100000000002  0.17046  0.93787  1.0000
  H   H46       1.0  0.8797800000000001  0.07246  0.9861  1.0000
  H   H47       1.0  0.68772  0.82998  0.92253  1.0000
  H   H48       1.0  0.5998400000000003  0.92944  0.97275  1.0000
  H   H49       1.0  0.6993200000000003  0.82381  0.82088  1.0000
  H   H50       1.0  0.59244  0.9234000000000001  0.78012  1.0000
  H   H51       1.0  0.9576100000000002  0.45922  0.67178  1.0000
  H   H52       1.0  0.96066  0.46818  0.5773  1.0000
  H   H53       1.0  0.18821000000000004  0.09166  0.7236500000000001  1.0000
  H   H54       1.0  0.23182  0.09805  0.52583  1.0000
  H   H55       1.0  0.50573  0.9636600000000001  0.63775  1.0000
  H   H56       1.0  0.06198  0.8650200000000001  0.61313  1.0000
  C   C1        1.0  0.3548500000000001  0.19327000000000003  0.1966  1.0000
  C   C2        1.0  0.3809  0.25646  0.22171  1.0000
  C   C3        1.0  0.3417700000000001  0.32337  0.21368  1.0000
  C   C4        1.0  0.38304  0.37497  0.24228  1.0000
  C   C5        1.0  0.4531000000000001  0.34818  0.27323  1.0000
  C   C6        1.0  0.51324  0.38641000000000003  0.30608  1.0000
  C   C7        1.0  0.33102  0.1879  0.04235  1.0000
  C   C8        1.0  0.36449  0.25158  0.02106  1.0000
  C   C9        1.0  0.33808  0.31994  0.03439  1.0000
  C   C10       1.0  0.3878000000000001  0.37111  0.00908  1.0000
  C   C11       1.0  0.45229  0.34268  0.97581  1.0000
  C   C12       1.0  0.51618  0.38157  0.9455900000000002  1.0000
  C   C13       1.0  0.13495  0.8102100000000001  0.06071  1.0000
  C   C14       1.0  0.09988000000000002  0.74599  0.03958999999999999  1.0000
  C   C15       1.0  0.13316  0.67861  0.05078  1.0000
  C   C16       1.0  0.08727000000000003  0.62636  0.02448  1.0000
  C   C17       1.0  0.02074000000000001  0.65374  0.99207  1.0000
  C   C18       1.0  0.9603300000000001  0.61547  0.95943  1.0000
  C   C19       1.0  0.15977000000000002  0.8156100000000002  0.20323  1.0000
  C   C20       1.0  0.11820000000000001  0.75185  0.22082000000000002  1.0000
  C   C21       1.0  0.14297000000000004  0.6843800000000001  0.20528  1.0000
  C   C22       1.0  0.08727000000000003  0.6325100000000001  0.22658  1.0000
  C   C23       1.0  0.02145  0.66017  0.25938  1.0000
  C   C24       1.0  0.9554100000000002  0.6207700000000002  0.28784  1.0000
  C   C25       1.0  0.28511000000000003  0.01139  0.28127  1.0000
  C   C26       1.0  0.30636  0.01183  0.3318  1.0000
  C   C27       1.0  0.39711  0.02697  0.3507  1.0000
  C   C28       1.0  0.3986900000000001  0.022360000000000005  0.4001  1.0000
  C   C29       1.0  0.30906  0.00397  0.41895  1.0000
  C   C30       1.0  0.2890300000000001  0.99902  0.46949  1.0000
  C   C31       1.0  0.14515000000000003  0.8067300000000001  0.6966  1.0000
  C   C32       1.0  0.11910000000000003  0.74354  0.72171  1.0000
  C   C33       1.0  0.15823000000000007  0.67663  0.71368  1.0000
  C   C34       1.0  0.11697  0.6250300000000001  0.7422800000000002  1.0000
  C   C35       1.0  0.04691  0.65182  0.77323  1.0000
  C   C36       1.0  0.98677  0.6135900000000001  0.8060799999999999  1.0000
  C   C37       1.0  0.16899000000000006  0.8121  0.54235  1.0000
  C   C38       1.0  0.13552  0.74842  0.52106  1.0000
  C   C39       1.0  0.16192000000000006  0.68006  0.53439  1.0000
  C   C40       1.0  0.11221000000000002  0.6289000000000001  0.50908  1.0000
  C   C41       1.0  0.04772  0.65732  0.47581  1.0000
  C   C42       1.0  0.9838200000000002  0.61843  0.44559  1.0000
  C   C43       1.0  0.36506  0.18979000000000001  0.56071  1.0000
  C   C44       1.0  0.40013000000000004  0.25401000000000007  0.53959  1.0000
  C   C45       1.0  0.36685000000000006  0.32139  0.55078  1.0000
  C   C46       1.0  0.41274  0.37364  0.52448  1.0000
  C   C47       1.0  0.47927  0.34626  0.49207  1.0000
  C   C48       1.0  0.53968  0.38453  0.45943  1.0000
  C   C49       1.0  0.34024  0.18439000000000003  0.70323  1.0000
  C   C50       1.0  0.3818  0.24815000000000004  0.72082  1.0000
  C   C51       1.0  0.35704000000000014  0.31562  0.70528  1.0000
  C   C52       1.0  0.41274  0.36749  0.7265800000000001  1.0000
  C   C53       1.0  0.47856  0.33983  0.75938  1.0000
  C   C54       1.0  0.5446  0.37923  0.78784  1.0000
  C   C55       1.0  0.21489  0.98861  0.7812699999999999  1.0000
  C   C56       1.0  0.19364  0.9881700000000001  0.83181  1.0000
  C   C57       1.0  0.10290000000000002  0.97303  0.8507  1.0000
  C   C58       1.0  0.10132  0.9776400000000001  0.9001  1.0000
  C   C59       1.0  0.19095000000000004  0.99603  0.91895  1.0000
  C   C60       1.0  0.21097  0.00098  0.96949  1.0000
  C   C61       1.0  0.64503  0.69322  0.30335  1.0000
  C   C62       1.0  0.61908  0.7563900000000002  0.27825  1.0000
  C   C63       1.0  0.65826  0.82329  0.28629  1.0000
  C   C64       1.0  0.61696  0.8749000000000001  0.25772  1.0000
  C   C65       1.0  0.5468800000000001  0.8481400000000001  0.22675  1.0000
  C   C66       1.0  0.48676000000000014  0.88642  0.19392  1.0000
  C   C67       1.0  0.6689100000000002  0.6881200000000001  0.45764  1.0000
  C   C68       1.0  0.63537  0.7517800000000001  0.47892  1.0000
  C   C69       1.0  0.6619200000000001  0.82008  0.46552  1.0000
  C   C70       1.0  0.6124100000000002  0.87138  0.49078  1.0000
  C   C71       1.0  0.54786  0.84308  0.52408  1.0000
  C   C72       1.0  0.48404000000000014  0.8820200000000001  0.55429  1.0000
  C   C73       1.0  0.86471  0.31036  0.43991  1.0000
  C   C74       1.0  0.90001  0.246  0.46068  1.0000
  C   C75       1.0  0.8670300000000001  0.17856  0.4494  1.0000
  C   C76       1.0  0.9132000000000002  0.12646000000000002  0.47571  1.0000
  C   C77       1.0  0.9797600000000002  0.15403  0.50805  1.0000
  C   C78       1.0  0.04051000000000001  0.1159  0.54056  1.0000
  C   C79       1.0  0.8401500000000002  0.31556000000000006  0.29684  1.0000
  C   C80       1.0  0.88167  0.25181  0.27922  1.0000
  C   C81       1.0  0.8569400000000003  0.1843  0.29473  1.0000
  C   C82       1.0  0.91266  0.13246  0.27342  1.0000
  C   C83       1.0  0.9784700000000001  0.16018000000000002  0.24062  1.0000
  C   C84       1.0  0.04456  0.12082  0.21217  1.0000
  C   C85       1.0  0.71491  0.51127  0.21873  1.0000
  C   C86       1.0  0.69364  0.51178  0.16819000000000003  1.0000
  C   C87       1.0  0.60292  0.5269800000000001  0.14928  1.0000
  C   C88       1.0  0.60133  0.52236  0.09988  1.0000
  C   C89       1.0  0.69097  0.50394  0.08104  1.0000
  C   C90       1.0  0.7110500000000001  0.4989  0.03052  1.0000
  C   C91       1.0  0.8549800000000002  0.30678  0.80335  1.0000
  C   C92       1.0  0.88092  0.24361000000000002  0.77825  1.0000
  C   C93       1.0  0.84175  0.17671  0.78629  1.0000
  C   C94       1.0  0.8830500000000002  0.1251  0.75772  1.0000
  C   C95       1.0  0.9531200000000002  0.15186  0.72675  1.0000
  C   C96       1.0  0.013240000000000002  0.11358  0.6939300000000002  1.0000
  C   C97       1.0  0.8311  0.31188  0.9576400000000002  1.0000
  C   C98       1.0  0.86464  0.24822000000000002  0.97892  1.0000
  C   C99       1.0  0.8380900000000002  0.17992  0.96553  1.0000
  C   C100      1.0  0.8876  0.12862  0.99078  1.0000
  C   C101      1.0  0.9521400000000002  0.15692000000000003  0.02408  1.0000
  C   C102      1.0  0.01596  0.11798000000000002  0.05429  1.0000
  C   C103      1.0  0.63529  0.6896400000000001  0.93992  1.0000
  C   C104      1.0  0.59999  0.7540000000000002  0.96068  1.0000
  C   C105      1.0  0.63297  0.82144  0.9494  1.0000
  C   C106      1.0  0.58681  0.87354  0.97571  1.0000
  C   C107      1.0  0.52025  0.84597  0.00805  1.0000
  C   C108      1.0  0.4594900000000001  0.88411  0.04056  1.0000
  C   C109      1.0  0.65986  0.68444  0.79684  1.0000
  C   C110      1.0  0.61833  0.74819  0.77922  1.0000
  C   C111      1.0  0.6430600000000002  0.8157  0.79473  1.0000
  C   C112      1.0  0.58735  0.86754  0.7734199999999999  1.0000
  C   C113      1.0  0.52154  0.83982  0.74062  1.0000
  C   C114      1.0  0.45545000000000013  0.8791800000000001  0.71217  1.0000
  C   C115      1.0  0.7851000000000002  0.48873  0.7187300000000001  1.0000
  C   C116      1.0  0.80637  0.48822000000000004  0.66819  1.0000
  C   C117      1.0  0.8970900000000003  0.47302  0.64928  1.0000
  C   C118      1.0  0.8986800000000003  0.47764000000000006  0.59988  1.0000
  C   C119      1.0  0.80904  0.49606  0.5810500000000001  1.0000
  C   C120      1.0  0.7889500000000003  0.5011  0.53052  1.0000
  S   S1        1.0  0.4679000000000001  0.25807  0.266  1.0000
  S   S2        1.0  0.4508300000000001  0.25153000000000003  0.97636  1.0000
  S   S3        1.0  0.01321  0.74451  0.9954399999999999  1.0000
  S   S4        1.0  0.02734  0.75084  0.26292  1.0000
  S   S5        1.0  0.22284000000000007  0.9917200000000002  0.37533  1.0000
  S   S6        1.0  0.03211  0.74193  0.766  1.0000
  S   S7        1.0  0.04918  0.7484700000000001  0.47636000000000006  1.0000
  S   S8        1.0  0.4867900000000001  0.25549  0.49544  1.0000
  S   S9        1.0  0.47266  0.24916000000000002  0.76292  1.0000
  S   S10       1.0  0.27717  0.00828  0.87533  1.0000
  S   S11       1.0  0.53214  0.7580000000000002  0.23395  1.0000
  S   S12       1.0  0.54905  0.75193  0.52362  1.0000
  S   S13       1.0  0.9867800000000002  0.24476000000000003  0.50477  1.0000
  S   S14       1.0  0.9725200000000003  0.25085  0.2371  1.0000
  S   S15       1.0  0.7771500000000002  0.4916400000000001  0.12466  1.0000
  S   S16       1.0  0.96786  0.242  0.7339500000000001  1.0000
  S   S17       1.0  0.95096  0.24807000000000004  0.02362  1.0000
  S   S18       1.0  0.51323  0.75524  0.00477  1.0000
  S   S19       1.0  0.52749  0.74915  0.7371  1.0000
  S   S20       1.0  0.72286  0.50836  0.62466  1.0000
  O   O1        1.0  0.41937  0.08602000000000001  0.11449  1.0000
  O   O2        1.0  0.21709  0.054220000000000004  0.07882  1.0000
  O   O3        1.0  0.04724  0.00314  0.13605  1.0000
  O   O4        1.0  0.23837  0.05723000000000001  0.17177  1.0000
  O   O5        1.0  0.29535  0.93501  0.19549  1.0000
  O   O6        1.0  0.36579  0.97218  0.11943  1.0000
  O   O7        1.0  0.26365  0.93033  0.05429  1.0000
  O   O8        1.0  0.17747  0.9296200000000001  0.1307  1.0000
  O   O9        1.0  0.26646  0.19298  0.07559  1.0000
  O   O10       1.0  0.36728  0.12832000000000002  0.0288  1.0000
  O   O11       1.0  0.572  0.3474  0.91655  1.0000
  O   O12       1.0  0.51558  0.44942000000000004  0.94875  1.0000
  O   O13       1.0  0.9091800000000002  0.65283  0.32145  1.0000
  O   O14       1.0  0.94587  0.5545000000000001  0.27874  1.0000
  O   O15       1.0  0.28107  0.19749  0.1684  1.0000
  O   O16       1.0  0.4046700000000001  0.13632000000000002  0.20225  1.0000
  O   O17       1.0  0.20074  0.9936000000000001  0.26646  1.0000
  O   O18       1.0  0.35651  0.02861  0.25438  1.0000
  O   O19       1.0  0.36097  0.013730000000000001  0.49675  1.0000
  O   O20       1.0  0.20408  0.98236  0.48395  1.0000
  O   O21       1.0  0.51013  0.45519000000000004  0.30489  1.0000
  O   O22       1.0  0.56984  0.35066  0.33322  1.0000
  O   O23       1.0  0.95678  0.54718  0.9644  1.0000
  O   O24       1.0  0.91157  0.65065  0.9288  1.0000
  O   O25       1.0  0.08599000000000002  0.8682  0.05456  1.0000
  O   O26       1.0  0.21478  0.8054800000000002  0.08361000000000002  1.0000
  O   O27       1.0  0.12017000000000001  0.8753600000000001  0.21584  1.0000
  O   O28       1.0  0.23388  0.80942  0.17614  1.0000
  O   O29       1.0  0.08064000000000003  0.91398  0.6144999999999999  1.0000
  O   O30       1.0  0.28292  0.94578  0.57882  1.0000
  O   O31       1.0  0.4527700000000001  0.9968600000000001  0.63605  1.0000
  O   O32       1.0  0.26164000000000004  0.94277  0.67178  1.0000
  O   O33       1.0  0.20465000000000005  0.06499  0.69549  1.0000
  O   O34       1.0  0.13422  0.027820000000000004  0.61943  1.0000
  O   O35       1.0  0.23636000000000001  0.06967  0.55429  1.0000
  O   O36       1.0  0.32254  0.07038  0.6307  1.0000
  O   O37       1.0  0.23355  0.80702  0.57559  1.0000
  O   O38       1.0  0.13272  0.8716800000000001  0.52881  1.0000
  O   O39       1.0  0.928  0.6526  0.41655  1.0000
  O   O40       1.0  0.9844300000000002  0.55058  0.44875  1.0000
  O   O41       1.0  0.59083  0.34717  0.82145  1.0000
  O   O42       1.0  0.55413  0.4455  0.77874  1.0000
  O   O43       1.0  0.21894000000000005  0.80251  0.6684000000000001  1.0000
  O   O44       1.0  0.09534000000000001  0.8636800000000001  0.70226  1.0000
  O   O45       1.0  0.29926000000000014  0.0064  0.76646  1.0000
  O   O46       1.0  0.1435  0.97139  0.75438  1.0000
  O   O47       1.0  0.13904  0.98627  0.99675  1.0000
  O   O48       1.0  0.2959200000000001  0.01764  0.9839500000000001  1.0000
  O   O49       1.0  0.98988  0.54481  0.8048899999999999  1.0000
  O   O50       1.0  0.9301700000000003  0.6493400000000001  0.83322  1.0000
  O   O51       1.0  0.54322  0.45282  0.4644  1.0000
  O   O52       1.0  0.5884400000000002  0.34935  0.4288  1.0000
  O   O53       1.0  0.41401  0.1318  0.55456  1.0000
  O   O54       1.0  0.28523  0.19452000000000003  0.58361  1.0000
  O   O55       1.0  0.37983  0.12464  0.71584  1.0000
  O   O56       1.0  0.26613  0.19059  0.67614  1.0000
  O   O57       1.0  0.58077  0.58613  0.38548  1.0000
  O   O58       1.0  0.7828500000000003  0.5543300000000001  0.42122  1.0000
  O   O59       1.0  0.9528000000000002  0.50297  0.36398  1.0000
  O   O60       1.0  0.7617100000000002  0.55706  0.32825  1.0000
  O   O61       1.0  0.7047  0.43491  0.30457  1.0000
  O   O62       1.0  0.6343000000000002  0.47221  0.38055  1.0000
  O   O63       1.0  0.7354  0.43041  0.44576  1.0000
  O   O64       1.0  0.8227300000000001  0.42933  0.36944  1.0000
  O   O65       1.0  0.7334600000000002  0.69345  0.42438  1.0000
  O   O66       1.0  0.63273  0.62848  0.47119  1.0000
  O   O67       1.0  0.4282300000000001  0.84784  0.58338  1.0000
  O   O68       1.0  0.4847700000000001  0.9498800000000001  0.55095  1.0000
  O   O69       1.0  0.09081  0.15286  0.17854  1.0000
  O   O70       1.0  0.05415  0.05457  0.22128  1.0000
  O   O71       1.0  0.7189100000000003  0.69745  0.3315  1.0000
  O   O72       1.0  0.59518  0.63625  0.2977000000000001  1.0000
  O   O73       1.0  0.7992500000000002  0.49351  0.23354  1.0000
  O   O74       1.0  0.64352  0.5285000000000001  0.24563000000000001  1.0000
  O   O75       1.0  0.63914  0.5136  0.00327  1.0000
  O   O76       1.0  0.79602  0.48232  0.01605  1.0000
  O   O77       1.0  0.48987  0.9552  0.19513  1.0000
  O   O78       1.0  0.43009  0.8507000000000001  0.16677  1.0000
  O   O79       1.0  0.04382000000000001  0.047630000000000006  0.53558  1.0000
  O   O80       1.0  0.08953  0.1512  0.57109  1.0000
  O   O81       1.0  0.91321  0.3684  0.44697  1.0000
  O   O82       1.0  0.7853900000000003  0.30566  0.41656  1.0000
  O   O83       1.0  0.8798300000000002  0.37532000000000004  0.28423  1.0000
  O   O84       1.0  0.76605  0.30937  0.32392  1.0000
  O   O85       1.0  0.9192400000000002  0.41388  0.88548  1.0000
  O   O86       1.0  0.71716  0.44567  0.92122  1.0000
  O   O87       1.0  0.54721  0.49704000000000004  0.86398  1.0000
  O   O88       1.0  0.7383  0.44294  0.82825  1.0000
  O   O89       1.0  0.79531  0.56509  0.80457  1.0000
  O   O90       1.0  0.8657100000000001  0.52779  0.88055  1.0000
  O   O91       1.0  0.7646  0.5695900000000002  0.94576  1.0000
  O   O92       1.0  0.6772800000000002  0.57067  0.86944  1.0000
  O   O93       1.0  0.76655  0.30655  0.92438  1.0000
  O   O94       1.0  0.8672800000000003  0.3715200000000001  0.9711900000000001  1.0000
  O   O95       1.0  0.07178  0.15216  0.08338  1.0000
  O   O96       1.0  0.01523  0.05012  0.05095000000000001  1.0000
  O   O97       1.0  0.40919  0.8471400000000001  0.67854  1.0000
  O   O98       1.0  0.44586  0.94543  0.72128  1.0000
  O   O99       1.0  0.7810900000000002  0.30255  0.8315  1.0000
  O   O100      1.0  0.9048300000000002  0.36375  0.7977  1.0000
  O   O101      1.0  0.7007500000000002  0.50649  0.73354  1.0000
  O   O102      1.0  0.8564900000000002  0.47151  0.74563  1.0000
  O   O103      1.0  0.8608700000000002  0.4864  0.50327  1.0000
  O   O104      1.0  0.70399  0.51768  0.51605  1.0000
  O   O105      1.0  0.010130000000000002  0.0448  0.69513  1.0000
  O   O106      1.0  0.06991  0.14930000000000002  0.66677  1.0000
  O   O107      1.0  0.4561900000000001  0.9523700000000002  0.03558  1.0000
  O   O108      1.0  0.41048  0.8488000000000001  0.07109  1.0000
  O   O109      1.0  0.5868000000000002  0.6316000000000002  0.94697  1.0000
  O   O110      1.0  0.71462  0.69434  0.91656  1.0000
  O   O111      1.0  0.6201700000000002  0.6246800000000001  0.78423  1.0000
  O   O112      1.0  0.7339600000000002  0.69063  0.82392  1.0000
