data_image0
_chemical_formula_structural       Hf36H48C144S24O144
_chemical_formula_sum              "Hf36 H48 C144 S24 O144"
_cell_length_a       27.4931
_cell_length_b       27.49186
_cell_length_c       27.49195
_cell_angle_alpha    60.06289000000001
_cell_angle_beta     60.06839
_cell_angle_gamma    60.068279999999994

_space_group_name_H-M_alt    "P 1"
_space_group_IT_number       1

loop_
  _space_group_symop_operation_xyz
  'x, y, z'

loop_
  _atom_site_type_symbol
  _atom_site_label
  _atom_site_symmetry_multiplicity
  _atom_site_fract_x
  _atom_site_fract_y
  _atom_site_fract_z
  _atom_site_occupancy
  Hf  Hf1       1.0  0.6003300000000001  0.95851  0.4826  1.0000
  Hf  Hf2       1.0  0.95856  0.60038  0.9585599999999999  1.0000
  Hf  Hf3       1.0  0.9584800000000002  0.48248999999999986  0.95848  1.0000
  Hf  Hf4       1.0  0.4826000000000001  0.95851  0.60032  1.0000
  Hf  Hf5       1.0  0.95849  0.60033  0.48262  1.0000
  Hf  Hf6       1.0  0.48248999999999986  0.95848  0.95848  1.0000
  Hf  Hf7       1.0  0.60038  0.95855  0.95855  1.0000
  Hf  Hf8       1.0  0.9585  0.4826200000000001  0.60033  1.0000
  Hf  Hf9       1.0  0.9584800000000004  0.95848  0.4824899999999999  1.0000
  Hf  Hf10      1.0  0.6003300000000001  0.4826000000000001  0.9584999999999999  1.0000
  Hf  Hf11      1.0  0.4826  0.60033  0.95851  1.0000
  Hf  Hf12      1.0  0.9585599999999996  0.9585600000000001  0.60038  1.0000
  Hf  Hf13      1.0  0.39962000000000003  0.04145  0.04145  1.0000
  Hf  Hf14      1.0  0.041510000000000026  0.39967  0.51738  1.0000
  Hf  Hf15      1.0  0.04150999999999999  0.51738  0.39966999999999997  1.0000
  Hf  Hf16      1.0  0.5175099999999999  0.04152000000000001  0.04152  1.0000
  Hf  Hf17      1.0  0.04143999999999999  0.39962  0.04144  1.0000
  Hf  Hf18      1.0  0.5174  0.04150000000000003  0.3996799999999999  1.0000
  Hf  Hf19      1.0  0.39966999999999997  0.041499999999999995  0.5174  1.0000
  Hf  Hf20      1.0  0.04151999999999995  0.51751  0.04152  1.0000
  Hf  Hf21      1.0  0.04144000000000004  0.041440000000000005  0.3996199999999999  1.0000
  Hf  Hf22      1.0  0.39966999999999997  0.5174  0.0415  1.0000
  Hf  Hf23      1.0  0.5174000000000001  0.39968  0.0415  1.0000
  Hf  Hf24      1.0  0.04151999999999998  0.04152  0.51751  1.0000
  Hf  Hf25      1.0  0.5000200000000004  0.91393  0.50002  1.0000
  Hf  Hf26      1.0  0.9141300000000001  0.49999999999999994  0.08588  1.0000
  Hf  Hf27      1.0  0.08587000000000003  0.50001  0.91412  1.0000
  Hf  Hf28      1.0  0.49999000000000005  0.08607  0.49998  1.0000
  Hf  Hf29      1.0  0.08605  0.49998  0.49998  1.0000
  Hf  Hf30      1.0  0.4999999999999999  0.9141500000000001  0.08585  1.0000
  Hf  Hf31      1.0  0.49999999999999994  0.08584999999999995  0.91415  1.0000
  Hf  Hf32      1.0  0.9139500000000004  0.50002  0.50002  1.0000
  Hf  Hf33      1.0  0.91413  0.08588000000000004  0.49998999999999993  1.0000
  Hf  Hf34      1.0  0.4999900000000001  0.49998  0.08607  1.0000
  Hf  Hf35      1.0  0.50002  0.50002  0.91393  1.0000
  Hf  Hf36      1.0  0.08587000000000003  0.9141299999999999  0.50001  1.0000
  H   H1        1.0  0.5107500000000003  0.84929  0.36857000000000006  1.0000
  H   H2        1.0  0.8493099999999999  0.5107500000000003  0.27104  1.0000
  H   H3        1.0  0.27131  0.36856  0.84938  1.0000
  H   H4        1.0  0.36863000000000007  0.2714  0.51074  1.0000
  H   H5        1.0  0.27139  0.51074  0.36865  1.0000
  H   H6        1.0  0.36858  0.84941  0.27125  1.0000
  H   H7        1.0  0.5107500000000001  0.2710000000000001  0.8493199999999999  1.0000
  H   H8        1.0  0.8492999999999999  0.36859  0.51075  1.0000
  H   H9        1.0  0.8493899999999996  0.2713100000000001  0.36854999999999993  1.0000
  H   H10       1.0  0.51074  0.36862  0.27142  1.0000
  H   H11       1.0  0.36857000000000006  0.51075  0.8492999999999999  1.0000
  H   H12       1.0  0.2710499999999999  0.8493000000000002  0.51075  1.0000
  H   H13       1.0  0.48925  0.15068  0.729  1.0000
  H   H14       1.0  0.15070000000000003  0.4892499999999999  0.63141  1.0000
  H   H15       1.0  0.72861  0.63135  0.48926  1.0000
  H   H16       1.0  0.6314199999999999  0.72875  0.1506  1.0000
  H   H17       1.0  0.72895  0.48924999999999996  0.1507  1.0000
  H   H18       1.0  0.63143  0.15070000000000003  0.48925  1.0000
  H   H19       1.0  0.4892600000000001  0.7285899999999998  0.63138  1.0000
  H   H20       1.0  0.1506100000000002  0.6314599999999998  0.72869  1.0000
  H   H21       1.0  0.15069000000000007  0.72896  0.48925  1.0000
  H   H22       1.0  0.48925  0.63144  0.15071  1.0000
  H   H23       1.0  0.6313699999999999  0.48926  0.7286000000000001  1.0000
  H   H24       1.0  0.7287000000000002  0.15061999999999998  0.63145  1.0000
  H   H25       1.0  0.48925  0.15071000000000004  0.63143  1.0000
  H   H26       1.0  0.15069000000000002  0.48924999999999996  0.7289600000000002  1.0000
  H   H27       1.0  0.7287000000000001  0.6314499999999998  0.15062  1.0000
  H   H28       1.0  0.6313700000000004  0.7286  0.48926  1.0000
  H   H29       1.0  0.7286100000000004  0.4892599999999999  0.63135  1.0000
  H   H30       1.0  0.63142  0.1506  0.72875  1.0000
  H   H31       1.0  0.48925000000000024  0.729  0.15068  1.0000
  H   H32       1.0  0.15070000000000006  0.63142  0.48925  1.0000
  H   H33       1.0  0.15061000000000005  0.7286999999999999  0.63145  1.0000
  H   H34       1.0  0.4892600000000001  0.6313799999999998  0.72858  1.0000
  H   H35       1.0  0.63143  0.48924999999999996  0.1507  1.0000
  H   H36       1.0  0.72895  0.15070000000000003  0.48925  1.0000
  H   H37       1.0  0.51075  0.84932  0.271  1.0000
  H   H38       1.0  0.8493000000000004  0.51075  0.36859  1.0000
  H   H39       1.0  0.2713899999999999  0.36865000000000003  0.51074  1.0000
  H   H40       1.0  0.36858  0.2712499999999999  0.84941  1.0000
  H   H41       1.0  0.2710500000000002  0.51075  0.8492999999999999  1.0000
  H   H42       1.0  0.36857  0.8493000000000002  0.51075  1.0000
  H   H43       1.0  0.51074  0.27142000000000005  0.36862  1.0000
  H   H44       1.0  0.8493899999999999  0.36855  0.27131  1.0000
  H   H45       1.0  0.84931  0.27104000000000006  0.51075  1.0000
  H   H46       1.0  0.5107500000000001  0.36857  0.84929  1.0000
  H   H47       1.0  0.3686300000000001  0.51074  0.2714  1.0000
  H   H48       1.0  0.27130999999999994  0.84938  0.36856  1.0000
  C   C1        1.0  0.52058  0.95087  0.36099  1.0000
  C   C2        1.0  0.52078  0.93637  0.31616  1.0000
  C   C3        1.0  0.5149600000000002  0.88454  0.32567  1.0000
  C   C4        1.0  0.9509200000000002  0.52066  0.1675  1.0000
  C   C5        1.0  0.93637  0.52078  0.22663  1.0000
  C   C6        1.0  0.8845300000000005  0.5149599999999999  0.27462  1.0000
  C   C7        1.0  0.16752  0.3609299999999999  0.95094  1.0000
  C   C8        1.0  0.2266100000000001  0.31614  0.9365  1.0000
  C   C9        1.0  0.27468  0.32568  0.88468  1.0000
  C   C10       1.0  0.3609000000000001  0.16758  0.52061  1.0000
  C   C11       1.0  0.31615  0.22666  0.52076  1.0000
  C   C12       1.0  0.32574999999999993  0.2747500000000001  0.51495  1.0000
  C   C13       1.0  0.16759000000000002  0.52058  0.36091000000000006  1.0000
  C   C14       1.0  0.22665000000000002  0.52076  0.31616  1.0000
  C   C15       1.0  0.27473  0.51495  0.32576  1.0000
  C   C16       1.0  0.36093  0.95097  0.1675  1.0000
  C   C17       1.0  0.31615  0.93651  0.22659  1.0000
  C   C18       1.0  0.3257  0.88469  0.27465  1.0000
  C   C19       1.0  0.5206400000000001  0.16749  0.95095  1.0000
  C   C20       1.0  0.52077  0.22660999999999998  0.93639  1.0000
  C   C21       1.0  0.5149600000000002  0.27459  0.88453  1.0000
  C   C22       1.0  0.95088  0.361  0.52056  1.0000
  C   C23       1.0  0.93637  0.31618  0.52078  1.0000
  C   C24       1.0  0.88453  0.3256899999999999  0.51496  1.0000
  C   C25       1.0  0.95096  0.16751  0.36093  1.0000
  C   C26       1.0  0.9365099999999998  0.22659999999999997  0.31614  1.0000
  C   C27       1.0  0.8847000000000002  0.27466000000000007  0.32569  1.0000
  C   C28       1.0  0.5205900000000002  0.36091  0.16758  1.0000
  C   C29       1.0  0.5207600000000002  0.31615  0.22664999999999996  1.0000
  C   C30       1.0  0.51495  0.32575  0.27473  1.0000
  C   C31       1.0  0.3609900000000002  0.52057  0.9508799999999998  1.0000
  C   C32       1.0  0.31618000000000024  0.52078  0.93637  1.0000
  C   C33       1.0  0.32568000000000025  0.51496  0.88454  1.0000
  C   C34       1.0  0.16749999999999998  0.9509400000000001  0.52064  1.0000
  C   C35       1.0  0.22661999999999993  0.93638  0.52077  1.0000
  C   C36       1.0  0.27461  0.88453  0.51496  1.0000
  C   C37       1.0  0.4793700000000001  0.04905000000000004  0.8325099999999999  1.0000
  C   C38       1.0  0.4792300000000001  0.06362000000000004  0.7733899999999999  1.0000
  C   C39       1.0  0.4850499999999999  0.11547000000000003  0.72541  1.0000
  C   C40       1.0  0.04912  0.47945000000000004  0.639  1.0000
  C   C41       1.0  0.06363000000000003  0.47923  0.68382  1.0000
  C   C42       1.0  0.11547000000000004  0.48503999999999997  0.67431  1.0000
  C   C43       1.0  0.83242  0.63909  0.47942  1.0000
  C   C44       1.0  0.77335  0.68385  0.47924  1.0000
  C   C45       1.0  0.7252700000000003  0.67424  0.48505  1.0000
  C   C46       1.0  0.6390700000000004  0.8324999999999999  0.04903  1.0000
  C   C47       1.0  0.6838500000000002  0.77342  0.0635  1.0000
  C   C48       1.0  0.6743000000000001  0.7253499999999999  0.11531  1.0000
  C   C49       1.0  0.8325  0.47935999999999995  0.04906  1.0000
  C   C50       1.0  0.77338  0.47922999999999993  0.06362  1.0000
  C   C51       1.0  0.72539  0.48505  0.11547  1.0000
  C   C52       1.0  0.63901  0.04912  0.47943  1.0000
  C   C53       1.0  0.68383  0.06363000000000003  0.4792199999999999  1.0000
  C   C54       1.0  0.6743200000000001  0.11546000000000002  0.48504  1.0000
  C   C55       1.0  0.4794100000000001  0.83242  0.6391  1.0000
  C   C56       1.0  0.47923999999999994  0.77336  0.68385  1.0000
  C   C57       1.0  0.4850500000000001  0.7252699999999999  0.67425  1.0000
  C   C58       1.0  0.04904000000000004  0.63908  0.83249  1.0000
  C   C59       1.0  0.06349000000000005  0.6838599999999999  0.7734  1.0000
  C   C60       1.0  0.11530999999999997  0.6743099999999999  0.7253400000000001  1.0000
  C   C61       1.0  0.049080000000000276  0.8324999999999999  0.47933999999999993  1.0000
  C   C62       1.0  0.06362999999999991  0.7733800000000001  0.4792199999999999  1.0000
  C   C63       1.0  0.11547000000000002  0.72539  0.48504  1.0000
  C   C64       1.0  0.47941999999999996  0.63901  0.04914  1.0000
  C   C65       1.0  0.47922  0.68384  0.06363  1.0000
  C   C66       1.0  0.4850400000000001  0.67433  0.11547  1.0000
  C   C67       1.0  0.6391000000000001  0.47939  0.83242  1.0000
  C   C68       1.0  0.6838500000000002  0.47924000000000005  0.77334  1.0000
  C   C69       1.0  0.6742599999999999  0.48505  0.72526  1.0000
  C   C70       1.0  0.8324900000000004  0.049060000000000006  0.63907  1.0000
  C   C71       1.0  0.77339  0.06349999999999999  0.68387  1.0000
  C   C72       1.0  0.7253200000000001  0.11532000000000003  0.67432  1.0000
  C   C73       1.0  0.4794200000000003  0.04914  0.63901  1.0000
  C   C74       1.0  0.47922  0.06363  0.68384  1.0000
  C   C75       1.0  0.48504  0.11547000000000003  0.67433  1.0000
  C   C76       1.0  0.04907999999999996  0.47934000000000004  0.8325  1.0000
  C   C77       1.0  0.06363000000000003  0.47923  0.77337  1.0000
  C   C78       1.0  0.11547000000000002  0.4850499999999999  0.72539  1.0000
  C   C79       1.0  0.8324900000000001  0.63907  0.04906  1.0000
  C   C80       1.0  0.7733900000000001  0.68387  0.0635  1.0000
  C   C81       1.0  0.7253200000000001  0.67432  0.11532  1.0000
  C   C82       1.0  0.6390999999999999  0.83242  0.47939  1.0000
  C   C83       1.0  0.6838500000000001  0.7733499999999999  0.47924  1.0000
  C   C84       1.0  0.6742600000000004  0.72526  0.48505  1.0000
  C   C85       1.0  0.83242  0.47942  0.63909  1.0000
  C   C86       1.0  0.7733499999999999  0.47924000000000005  0.68384  1.0000
  C   C87       1.0  0.7252700000000001  0.48505  0.67424  1.0000
  C   C88       1.0  0.6390700000000004  0.04902999999999999  0.8325  1.0000
  C   C89       1.0  0.6838500000000001  0.06349999999999999  0.77341  1.0000
  C   C90       1.0  0.6743  0.11531  0.72535  1.0000
  C   C91       1.0  0.47936  0.83251  0.049049999999999996  1.0000
  C   C92       1.0  0.4792300000000001  0.7734  0.06362  1.0000
  C   C93       1.0  0.4850400000000001  0.72541  0.11547  1.0000
  C   C94       1.0  0.049120000000000066  0.639  0.47944  1.0000
  C   C95       1.0  0.06363000000000003  0.68382  0.47923  1.0000
  C   C96       1.0  0.11546999999999989  0.6743100000000001  0.48504  1.0000
  C   C97       1.0  0.049040000000000104  0.83249  0.63908  1.0000
  C   C98       1.0  0.06348999999999998  0.77341  0.68386  1.0000
  C   C99       1.0  0.11530999999999997  0.72534  0.67431  1.0000
  C   C100      1.0  0.47940999999999995  0.6391  0.83242  1.0000
  C   C101      1.0  0.47924000000000005  0.6838599999999999  0.77335  1.0000
  C   C102      1.0  0.48505000000000037  0.67425  0.72527  1.0000
  C   C103      1.0  0.63901  0.47943  0.04912  1.0000
  C   C104      1.0  0.68383  0.47922  0.06363  1.0000
  C   C105      1.0  0.67432  0.48504  0.11545999999999998  1.0000
  C   C106      1.0  0.8325  0.049059999999999986  0.47936  1.0000
  C   C107      1.0  0.7733800000000001  0.06361999999999998  0.47923  1.0000
  C   C108      1.0  0.72539  0.11547000000000003  0.48504  1.0000
  C   C109      1.0  0.52064  0.95095  0.16749  1.0000
  C   C110      1.0  0.5207699999999998  0.9363900000000001  0.22661  1.0000
  C   C111      1.0  0.5149600000000002  0.88454  0.27459  1.0000
  C   C112      1.0  0.9508800000000001  0.52056  0.361  1.0000
  C   C113      1.0  0.93637  0.52078  0.31618  1.0000
  C   C114      1.0  0.88453  0.51497  0.32569  1.0000
  C   C115      1.0  0.16758999999999993  0.36092  0.52058  1.0000
  C   C116      1.0  0.22664999999999996  0.31616  0.52076  1.0000
  C   C117      1.0  0.27473000000000003  0.32576  0.51495  1.0000
  C   C118      1.0  0.36093000000000003  0.1675  0.95097  1.0000
  C   C119      1.0  0.31615  0.22658999999999999  0.9365  1.0000
  C   C120      1.0  0.32571000000000006  0.27465  0.88469  1.0000
  C   C121      1.0  0.16750000000000004  0.52065  0.95094  1.0000
  C   C122      1.0  0.22662000000000002  0.52077  0.93638  1.0000
  C   C123      1.0  0.27461  0.5149599999999999  0.88453  1.0000
  C   C124      1.0  0.36099000000000003  0.95088  0.52057  1.0000
  C   C125      1.0  0.31617  0.93637  0.52078  1.0000
  C   C126      1.0  0.32568  0.88454  0.51496  1.0000
  C   C127      1.0  0.52059  0.16757999999999995  0.36091000000000006  1.0000
  C   C128      1.0  0.52076  0.22665  0.31615  1.0000
  C   C129      1.0  0.51495  0.27473000000000003  0.32575  1.0000
  C   C130      1.0  0.95096  0.3609299999999999  0.16751  1.0000
  C   C131      1.0  0.93651  0.3161399999999999  0.2266  1.0000
  C   C132      1.0  0.8846999999999999  0.32569  0.27466  1.0000
  C   C133      1.0  0.95093  0.16750000000000004  0.52066  1.0000
  C   C134      1.0  0.93637  0.22662999999999994  0.52078  1.0000
  C   C135      1.0  0.88453  0.2746199999999999  0.51496  1.0000
  C   C136      1.0  0.52058  0.36099000000000003  0.9508599999999999  1.0000
  C   C137      1.0  0.52078  0.31617000000000006  0.93637  1.0000
  C   C138      1.0  0.5149599999999999  0.32567  0.88453  1.0000
  C   C139      1.0  0.3609  0.52061  0.16758  1.0000
  C   C140      1.0  0.31615  0.52076  0.22666  1.0000
  C   C141      1.0  0.3257400000000001  0.51496  0.27474  1.0000
  C   C142      1.0  0.16750999999999983  0.9509400000000001  0.36093  1.0000
  C   C143      1.0  0.22661  0.9365  0.31613  1.0000
  C   C144      1.0  0.27467999999999987  0.8846800000000001  0.32568  1.0000
  S   S1        1.0  0.5262500000000001  0.98511  0.24433  1.0000
  S   S2        1.0  0.9851  0.52625  0.24436  1.0000
  S   S3        1.0  0.2443  0.24426999999999996  0.98521  1.0000
  S   S4        1.0  0.24428  0.24428  0.52623  1.0000
  S   S5        1.0  0.24428  0.52623  0.24428  1.0000
  S   S6        1.0  0.2443  0.98521  0.24427  1.0000
  S   S7        1.0  0.5262500000000001  0.24433000000000002  0.9851099999999999  1.0000
  S   S8        1.0  0.9850999999999999  0.24436  0.52625  1.0000
  S   S9        1.0  0.9852100000000005  0.24428  0.24428  1.0000
  S   S10       1.0  0.5262200000000002  0.24428  0.24428  1.0000
  S   S11       1.0  0.24435000000000018  0.5262499999999999  0.9851  1.0000
  S   S12       1.0  0.24435000000000015  0.9850999999999998  0.52625  1.0000
  S   S13       1.0  0.47375  0.014889999999999997  0.75567  1.0000
  S   S14       1.0  0.014900000000000012  0.4737500000000001  0.75564  1.0000
  S   S15       1.0  0.7557199999999998  0.75572  0.47377  1.0000
  S   S16       1.0  0.7557000000000001  0.75574  0.01479  1.0000
  S   S17       1.0  0.75565  0.47375  0.0149  1.0000
  S   S18       1.0  0.7556500000000002  0.014899999999999983  0.47375  1.0000
  S   S19       1.0  0.4737800000000001  0.75573  0.75572  1.0000
  S   S20       1.0  0.014790000000000032  0.75572  0.75572  1.0000
  S   S21       1.0  0.014900000000000043  0.75565  0.47375  1.0000
  S   S22       1.0  0.47375  0.7556699999999998  0.01489  1.0000
  S   S23       1.0  0.75572  0.47377  0.75572  1.0000
  S   S24       1.0  0.7557000000000001  0.014789999999999989  0.7557400000000001  1.0000
  O   O1        1.0  0.52586  0.002190000000000006  0.34344  1.0000
  O   O2        1.0  0.51463  0.912  0.41283  1.0000
  O   O3        1.0  0.0022500000000000124  0.52596  0.12862  1.0000
  O   O4        1.0  0.91208  0.51477  0.16031  1.0000
  O   O5        1.0  0.1285  0.34338  0.00224  1.0000
  O   O6        1.0  0.1604500000000002  0.41275  0.91206  1.0000
  O   O7        1.0  0.34334  0.12854  0.52584  1.0000
  O   O8        1.0  0.41272999999999993  0.16058000000000003  0.51475  1.0000
  O   O9        1.0  0.12855  0.52581  0.34334  1.0000
  O   O10       1.0  0.16057999999999995  0.5147100000000001  0.41274999999999995  1.0000
  O   O11       1.0  0.34337  0.00228  0.1285  1.0000
  O   O12       1.0  0.41275  0.91211  0.16044  1.0000
  O   O13       1.0  0.5259300000000002  0.12861  0.00228  1.0000
  O   O14       1.0  0.5147300000000002  0.16031  0.91211  1.0000
  O   O15       1.0  0.002200000000000004  0.34343999999999997  0.52583  1.0000
  O   O16       1.0  0.9120299999999999  0.41284000000000004  0.5146  1.0000
  O   O17       1.0  0.002259999999999991  0.1285  0.34337  1.0000
  O   O18       1.0  0.9120899999999998  0.16045  0.41274  1.0000
  O   O19       1.0  0.5258300000000001  0.34334000000000003  0.12854  1.0000
  O   O20       1.0  0.5147200000000002  0.41274  0.16059  1.0000
  O   O21       1.0  0.34344000000000013  0.52586  0.00219  1.0000
  O   O22       1.0  0.41282000000000024  0.51461  0.91203  1.0000
  O   O23       1.0  0.12862  0.0022600000000000376  0.52595  1.0000
  O   O24       1.0  0.16032000000000002  0.9121  0.51473  1.0000
  O   O25       1.0  0.47406999999999994  0.99772  0.87139  1.0000
  O   O26       1.0  0.48527000000000003  0.08789000000000004  0.8397  1.0000
  O   O27       1.0  0.9977999999999999  0.47417  0.65656  1.0000
  O   O28       1.0  0.08796999999999998  0.48540000000000005  0.58716  1.0000
  O   O29       1.0  0.8714499999999998  0.6566599999999999  0.47418999999999994  1.0000
  O   O30       1.0  0.83942  0.58725  0.48529  1.0000
  O   O31       1.0  0.6566299999999996  0.87151  0.9977200000000002  1.0000
  O   O32       1.0  0.58725  0.8395699999999999  0.0879  1.0000
  O   O33       1.0  0.8713800000000004  0.47405  0.9977399999999998  1.0000
  O   O34       1.0  0.83968  0.4852700000000001  0.08791  1.0000
  O   O35       1.0  0.6565699999999999  0.99781  0.47414  1.0000
  O   O36       1.0  0.58718  0.08798  0.48539  1.0000
  O   O37       1.0  0.47417000000000004  0.8714600000000001  0.65666  1.0000
  O   O38       1.0  0.48527999999999993  0.8394200000000002  0.58726  1.0000
  O   O39       1.0  0.9977400000000001  0.6566299999999998  0.8715  1.0000
  O   O40       1.0  0.08791000000000007  0.58726  0.83955  1.0000
  O   O41       1.0  0.9977500000000004  0.87139  0.47403999999999996  1.0000
  O   O42       1.0  0.08792000000000007  0.83969  0.48523999999999995  1.0000
  O   O43       1.0  0.47413999999999995  0.65656  0.99782  1.0000
  O   O44       1.0  0.48537  0.58717  0.088  1.0000
  O   O45       1.0  0.65666  0.47416  0.87146  1.0000
  O   O46       1.0  0.5872700000000001  0.4852499999999999  0.8394200000000002  1.0000
  O   O47       1.0  0.8715  0.9977600000000001  0.65663  1.0000
  O   O48       1.0  0.8395500000000004  0.08794000000000003  0.58725  1.0000
  O   O49       1.0  0.47414000000000006  0.99782  0.65656  1.0000
  O   O50       1.0  0.48537  0.08800000000000002  0.58717  1.0000
  O   O51       1.0  0.9977500000000001  0.47405  0.87138  1.0000
  O   O52       1.0  0.08791999999999997  0.48524000000000006  0.83969  1.0000
  O   O53       1.0  0.8715000000000002  0.65663  0.99776  1.0000
  O   O54       1.0  0.8395500000000002  0.58725  0.08794  1.0000
  O   O55       1.0  0.6566600000000001  0.8714600000000001  0.47415999999999997  1.0000
  O   O56       1.0  0.5872699999999998  0.83942  0.48525  1.0000
  O   O57       1.0  0.8714500000000001  0.47419  0.65666  1.0000
  O   O58       1.0  0.8394200000000002  0.48528999999999994  0.58725  1.0000
  O   O59       1.0  0.6566300000000002  0.99772  0.8715  1.0000
  O   O60       1.0  0.58725  0.08790000000000005  0.8395599999999999  1.0000
  O   O61       1.0  0.4740699999999999  0.87139  0.9977200000000002  1.0000
  O   O62       1.0  0.48527000000000003  0.8397  0.08789  1.0000
  O   O63       1.0  0.9977999999999999  0.65656  0.47417  1.0000
  O   O64       1.0  0.08796999999999998  0.58717  0.4854  1.0000
  O   O65       1.0  0.9977399999999998  0.8715  0.65663  1.0000
  O   O66       1.0  0.08790999999999988  0.8395500000000001  0.58726  1.0000
  O   O67       1.0  0.4741699999999998  0.65666  0.87146  1.0000
  O   O68       1.0  0.48527999999999993  0.58726  0.8394099999999999  1.0000
  O   O69       1.0  0.6565700000000004  0.47414000000000006  0.99781  1.0000
  O   O70       1.0  0.58718  0.48539  0.08797  1.0000
  O   O71       1.0  0.8713800000000005  0.9977399999999998  0.47405  1.0000
  O   O72       1.0  0.83968  0.08790999999999999  0.48527  1.0000
  O   O73       1.0  0.52593  0.0022900000000000043  0.12861  1.0000
  O   O74       1.0  0.51473  0.91211  0.16031  1.0000
  O   O75       1.0  0.002199999999999972  0.52584  0.34344  1.0000
  O   O76       1.0  0.9120299999999999  0.5146  0.41284  1.0000
  O   O77       1.0  0.12854999999999997  0.34334000000000003  0.52581  1.0000
  O   O78       1.0  0.16058000000000008  0.41275  0.51471  1.0000
  O   O79       1.0  0.34337  0.1285  0.00228  1.0000
  O   O80       1.0  0.41274999999999995  0.16044000000000008  0.9120999999999999  1.0000
  O   O81       1.0  0.12862000000000004  0.52595  0.00226  1.0000
  O   O82       1.0  0.16032000000000005  0.51473  0.9120899999999998  1.0000
  O   O83       1.0  0.34344000000000013  0.0022000000000000105  0.52586  1.0000
  O   O84       1.0  0.41281999999999985  0.91203  0.51461  1.0000
  O   O85       1.0  0.52583  0.12854  0.34334  1.0000
  O   O86       1.0  0.5147200000000002  0.16059  0.41274  1.0000
  O   O87       1.0  0.0022600000000000072  0.34337  0.1285  1.0000
  O   O88       1.0  0.9120900000000004  0.41275  0.16045  1.0000
  O   O89       1.0  0.00224999999999998  0.12862000000000007  0.52596  1.0000
  O   O90       1.0  0.9120800000000001  0.16031  0.51476  1.0000
  O   O91       1.0  0.5258700000000001  0.3434400000000001  0.00218  1.0000
  O   O92       1.0  0.5146300000000003  0.4128299999999999  0.912  1.0000
  O   O93       1.0  0.3433399999999999  0.52584  0.12854  1.0000
  O   O94       1.0  0.41273000000000004  0.5147499999999999  0.16058  1.0000
  O   O95       1.0  0.12850000000000003  0.0022499999999999955  0.34337  1.0000
  O   O96       1.0  0.1604500000000001  0.91207  0.41274999999999995  1.0000
  O   O97       1.0  0.5651299999999998  0.9559900000000001  0.43488999999999994  1.0000
  O   O98       1.0  0.95611  0.56525  0.04398  1.0000
  O   O99       1.0  0.04389000000000004  0.4347599999999999  0.9560199999999999  1.0000
  O   O100      1.0  0.43487  0.044009999999999994  0.56511  1.0000
  O   O101      1.0  0.04400000000000002  0.56509  0.4349  1.0000
  O   O102      1.0  0.4347599999999999  0.9560300000000002  0.04389  1.0000
  O   O103      1.0  0.56524  0.04397999999999998  0.95611  1.0000
  O   O104      1.0  0.9560000000000001  0.43491  0.5651  1.0000
  O   O105      1.0  0.95602  0.04390000000000002  0.43473  1.0000
  O   O106      1.0  0.5651300000000002  0.43485999999999997  0.04402  1.0000
  O   O107      1.0  0.43487000000000015  0.56515  0.95598  1.0000
  O   O108      1.0  0.043980000000000026  0.9561  0.56527  1.0000
  O   O109      1.0  0.43476000000000004  0.04389000000000001  0.9560199999999999  1.0000
  O   O110      1.0  0.043999999999999984  0.4349  0.56509  1.0000
  O   O111      1.0  0.956  0.56511  0.43491  1.0000
  O   O112      1.0  0.56524  0.95611  0.04398  1.0000
  O   O113      1.0  0.9560200000000001  0.43473  0.0439  1.0000
  O   O114      1.0  0.56513  0.04402  0.43486  1.0000
  O   O115      1.0  0.4348799999999998  0.95598  0.56514  1.0000
  O   O116      1.0  0.04398000000000006  0.56527  0.9561  1.0000
  O   O117      1.0  0.04389000000000007  0.95602  0.43476  1.0000
  O   O118      1.0  0.43487000000000003  0.56511  0.04401  1.0000
  O   O119      1.0  0.5651299999999999  0.43489  0.95599  1.0000
  O   O120      1.0  0.9561100000000001  0.04398000000000002  0.56524  1.0000
  O   O121      1.0  0.5457400000000001  0.91032  0.54575  1.0000
  O   O122      1.0  0.9105400000000005  0.5456  0.9981599999999999  1.0000
  O   O123      1.0  0.99817  0.5456099999999999  0.91052  1.0000
  O   O124      1.0  0.5456200000000001  0.9982599999999999  0.54561  1.0000
  O   O125      1.0  0.9982300000000004  0.54564  0.54564  1.0000
  O   O126      1.0  0.5456199999999999  0.9105100000000002  0.99815  1.0000
  O   O127      1.0  0.5456200000000001  0.99815  0.91051  1.0000
  O   O128      1.0  0.9103  0.5457700000000002  0.54576  1.0000
  O   O129      1.0  0.91054  0.9981699999999999  0.5456  1.0000
  O   O130      1.0  0.5456199999999999  0.5456100000000003  0.99826  1.0000
  O   O131      1.0  0.5457400000000001  0.5457499999999998  0.91031  1.0000
  O   O132      1.0  0.99817  0.91053  0.54561  1.0000
  O   O133      1.0  0.45438  0.08949000000000001  0.00185  1.0000
  O   O134      1.0  0.08970000000000009  0.45424  0.4542399999999999  1.0000
  O   O135      1.0  0.0017700000000000502  0.45435999999999993  0.45435999999999993  1.0000
  O   O136      1.0  0.45438  0.001850000000000004  0.08949  1.0000
  O   O137      1.0  0.0018299999999999888  0.45439  0.08948  1.0000
  O   O138      1.0  0.45426  0.08969000000000002  0.45426  1.0000
  O   O139      1.0  0.45439  0.0017399999999999922  0.45439  1.0000
  O   O140      1.0  0.08945999999999997  0.45441  0.0018399999999999998  1.0000
  O   O141      1.0  0.08946000000000001  0.0018399999999999994  0.4544  1.0000
  O   O142      1.0  0.45426  0.45426  0.08968999999999999  1.0000
  O   O143      1.0  0.45439000000000007  0.45439  0.00174  1.0000
  O   O144      1.0  0.001830000000000005  0.08948  0.45439  1.0000
