data_image0
_chemical_formula_structural       Cd4H80C152N16O32
_chemical_formula_sum              "Cd4 H80 C152 N16 O32"
_cell_length_a       11.73124
_cell_length_b       14.19792
_cell_length_c       29.60219
_cell_angle_alpha    90.10933
_cell_angle_beta     89.87787
_cell_angle_gamma    101.85637

_space_group_name_H-M_alt    "P 1"
_space_group_IT_number       1

loop_
  _space_group_symop_operation_xyz
  'x, y, z'

loop_
  _atom_site_type_symbol
  _atom_site_label
  _atom_site_symmetry_multiplicity
  _atom_site_fract_x
  _atom_site_fract_y
  _atom_site_fract_z
  _atom_site_occupancy
  Cd  Cd1       1.0  0.60552  0.08719  0.95652  1.0000
  Cd  Cd2       1.0  0.8947499999999999  0.4123299999999999  0.45665999999999995  1.0000
  Cd  Cd3       1.0  0.39446999999999993  0.9127999999999997  0.04348  1.0000
  Cd  Cd4       1.0  0.10523999999999997  0.5876599999999998  0.5433499999999999  1.0000
  H   H1        1.0  0.57723  0.09129  0.79622  1.0000
  H   H2        1.0  0.82061  0.33391  0.8475099999999998  1.0000
  H   H3        1.0  0.62073  0.14895  0.71784  1.0000
  H   H4        1.0  0.86034  0.3975  0.7695399999999998  1.0000
  H   H5        1.0  0.60908  0.22718  0.66275  1.0000
  H   H6        1.0  0.9343599999999997  0.40685  0.70479  1.0000
  H   H7        1.0  0.6599  0.2720099999999999  0.58329  1.0000
  H   H8        1.0  0.9752499999999998  0.4593099999999999  0.6265199999999997  1.0000
  H   H9        1.0  0.87279  0.0706  0.9613499999999998  1.0000
  H   H10       1.0  0.5770599999999998  0.86164  0.9359999999999999  1.0000
  H   H11       1.0  0.0004700000000000168  0.94904  0.9591499999999997  1.0000
  H   H12       1.0  0.69266  0.7303  0.93422  1.0000
  H   H13       1.0  0.12126999999999998  0.71126  0.05623  1.0000
  H   H14       1.0  0.92968  0.56333  0.84777  1.0000
  H   H15       1.0  0.22995  0.57854  0.06014999999999999  1.0000
  H   H16       1.0  0.05210000000000002  0.43583  0.84997  1.0000
  H   H17       1.0  0.48148000000000013  0.42766  0.97903  1.0000
  H   H18       1.0  0.19512  0.20491  0.93455  1.0000
  H   H19       1.0  0.60308  0.3017399999999999  0.9830599999999999  1.0000
  H   H20       1.0  0.33198  0.08983999999999998  0.93727  1.0000
  H   H21       1.0  0.9217399999999999  0.40732999999999997  0.29659  1.0000
  H   H22       1.0  0.67968  0.16294  0.3471  1.0000
  H   H23       1.0  0.87827  0.3508699999999999  0.21795  1.0000
  H   H24       1.0  0.63904  0.10143999999999997  0.26893  1.0000
  H   H25       1.0  0.89046  0.27154  0.16218  1.0000
  H   H26       1.0  0.56506  0.09293  0.20489999999999994  1.0000
  H   H27       1.0  0.8379  0.22761  0.08266999999999997  1.0000
  H   H28       1.0  0.52286  0.04080999999999999  0.12668999999999994  1.0000
  H   H29       1.0  0.62762  0.42897  0.46167  1.0000
  H   H30       1.0  0.92419  0.63699  0.4362999999999999  1.0000
  H   H31       1.0  0.50034  0.55082  0.45906999999999987  1.0000
  H   H32       1.0  0.8092799999999999  0.76884  0.4345099999999999  1.0000
  H   H33       1.0  0.37924  0.7890999999999998  0.55626  1.0000
  H   H34       1.0  0.57286  0.93617  0.34791  1.0000
  H   H35       1.0  0.26909  0.92067  0.5600699999999997  1.0000
  H   H36       1.0  0.44955  0.06315  0.35005  1.0000
  H   H37       1.0  0.017669999999999995  0.07201999999999999  0.47874  1.0000
  H   H38       1.0  0.30501  0.29419999999999996  0.43436999999999987  1.0000
  H   H39       1.0  0.89641  0.19802999999999996  0.4825799999999999  1.0000
  H   H40       1.0  0.16873999999999997  0.4095999999999999  0.4373399999999999  1.0000
  H   H41       1.0  0.42275999999999997  0.9087099999999999  0.20377999999999993  1.0000
  H   H42       1.0  0.17938  0.66608  0.15248999999999993  1.0000
  H   H43       1.0  0.37926  0.85105  0.28216  1.0000
  H   H44       1.0  0.13964  0.60249  0.23045999999999994  1.0000
  H   H45       1.0  0.3909199999999999  0.7728099999999998  0.3372499999999999  1.0000
  H   H46       1.0  0.06562999999999995  0.5931399999999998  0.29522  1.0000
  H   H47       1.0  0.34009  0.72798  0.4167099999999999  1.0000
  H   H48       1.0  0.024739999999999998  0.54069  0.37347999999999987  1.0000
  H   H49       1.0  0.12719999999999995  0.92939  0.03864999999999998  1.0000
  H   H50       1.0  0.42293000000000003  0.13835  0.064  1.0000
  H   H51       1.0  0.99952  0.05095  0.04085  1.0000
  H   H52       1.0  0.30733  0.26969  0.06577999999999999  1.0000
  H   H53       1.0  0.87872  0.28873  0.94377  1.0000
  H   H54       1.0  0.07032  0.43666  0.15223  1.0000
  H   H55       1.0  0.77004  0.42145  0.93985  1.0000
  H   H56       1.0  0.9478899999999999  0.5641699999999998  0.15003  1.0000
  H   H57       1.0  0.51851  0.57233  0.020969999999999992  1.0000
  H   H58       1.0  0.80487  0.79508  0.06545  1.0000
  H   H59       1.0  0.39691  0.69826  0.016939999999999993  1.0000
  H   H60       1.0  0.66801  0.91015  0.06273  1.0000
  H   H61       1.0  0.07824999999999994  0.5926699999999998  0.70341  1.0000
  H   H62       1.0  0.32031999999999994  0.8370499999999997  0.6529099999999998  1.0000
  H   H63       1.0  0.12171999999999995  0.6491199999999999  0.7820499999999998  1.0000
  H   H64       1.0  0.36095  0.8985499999999998  0.7310699999999998  1.0000
  H   H65       1.0  0.10952999999999997  0.7284599999999999  0.8378199999999999  1.0000
  H   H66       1.0  0.43493  0.90706  0.7951099999999998  1.0000
  H   H67       1.0  0.16208999999999996  0.7723799999999997  0.9173299999999998  1.0000
  H   H68       1.0  0.47712999999999994  0.9591899999999998  0.87332  1.0000
  H   H69       1.0  0.37237  0.57103  0.53833  1.0000
  H   H70       1.0  0.07579999999999999  0.36300999999999994  0.5637099999999998  1.0000
  H   H71       1.0  0.49965  0.44918  0.54093  1.0000
  H   H72       1.0  0.19071  0.23115999999999995  0.5655  1.0000
  H   H73       1.0  0.62075  0.21089  0.44374  1.0000
  H   H74       1.0  0.42713000000000007  0.06383  0.65209  1.0000
  H   H75       1.0  0.7309  0.07931999999999997  0.4399399999999999  1.0000
  H   H76       1.0  0.5504399999999999  0.9368399999999999  0.64996  1.0000
  H   H77       1.0  0.9823199999999999  0.9279699999999997  0.52127  1.0000
  H   H78       1.0  0.69498  0.7057899999999998  0.56563  1.0000
  H   H79       1.0  0.10358  0.80196  0.5174299999999998  1.0000
  H   H80       1.0  0.8312499999999999  0.5903899999999999  0.56266  1.0000
  C   C1        1.0  0.66972  0.17107  0.87332  1.0000
  C   C2        1.0  0.69637  0.20884999999999995  0.8265499999999999  1.0000
  C   C3        1.0  0.63958  0.15783999999999995  0.78962  1.0000
  C   C4        1.0  0.77694  0.29485  0.81863  1.0000
  C   C5        1.0  0.66367  0.19145  0.74589  1.0000
  C   C6        1.0  0.7996  0.3294099999999999  0.77482  1.0000
  C   C7        1.0  0.7438199999999999  0.27821  0.73736  1.0000
  C   C8        1.0  0.76895  0.31175  0.6903999999999998  1.0000
  C   C9        1.0  0.6911999999999999  0.2757299999999999  0.6551699999999998  1.0000
  C   C10       1.0  0.87143  0.37811  0.67873  1.0000
  C   C11       1.0  0.7174899999999999  0.30175999999999986  0.6106299999999998  1.0000
  C   C12       1.0  0.8963699999999999  0.40655  0.63411  1.0000
  C   C13       1.0  0.82022  0.36713  0.59931  1.0000
  C   C14       1.0  0.84702  0.3901399999999999  0.55076  1.0000
  C   C15       1.0  0.83619  0.9946599999999999  0.95536  1.0000
  C   C16       1.0  0.67094  0.87743  0.94091  1.0000
  C   C17       1.0  0.90704  0.92702  0.9541699999999997  1.0000
  C   C18       1.0  0.7348499999999999  0.80506  0.9396399999999999  1.0000
  C   C19       1.0  0.85456  0.8307299999999999  0.9470999999999998  1.0000
  C   C20       1.0  0.91898  0.6970599999999998  0.9096999999999997  1.0000
  C   C21       1.0  0.98513  0.7491999999999998  0.98874  1.0000
  C   C22       1.0  0.05128000000000002  0.67134  0.9900199999999999  1.0000
  C   C23       1.0  0.9828499999999999  0.6177099999999998  0.9134699999999998  1.0000
  C   C24       1.0  0.04863999999999994  0.6084499999999998  0.9526499999999998  1.0000
  C   C25       1.0  0.11647999999999999  0.66093  0.02817  1.0000
  C   C26       1.0  0.98207  0.55488  0.8772299999999997  1.0000
  C   C27       1.0  0.17978  0.58711  0.030119999999999997  1.0000
  C   C28       1.0  0.04980000000000002  0.48413  0.8784199999999998  1.0000
  C   C29       1.0  0.18025  0.52523  0.9936099999999998  1.0000
  C   C30       1.0  0.11744999999999998  0.47525  0.9161599999999998  1.0000
  C   C31       1.0  0.11606  0.53567  0.9541099999999998  1.0000
  C   C32       1.0  0.24633  0.44742  0.9965699999999997  1.0000
  C   C33       1.0  0.19342  0.40402  0.91539  1.0000
  C   C34       1.0  0.3282  0.32477  0.9571699999999997  1.0000
  C   C35       1.0  0.44439  0.35326  0.9704599999999998  1.0000
  C   C36       1.0  0.28518  0.22921999999999998  0.94479  1.0000
  C   C37       1.0  0.5125  0.28387  0.9722899999999998  1.0000
  C   C38       1.0  0.3605  0.16512  0.94674  1.0000
  C   C39       1.0  0.82979  0.32786  0.37335  1.0000
  C   C40       1.0  0.8034099999999998  0.28916  0.3265999999999999  1.0000
  C   C41       1.0  0.85986  0.34064  0.2897299999999999  1.0000
  C   C42       1.0  0.72325  0.20292999999999994  0.3184399999999999  1.0000
  C   C43       1.0  0.83588  0.30765  0.24588  1.0000
  C   C44       1.0  0.7003399999999999  0.16917  0.27448  1.0000
  C   C45       1.0  0.7559100000000001  0.22092  0.23712999999999995  1.0000
  C   C46       1.0  0.7303399999999999  0.18785999999999994  0.19013999999999995  1.0000
  C   C47       1.0  0.8077999999999999  0.22374  0.15472999999999998  1.0000
  C   C48       1.0  0.62751  0.12183  0.17869  1.0000
  C   C49       1.0  0.7806700000000001  0.19811999999999996  0.11020999999999997  1.0000
  C   C50       1.0  0.60176  0.09362  0.13411  1.0000
  C   C51       1.0  0.67744  0.13319999999999999  0.09918  1.0000
  C   C52       1.0  0.6503199999999999  0.11006999999999999  0.05074999999999999  1.0000
  C   C53       1.0  0.6644  0.50478  0.4554799999999999  1.0000
  C   C54       1.0  0.83021  0.62159  0.44109  1.0000
  C   C55       1.0  0.59385  0.5726  0.4540999999999999  1.0000
  C   C56       1.0  0.76663  0.6941699999999997  0.4397799999999999  1.0000
  C   C57       1.0  0.64673  0.6687799999999999  0.4469999999999999  1.0000
  C   C58       1.0  0.58298  0.80267  0.40974  1.0000
  C   C59       1.0  0.51658  0.751  0.4887799999999999  1.0000
  C   C60       1.0  0.45003  0.82872  0.4901099999999999  1.0000
  C   C61       1.0  0.5188799999999999  0.8819599999999997  0.41354999999999986  1.0000
  C   C62       1.0  0.4525199999999999  0.8912499999999998  0.4527  1.0000
  C   C63       1.0  0.38417  0.8391999999999997  0.52819  1.0000
  C   C64       1.0  0.5198  0.9445099999999997  0.3772999999999999  1.0000
  C   C65       1.0  0.3200899999999999  0.9125999999999997  0.53008  1.0000
  C   C66       1.0  0.4516899999999999  0.01502  0.37847999999999987  1.0000
  C   C67       1.0  0.31960999999999995  0.9742999999999999  0.49361  1.0000
  C   C68       1.0  0.38360999999999995  0.02404  0.41622  1.0000
  C   C69       1.0  0.38465  0.96383  0.4541599999999999  1.0000
  C   C70       1.0  0.25255  0.05172999999999999  0.4964599999999999  1.0000
  C   C71       1.0  0.30781  0.09545999999999998  0.4154499999999999  1.0000
  C   C72       1.0  0.17161  0.17448999999999998  0.4569799999999999  1.0000
  C   C73       1.0  0.05519  0.14632  0.4702099999999999  1.0000
  C   C74       1.0  0.21491000000000002  0.26999  0.44466  1.0000
  C   C75       1.0  0.98722  0.21585  0.4719799999999999  1.0000
  C   C76       1.0  0.13984  0.33433  0.4466699999999999  1.0000
  C   C77       1.0  0.33027  0.82892  0.12668999999999994  1.0000
  C   C78       1.0  0.30361999999999995  0.79114  0.17346  1.0000
  C   C79       1.0  0.36041  0.84215  0.21038  1.0000
  C   C80       1.0  0.22304999999999994  0.7051399999999998  0.18136999999999995  1.0000
  C   C81       1.0  0.33631999999999995  0.8085499999999999  0.25411  1.0000
  C   C82       1.0  0.20038999999999996  0.6705899999999998  0.22517999999999994  1.0000
  C   C83       1.0  0.25617  0.72178  0.26265  1.0000
  C   C84       1.0  0.23104  0.68824  0.3096  1.0000
  C   C85       1.0  0.3087899999999999  0.7242699999999997  0.3448299999999999  1.0000
  C   C86       1.0  0.12856  0.62189  0.32127  1.0000
  C   C87       1.0  0.2824999999999999  0.6982299999999999  0.3893799999999999  1.0000
  C   C88       1.0  0.10362000000000002  0.59344  0.36589  1.0000
  C   C89       1.0  0.17977  0.63287  0.4006999999999999  1.0000
  C   C90       1.0  0.15296999999999997  0.6098599999999998  0.44924  1.0000
  C   C91       1.0  0.1638  0.00534  0.04465  1.0000
  C   C92       1.0  0.32905  0.12256  0.05908999999999998  1.0000
  C   C93       1.0  0.09295  0.07297  0.045829999999999996  1.0000
  C   C94       1.0  0.2651400000000001  0.19494  0.06035999999999998  1.0000
  C   C95       1.0  0.14543  0.16926  0.0529  1.0000
  C   C96       1.0  0.08101  0.30293  0.09029999999999999  1.0000
  C   C97       1.0  0.014850000000000004  0.2508  0.011269999999999997  1.0000
  C   C98       1.0  0.94871  0.32864999999999994  0.00998  1.0000
  C   C99       1.0  0.017140000000000016  0.38228  0.08652999999999997  1.0000
  C   C100      1.0  0.95135  0.3915399999999999  0.04736  1.0000
  C   C101      1.0  0.88351  0.33906  0.9718399999999998  1.0000
  C   C102      1.0  0.017929999999999984  0.4451099999999999  0.12276999999999998  1.0000
  C   C103      1.0  0.82022  0.41288  0.9698899999999998  1.0000
  C   C104      1.0  0.9501899999999999  0.51586  0.12158999999999998  1.0000
  C   C105      1.0  0.81974  0.47477  0.00639  1.0000
  C   C106      1.0  0.8825399999999999  0.52474  0.08383999999999997  1.0000
  C   C107      1.0  0.88393  0.4643199999999999  0.0459  1.0000
  C   C108      1.0  0.75366  0.5525699999999999  0.003429999999999999  1.0000
  C   C109      1.0  0.8065699999999999  0.5959799999999997  0.08462  1.0000
  C   C110      1.0  0.67179  0.6752199999999998  0.042829999999999986  1.0000
  C   C111      1.0  0.5556  0.64673  0.02954  1.0000
  C   C112      1.0  0.7148099999999998  0.7707699999999997  0.055209999999999995  1.0000
  C   C113      1.0  0.4874899999999999  0.7161299999999998  0.02770999999999999  1.0000
  C   C114      1.0  0.6394899999999998  0.8348799999999997  0.05326  1.0000
  C   C115      1.0  0.17019999999999993  0.6721299999999998  0.62665  1.0000
  C   C116      1.0  0.19659  0.71083  0.6733999999999998  1.0000
  C   C117      1.0  0.14012999999999998  0.6593500000000001  0.71027  1.0000
  C   C118      1.0  0.27673999999999993  0.79706  0.6815599999999998  1.0000
  C   C119      1.0  0.16410999999999998  0.6923399999999997  0.75412  1.0000
  C   C120      1.0  0.2996499999999999  0.8308299999999997  0.72553  1.0000
  C   C121      1.0  0.24408  0.77907  0.76288  1.0000
  C   C122      1.0  0.26964999999999995  0.8121299999999999  0.80987  1.0000
  C   C123      1.0  0.19219  0.77625  0.84527  1.0000
  C   C124      1.0  0.37248  0.8781599999999998  0.82132  1.0000
  C   C125      1.0  0.21932  0.80187  0.88979  1.0000
  C   C126      1.0  0.3982299999999999  0.9063799999999997  0.8658899999999998  1.0000
  C   C127      1.0  0.32254999999999995  0.8667899999999997  0.9008299999999998  1.0000
  C   C128      1.0  0.34967  0.88992  0.9492599999999998  1.0000
  C   C129      1.0  0.33559  0.49521  0.5445199999999998  1.0000
  C   C130      1.0  0.16978  0.37841  0.55892  1.0000
  C   C131      1.0  0.40615  0.42738999999999994  0.5458999999999998  1.0000
  C   C132      1.0  0.23335999999999998  0.30583  0.56023  1.0000
  C   C133      1.0  0.35326  0.3312099999999999  0.5529999999999998  1.0000
  C   C134      1.0  0.41701  0.19731999999999994  0.59026  1.0000
  C   C135      1.0  0.48340999999999984  0.24899999999999994  0.51122  1.0000
  C   C136      1.0  0.54996  0.17128  0.50989  1.0000
  C   C137      1.0  0.48111  0.11802999999999997  0.58645  1.0000
  C   C138      1.0  0.54748  0.10874  0.5473  1.0000
  C   C139      1.0  0.61582  0.16079  0.4718199999999999  1.0000
  C   C140      1.0  0.4802  0.05548  0.6227099999999998  1.0000
  C   C141      1.0  0.6799  0.08738999999999997  0.46992  1.0000
  C   C142      1.0  0.5483  0.98498  0.62152  1.0000
  C   C143      1.0  0.68038  0.025689999999999994  0.5064  1.0000
  C   C144      1.0  0.6163799999999999  0.9759499999999998  0.5837799999999997  1.0000
  C   C145      1.0  0.61534  0.03616  0.54584  1.0000
  C   C146      1.0  0.74744  0.9482699999999997  0.50355  1.0000
  C   C147      1.0  0.69218  0.90453  0.5845499999999998  1.0000
  C   C148      1.0  0.8283799999999999  0.8255  0.54302  1.0000
  C   C149      1.0  0.9448  0.8536799999999998  0.52979  1.0000
  C   C150      1.0  0.78508  0.7299999999999998  0.55535  1.0000
  C   C151      1.0  0.01276999999999997  0.78415  0.52802  1.0000
  C   C152      1.0  0.8601499999999999  0.66566  0.55333  1.0000
  N   N1        1.0  0.7199899999999999  0.9701  0.94945  1.0000
  N   N2        1.0  0.92256  0.7571899999999998  0.9485099999999999  1.0000
  N   N3        1.0  0.25421999999999995  0.39417999999999986  0.9564299999999998  1.0000
  N   N4        1.0  0.47146999999999994  0.19134999999999994  0.9608199999999998  1.0000
  N   N5        1.0  0.7806700000000001  0.52908  0.44961  1.0000
  N   N6        1.0  0.5788399999999999  0.7424899999999999  0.4484199999999999  1.0000
  N   N7        1.0  0.24557999999999996  0.10498  0.45632  1.0000
  N   N8        1.0  0.028599999999999976  0.3083299999999999  0.4605999999999999  1.0000
  N   N9        1.0  0.28  0.029889999999999993  0.05055999999999999  1.0000
  N   N10       1.0  0.07742999999999998  0.24279999999999993  0.05148999999999999  1.0000
  N   N11       1.0  0.74577  0.6058099999999998  0.04357  1.0000
  N   N12       1.0  0.52853  0.80865  0.039179999999999986  1.0000
  N   N13       1.0  0.21932999999999994  0.4709099999999999  0.5503899999999998  1.0000
  N   N14       1.0  0.42115  0.2575  0.55158  1.0000
  N   N15       1.0  0.7544100000000001  0.89502  0.54368  1.0000
  N   N16       1.0  0.97139  0.69166  0.5394  1.0000
  O   O1        1.0  0.72571  0.21444  0.9067899999999998  1.0000
  O   O2        1.0  0.58971  0.09526  0.87767  1.0000
  O   O3        1.0  0.93565  0.45569  0.54017  1.0000
  O   O4        1.0  0.782  0.3423199999999999  0.52051  1.0000
  O   O5        1.0  0.98228  0.80442  0.020629999999999992  1.0000
  O   O6        1.0  0.86853  0.7135299999999998  0.8753399999999999  1.0000
  O   O7        1.0  0.20592999999999997  0.35648  0.8819199999999998  1.0000
  O   O8        1.0  0.29235999999999995  0.4286199999999999  0.03185999999999999  1.0000
  O   O9        1.0  0.77506  0.28437  0.40703999999999996  1.0000
  O   O10       1.0  0.9081  0.4048199999999999  0.3775  1.0000
  O   O11       1.0  0.5622  0.04423  0.04017999999999999  1.0000
  O   O12       1.0  0.7151699999999999  0.15799  0.020449999999999992  1.0000
  O   O13       1.0  0.5198999999999999  0.6960099999999998  0.52064  1.0000
  O   O14       1.0  0.63423  0.78641  0.37541  1.0000
  O   O15       1.0  0.29673  0.14348  0.3820999999999999  1.0000
  O   O16       1.0  0.20516999999999996  0.0705  0.53157  1.0000
  O   O17       1.0  0.27429  0.78555  0.09321  1.0000
  O   O18       1.0  0.41027  0.90473  0.12233  1.0000
  O   O19       1.0  0.06434  0.5443  0.4598299999999999  1.0000
  O   O20       1.0  0.21799  0.65767  0.4794899999999999  1.0000
  O   O21       1.0  0.017709999999999993  0.19557  0.9793699999999997  1.0000
  O   O22       1.0  0.13147  0.28646  0.12465999999999998  1.0000
  O   O23       1.0  0.79406  0.64352  0.11807999999999998  1.0000
  O   O24       1.0  0.70763  0.57137  0.96814  1.0000
  O   O25       1.0  0.22492  0.71562  0.5929599999999998  1.0000
  O   O26       1.0  0.09188999999999999  0.59517  0.6224999999999998  1.0000
  O   O27       1.0  0.43779  0.95576  0.9598199999999998  1.0000
  O   O28       1.0  0.28481999999999996  0.8419999999999997  0.97955  1.0000
  O   O29       1.0  0.4801  0.30398  0.47937  1.0000
  O   O30       1.0  0.36576  0.21358  0.62459  1.0000
  O   O31       1.0  0.7032599999999999  0.8565199999999997  0.61791  1.0000
  O   O32       1.0  0.79482  0.92949  0.4684299999999999  1.0000
