data_image0
_chemical_formula_structural       In16H80C128O80
_chemical_formula_sum              "In16 H80 C128 O80"
_cell_length_a       12.36059
_cell_length_b       18.324799999999996
_cell_length_c       29.32339
_cell_angle_alpha    90.03185
_cell_angle_beta     89.99817999999999
_cell_angle_gamma    90.01742

_space_group_name_H-M_alt    "P 1"
_space_group_IT_number       1

loop_
  _space_group_symop_operation_xyz
  'x, y, z'

loop_
  _atom_site_type_symbol
  _atom_site_label
  _atom_site_symmetry_multiplicity
  _atom_site_fract_x
  _atom_site_fract_y
  _atom_site_fract_z
  _atom_site_occupancy
  In  In1       1.0  0.002959999999999999  0.9997300000000001  0.87439  1.0000
  In  In2       1.0  0.006969999999999999  0.9989  0.7492499999999997  1.0000
  In  In3       1.0  0.503  0.501  0.8751199999999998  1.0000
  In  In4       1.0  0.50507  0.4998  0.6255699999999997  1.0000
  In  In5       1.0  0.50676  0.50058  0.7504  1.0000
  In  In6       1.0  0.004539999999999999  0.9996400000000001  0.62502  1.0000
  In  In7       1.0  0.9970599999999998  0.00027000000000000006  0.12561  1.0000
  In  In8       1.0  0.9930499999999999  0.0011  0.25075  1.0000
  In  In9       1.0  0.49701  0.49899000000000004  0.12487999999999998  1.0000
  In  In10      1.0  0.49493999999999994  0.5002  0.3744299999999999  1.0000
  In  In11      1.0  0.4932499999999999  0.49942  0.24959999999999993  1.0000
  In  In12      1.0  0.9954699999999997  0.0003599999999999999  0.37497999999999987  1.0000
  In  In13      1.0  0.4999999999999999  0.5  0.0  1.0000
  In  In14      1.0  0.0  0.0  0.4999999999999999  1.0000
  In  In15      1.0  0.0  0.0  0.0  1.0000
  In  In16      1.0  0.50001  0.5  0.4999999999999999  1.0000
  H   H1        1.0  0.76429  0.8295000000000002  0.009269999999999997  1.0000
  H   H2        1.0  0.6616  0.711  0.01069  1.0000
  H   H3        1.0  0.69829  0.69198  0.86557  1.0000
  H   H4        1.0  0.7990299999999998  0.81117  0.8640099999999997  1.0000
  H   H5        1.0  0.29235  0.68399  0.7384499999999998  1.0000
  H   H6        1.0  0.19028  0.8025  0.73969  1.0000
  H   H7        1.0  0.17238999999999996  0.79153  0.8859099999999998  1.0000
  H   H8        1.0  0.27609  0.67315  0.88439  1.0000
  H   H9        1.0  0.8066899999999998  0.19555  0.00976  1.0000
  H   H10       1.0  0.7043999999999999  0.3143  0.00938  1.0000
  H   H11       1.0  0.7350499999999998  0.32481  0.8637399999999997  1.0000
  H   H12       1.0  0.8363099999999998  0.20595  0.8639599999999997  1.0000
  H   H13       1.0  0.3268299999999999  0.30074  0.7401  1.0000
  H   H14       1.0  0.22715999999999997  0.18133  0.7385799999999999  1.0000
  H   H15       1.0  0.21456  0.18151  0.88488  1.0000
  H   H16       1.0  0.31577999999999995  0.30047  0.88647  1.0000
  H   H17       1.0  0.84235  0.99897  0.8112699999999998  1.0000
  H   H18       1.0  0.16163999999999998  0.9776100000000001  0.93793  1.0000
  H   H19       1.0  0.66053  0.48369000000000006  0.81374  1.0000
  H   H20       1.0  0.35363  0.46168000000000003  0.9364699999999998  1.0000
  H   H21       1.0  0.2645  0.6703100000000001  0.49094  1.0000
  H   H22       1.0  0.16151999999999997  0.78863  0.48935  1.0000
  H   H23       1.0  0.19834999999999997  0.80811  0.6344799999999999  1.0000
  H   H24       1.0  0.29933  0.68913  0.63618  1.0000
  H   H25       1.0  0.7927699999999999  0.81598  0.7612399999999998  1.0000
  H   H26       1.0  0.68989  0.69747  0.7597199999999997  1.0000
  H   H27       1.0  0.67232  0.7088100000000002  0.61363  1.0000
  H   H28       1.0  0.7767599999999998  0.82682  0.61513  1.0000
  H   H29       1.0  0.30801999999999996  0.30483  0.49009  1.0000
  H   H30       1.0  0.20483999999999994  0.18648  0.4899999999999999  1.0000
  H   H31       1.0  0.23491  0.17501  0.63563  1.0000
  H   H32       1.0  0.3366999999999999  0.29377  0.6358599999999998  1.0000
  H   H33       1.0  0.8266499999999998  0.19911  0.7602299999999997  1.0000
  H   H34       1.0  0.72732  0.31859  0.7617199999999997  1.0000
  H   H35       1.0  0.7148999999999999  0.31843  0.61533  1.0000
  H   H36       1.0  0.81612  0.19935  0.61393  1.0000
  H   H37       1.0  0.34495  0.50564  0.6882199999999998  1.0000
  H   H38       1.0  0.6618899999999998  0.5242400000000002  0.5619299999999998  1.0000
  H   H39       1.0  0.16114  0.017790000000000004  0.6863099999999998  1.0000
  H   H40       1.0  0.8538999999999999  0.03801  0.5638399999999999  1.0000
  H   H41       1.0  0.23571999999999996  0.17049  0.9907299999999998  1.0000
  H   H42       1.0  0.33841999999999994  0.28899  0.9893099999999998  1.0000
  H   H43       1.0  0.30173  0.30802  0.13443  1.0000
  H   H44       1.0  0.20098999999999997  0.18883  0.13599  1.0000
  H   H45       1.0  0.7076699999999999  0.31601  0.26154999999999995  1.0000
  H   H46       1.0  0.80974  0.1975  0.26031  1.0000
  H   H47       1.0  0.82763  0.20847  0.11408999999999998  1.0000
  H   H48       1.0  0.7239199999999998  0.32685000000000003  0.11561999999999997  1.0000
  H   H49       1.0  0.19331999999999996  0.80445  0.9902399999999998  1.0000
  H   H50       1.0  0.29560999999999993  0.68569  0.9906199999999997  1.0000
  H   H51       1.0  0.26496  0.67519  0.13626  1.0000
  H   H52       1.0  0.16371  0.7940500000000001  0.13604  1.0000
  H   H53       1.0  0.6731799999999998  0.69926  0.2598999999999999  1.0000
  H   H54       1.0  0.7728599999999999  0.81867  0.2614199999999999  1.0000
  H   H55       1.0  0.78546  0.81849  0.11511999999999997  1.0000
  H   H56       1.0  0.6842299999999999  0.69953  0.11353  1.0000
  H   H57       1.0  0.15767  0.00103  0.18872999999999995  1.0000
  H   H58       1.0  0.8383699999999998  0.02239  0.062069999999999986  1.0000
  H   H59       1.0  0.33949  0.5163000000000001  0.18625999999999995  1.0000
  H   H60       1.0  0.6463899999999999  0.53832  0.06353  1.0000
  H   H61       1.0  0.7355199999999997  0.32969  0.5090599999999998  1.0000
  H   H62       1.0  0.8385  0.21137  0.51065  1.0000
  H   H63       1.0  0.8016699999999998  0.19189000000000003  0.36552  1.0000
  H   H64       1.0  0.7006899999999998  0.31086  0.36381999999999987  1.0000
  H   H65       1.0  0.20723999999999995  0.18402000000000002  0.23875999999999994  1.0000
  H   H66       1.0  0.31011999999999995  0.30253  0.24028999999999995  1.0000
  H   H67       1.0  0.32769999999999994  0.29119  0.3863699999999999  1.0000
  H   H68       1.0  0.22325999999999993  0.17318  0.3848699999999999  1.0000
  H   H69       1.0  0.6919899999999999  0.69517  0.50992  1.0000
  H   H70       1.0  0.7951799999999998  0.81351  0.51  1.0000
  H   H71       1.0  0.76511  0.82499  0.36437  1.0000
  H   H72       1.0  0.6633199999999998  0.70623  0.3641399999999999  1.0000
  H   H73       1.0  0.17337  0.80089  0.23977999999999994  1.0000
  H   H74       1.0  0.2727  0.68141  0.23828  1.0000
  H   H75       1.0  0.28511999999999993  0.68157  0.3846699999999999  1.0000
  H   H76       1.0  0.18389999999999998  0.80065  0.38608  1.0000
  H   H77       1.0  0.65507  0.4943600000000001  0.3117799999999999  1.0000
  H   H78       1.0  0.33812999999999993  0.47575  0.4380699999999999  1.0000
  H   H79       1.0  0.8388799999999997  0.9822100000000001  0.3136899999999999  1.0000
  H   H80       1.0  0.14612  0.9619900000000001  0.4361599999999999  1.0000
  C   C1        1.0  0.8530599999999999  0.8958400000000001  0.9363499999999998  1.0000
  C   C2        1.0  0.7877999999999998  0.8269400000000001  0.93664  1.0000
  C   C3        1.0  0.74886  0.799  0.9780999999999997  1.0000
  C   C4        1.0  0.69265  0.73316  0.97889  1.0000
  C   C5        1.0  0.6753499999999998  0.69422  0.9382599999999998  1.0000
  C   C6        1.0  0.7129499999999999  0.7227  0.8967099999999998  1.0000
  C   C7        1.0  0.7686299999999998  0.78878  0.89587  1.0000
  C   C8        1.0  0.61705  0.62254  0.93891  1.0000
  C   C9        1.0  0.35727  0.60446  0.8112099999999998  1.0000
  C   C10       1.0  0.29037  0.67235  0.8114199999999999  1.0000
  C   C11       1.0  0.26557  0.70808  0.7704099999999998  1.0000
  C   C12       1.0  0.20917999999999995  0.77382  0.7711499999999999  1.0000
  C   C13       1.0  0.17667  0.80434  0.81296  1.0000
  C   C14       1.0  0.19943999999999995  0.7677000000000002  0.85391  1.0000
  C   C15       1.0  0.25618  0.70211  0.8531299999999998  1.0000
  C   C16       1.0  0.11911  0.8763400000000001  0.81355  1.0000
  C   C17       1.0  0.88532  0.12193  0.9366099999999999  1.0000
  C   C18       1.0  0.8263999999999999  0.19349  0.93681  1.0000
  C   C19       1.0  0.7902199999999998  0.22413000000000002  0.9780099999999998  1.0000
  C   C20       1.0  0.73413  0.29006  0.9779  1.0000
  C   C21       1.0  0.7138799999999997  0.3262900000000001  0.9365799999999997  1.0000
  C   C22       1.0  0.7511499999999998  0.29607000000000006  0.8954399999999999  1.0000
  C   C23       1.0  0.80703  0.23010000000000003  0.8955199999999998  1.0000
  C   C24       1.0  0.64946  0.39551  0.9363899999999997  1.0000
  C   C25       1.0  0.3866  0.3791  0.8136799999999997  1.0000
  C   C26       1.0  0.3269  0.30774  0.8132599999999998  1.0000
  C   C27       1.0  0.30223999999999995  0.27396  0.7715199999999998  1.0000
  C   C28       1.0  0.24701999999999996  0.20767  0.7707399999999998  1.0000
  C   C29       1.0  0.21534  0.17433  0.81176  1.0000
  C   C30       1.0  0.24032999999999996  0.20797000000000002  0.85351  1.0000
  C   C31       1.0  0.29591  0.2741  0.8543  1.0000
  C   C32       1.0  0.15185  0.10459000000000002  0.8113199999999999  1.0000
  C   C33       1.0  0.35348  0.60406  0.5638299999999998  1.0000
  C   C34       1.0  0.28794  0.6729  0.5636099999999998  1.0000
  C   C35       1.0  0.2489  0.70079  0.52211  1.0000
  C   C36       1.0  0.19261999999999996  0.76661  0.5211999999999999  1.0000
  C   C37       1.0  0.17544999999999994  0.8057300000000001  0.56177  1.0000
  C   C38       1.0  0.21303999999999998  0.77733  0.60336  1.0000
  C   C39       1.0  0.26875999999999994  0.7112800000000001  0.6042799999999998  1.0000
  C   C40       1.0  0.11743  0.8775700000000001  0.56118  1.0000
  C   C41       1.0  0.8577499999999999  0.89558  0.6884199999999998  1.0000
  C   C42       1.0  0.79078  0.82768  0.6881199999999998  1.0000
  C   C43       1.0  0.7657899999999999  0.79214  0.72922  1.0000
  C   C44       1.0  0.70901  0.7265400000000001  0.72842  1.0000
  C   C45       1.0  0.67661  0.69592  0.68667  1.0000
  C   C46       1.0  0.6992599999999998  0.73252  0.64568  1.0000
  C   C47       1.0  0.7564399999999998  0.79798  0.64642  1.0000
  C   C48       1.0  0.61959  0.62369  0.68634  1.0000
  C   C49       1.0  0.3872999999999999  0.37784  0.5632099999999998  1.0000
  C   C50       1.0  0.3276399999999999  0.30652  0.56296  1.0000
  C   C51       1.0  0.2912699999999999  0.27604  0.52173  1.0000
  C   C52       1.0  0.23445999999999997  0.21032  0.52164  1.0000
  C   C53       1.0  0.2139  0.17406  0.5629399999999999  1.0000
  C   C54       1.0  0.25142  0.20407000000000003  0.6040899999999998  1.0000
  C   C55       1.0  0.30777999999999994  0.26984  0.6041699999999998  1.0000
  C   C56       1.0  0.14942999999999998  0.10481  0.5636  1.0000
  C   C57       1.0  0.8868899999999998  0.12128000000000001  0.68638  1.0000
  C   C58       1.0  0.82672  0.19228  0.68706  1.0000
  C   C59       1.0  0.8020599999999999  0.22591  0.72882  1.0000
  C   C60       1.0  0.74717  0.29228  0.7295499999999998  1.0000
  C   C61       1.0  0.7157399999999998  0.32557  0.6884799999999998  1.0000
  C   C62       1.0  0.7406499999999998  0.29198  0.64671  1.0000
  C   C63       1.0  0.79596  0.22584000000000004  0.64601  1.0000
  C   C64       1.0  0.65295  0.39539  0.68876  1.0000
  C   C65       1.0  0.14694999999999997  0.10416000000000002  0.06365  1.0000
  C   C66       1.0  0.21220999999999998  0.17306  0.06336  1.0000
  C   C67       1.0  0.25114999999999993  0.201  0.021899999999999992  1.0000
  C   C68       1.0  0.3073699999999999  0.26683  0.021119999999999996  1.0000
  C   C69       1.0  0.32466999999999996  0.30578  0.06173999999999999  1.0000
  C   C70       1.0  0.28707  0.27729  0.10329  1.0000
  C   C71       1.0  0.23139  0.21122  0.10413  1.0000
  C   C72       1.0  0.38296  0.3774600000000001  0.061089999999999985  1.0000
  C   C73       1.0  0.6427499999999999  0.39554  0.18878999999999996  1.0000
  C   C74       1.0  0.70964  0.32765000000000005  0.18857999999999994  1.0000
  C   C75       1.0  0.73445  0.29192  0.22958999999999993  1.0000
  C   C76       1.0  0.79084  0.22618  0.22884999999999994  1.0000
  C   C77       1.0  0.82335  0.19565  0.18703999999999996  1.0000
  C   C78       1.0  0.8005699999999998  0.23229000000000002  0.14609  1.0000
  C   C79       1.0  0.7438299999999999  0.29789  0.14686999999999995  1.0000
  C   C80       1.0  0.8809  0.12365  0.18645  1.0000
  C   C81       1.0  0.11469  0.87807  0.06339  1.0000
  C   C82       1.0  0.17361  0.80651  0.06319  1.0000
  C   C83       1.0  0.20978999999999995  0.77587  0.021989999999999992  1.0000
  C   C84       1.0  0.26587999999999995  0.70994  0.022099999999999995  1.0000
  C   C85       1.0  0.28613  0.67371  0.06343  1.0000
  C   C86       1.0  0.24886  0.70393  0.10455999999999997  1.0000
  C   C87       1.0  0.19298999999999997  0.7699  0.10448  1.0000
  C   C88       1.0  0.3505599999999999  0.60448  0.06361999999999998  1.0000
  C   C89       1.0  0.6134199999999999  0.6209  0.18631999999999999  1.0000
  C   C90       1.0  0.67312  0.69226  0.18673999999999993  1.0000
  C   C91       1.0  0.6977799999999997  0.72604  0.22847999999999996  1.0000
  C   C92       1.0  0.7529999999999998  0.79232  0.22926999999999995  1.0000
  C   C93       1.0  0.7846799999999998  0.82567  0.18823999999999994  1.0000
  C   C94       1.0  0.75969  0.79203  0.14649  1.0000
  C   C95       1.0  0.70411  0.7259  0.14571  1.0000
  C   C96       1.0  0.8481699999999998  0.8954100000000002  0.18867999999999993  1.0000
  C   C97       1.0  0.6465299999999999  0.39594  0.4361699999999999  1.0000
  C   C98       1.0  0.71207  0.32709  0.43639  1.0000
  C   C99       1.0  0.7511099999999998  0.29921  0.4778899999999999  1.0000
  C   C100      1.0  0.8074  0.23339  0.4788  1.0000
  C   C101      1.0  0.82457  0.19427  0.43822999999999995  1.0000
  C   C102      1.0  0.78698  0.22265999999999997  0.3966399999999999  1.0000
  C   C103      1.0  0.7312499999999997  0.28871  0.39571999999999996  1.0000
  C   C104      1.0  0.8825899999999998  0.12242  0.4388199999999999  1.0000
  C   C105      1.0  0.14226  0.10442000000000003  0.3115799999999999  1.0000
  C   C106      1.0  0.20923  0.17231  0.3118799999999999  1.0000
  C   C107      1.0  0.23422999999999994  0.20786000000000004  0.27078  1.0000
  C   C108      1.0  0.29100999999999994  0.27346  0.27158  1.0000
  C   C109      1.0  0.32339999999999997  0.30408  0.3133299999999999  1.0000
  C   C110      1.0  0.30076  0.26748  0.35432999999999987  1.0000
  C   C111      1.0  0.24358  0.20202  0.35358  1.0000
  C   C112      1.0  0.38042  0.37631  0.31366  1.0000
  C   C113      1.0  0.6127199999999999  0.62216  0.43679  1.0000
  C   C114      1.0  0.67238  0.69348  0.43704  1.0000
  C   C115      1.0  0.70875  0.72396  0.47826999999999986  1.0000
  C   C116      1.0  0.76555  0.78968  0.47836  1.0000
  C   C117      1.0  0.7861099999999999  0.82594  0.4370599999999999  1.0000
  C   C118      1.0  0.7486  0.79593  0.3959099999999999  1.0000
  C   C119      1.0  0.69223  0.73016  0.39583  1.0000
  C   C120      1.0  0.85059  0.89519  0.4364  1.0000
  C   C121      1.0  0.11312  0.87872  0.31362  1.0000
  C   C122      1.0  0.17329999999999995  0.80772  0.31293999999999994  1.0000
  C   C123      1.0  0.19796  0.77409  0.27118  1.0000
  C   C124      1.0  0.25284  0.70772  0.27045  1.0000
  C   C125      1.0  0.28427  0.6744300000000001  0.31152  1.0000
  C   C126      1.0  0.25937  0.70802  0.3532899999999999  1.0000
  C   C127      1.0  0.20404999999999995  0.77416  0.3539899999999999  1.0000
  C   C128      1.0  0.34706  0.60461  0.3112399999999999  1.0000
  O   O1        1.0  0.9194999999999998  0.008690000000000002  0.8115099999999998  1.0000
  O   O2        1.0  0.08678999999999999  0.99348  0.93744  1.0000
  O   O3        1.0  0.5934899999999999  0.5114  0.8131999999999998  1.0000
  O   O4        1.0  0.4119199999999999  0.49712000000000006  0.9371599999999998  1.0000
  O   O5        1.0  0.87825  0.92211  0.9752499999999997  1.0000
  O   O6        1.0  0.87809  0.92212  0.8974299999999997  1.0000
  O   O7        1.0  0.59252  0.59644  0.9780299999999997  1.0000
  O   O8        1.0  0.5975099999999999  0.59357  0.90025  1.0000
  O   O9        1.0  0.3816999999999999  0.57792  0.85002  1.0000
  O   O10       1.0  0.38489  0.57904  0.77229  1.0000
  O   O11       1.0  0.09919999999999997  0.9045899999999999  0.77477  1.0000
  O   O12       1.0  0.09605999999999998  0.90327  0.8526  1.0000
  O   O13       1.0  0.9107399999999998  0.09608  0.89766  1.0000
  O   O14       1.0  0.90432  0.09297  0.9754299999999998  1.0000
  O   O15       1.0  0.62547  0.4219  0.8972399999999999  1.0000
  O   O16       1.0  0.6235599999999999  0.42207  0.9750399999999998  1.0000
  O   O17       1.0  0.40687  0.40666  0.8528399999999998  1.0000
  O   O18       1.0  0.4120799999999999  0.40614  0.7751099999999997  1.0000
  O   O19       1.0  0.12803  0.07813  0.77219  1.0000
  O   O20       1.0  0.12657999999999997  0.07766  0.8499499999999998  1.0000
  O   O21       1.0  0.41893999999999987  0.48774  0.6881899999999997  1.0000
  O   O22       1.0  0.58831  0.50586  0.5622  1.0000
  O   O23       1.0  0.09535999999999997  0.98875  0.6868299999999999  1.0000
  O   O24       1.0  0.9133  0.00324  0.56315  1.0000
  O   O25       1.0  0.37686  0.57746  0.5248399999999998  1.0000
  O   O26       1.0  0.3805399999999999  0.57807  0.60265  1.0000
  O   O27       1.0  0.09087  0.90315  0.52217  1.0000
  O   O28       1.0  0.10010999999999998  0.90717  0.59983  1.0000
  O   O29       1.0  0.8838199999999998  0.92191  0.6497499999999998  1.0000
  O   O30       1.0  0.88357  0.92135  0.72743  1.0000
  O   O31       1.0  0.59769  0.59608  0.72512  1.0000
  O   O32       1.0  0.59882  0.59598  0.64728  1.0000
  O   O33       1.0  0.4129299999999999  0.40369  0.60212  1.0000
  O   O34       1.0  0.4066399999999999  0.4066  0.52436  1.0000
  O   O35       1.0  0.12742999999999996  0.07841  0.60293  1.0000
  O   O36       1.0  0.12198999999999997  0.07812  0.52516  1.0000
  O   O37       1.0  0.9099899999999997  0.09567  0.6469599999999999  1.0000
  O   O38       1.0  0.9101499999999998  0.09294  0.72482  1.0000
  O   O39       1.0  0.6294  0.42218  0.7278499999999998  1.0000
  O   O40       1.0  0.6282799999999998  0.42229  0.6500599999999999  1.0000
  O   O41       1.0  0.08052  0.99131  0.18848999999999994  1.0000
  O   O42       1.0  0.9132299999999999  0.00652  0.06256  1.0000
  O   O43       1.0  0.40653  0.4886  0.1868  1.0000
  O   O44       1.0  0.5881  0.50288  0.06284  1.0000
  O   O45       1.0  0.12175999999999997  0.07788000000000002  0.024749999999999994  1.0000
  O   O46       1.0  0.12192999999999997  0.07787  0.10256999999999997  1.0000
  O   O47       1.0  0.4074899999999999  0.40356  0.02197  1.0000
  O   O48       1.0  0.4024999999999999  0.40643  0.09974999999999998  1.0000
  O   O49       1.0  0.61832  0.42207  0.14998  1.0000
  O   O50       1.0  0.6151199999999999  0.42096  0.22771999999999995  1.0000
  O   O51       1.0  0.9008199999999998  0.09541  0.22522999999999996  1.0000
  O   O52       1.0  0.9039499999999999  0.09673  0.14739999999999995  1.0000
  O   O53       1.0  0.08928  0.9039200000000001  0.10234  1.0000
  O   O54       1.0  0.0957  0.9070200000000002  0.024569999999999998  1.0000
  O   O55       1.0  0.3745499999999999  0.57809  0.10275999999999998  1.0000
  O   O56       1.0  0.3764499999999999  0.57793  0.024959999999999993  1.0000
  O   O57       1.0  0.5931499999999998  0.59334  0.14716  1.0000
  O   O58       1.0  0.58794  0.59385  0.22489  1.0000
  O   O59       1.0  0.8719899999999998  0.92187  0.22781999999999994  1.0000
  O   O60       1.0  0.87344  0.9223400000000002  0.15004999999999996  1.0000
  O   O61       1.0  0.58107  0.51226  0.31181  1.0000
  O   O62       1.0  0.4117099999999999  0.49414  0.4378  1.0000
  O   O63       1.0  0.9046499999999997  0.011250000000000001  0.3131799999999999  1.0000
  O   O64       1.0  0.08672  0.99675  0.43685  1.0000
  O   O65       1.0  0.62315  0.42253  0.47516  1.0000
  O   O66       1.0  0.6194799999999999  0.42193  0.39734999999999987  1.0000
  O   O67       1.0  0.9091499999999998  0.09685  0.47783999999999993  1.0000
  O   O68       1.0  0.8999  0.09283  0.40017  1.0000
  O   O69       1.0  0.11619999999999998  0.07809  0.3502499999999999  1.0000
  O   O70       1.0  0.11644999999999998  0.07865  0.27257  1.0000
  O   O71       1.0  0.40233  0.40391  0.27489  1.0000
  O   O72       1.0  0.40119  0.40402  0.35272  1.0000
  O   O73       1.0  0.58708  0.5963  0.39788  1.0000
  O   O74       1.0  0.59337  0.5934000000000001  0.4756399999999999  1.0000
  O   O75       1.0  0.87259  0.9215900000000001  0.39707  1.0000
  O   O76       1.0  0.87803  0.9218800000000001  0.4748399999999999  1.0000
  O   O77       1.0  0.09002  0.90433  0.3530399999999999  1.0000
  O   O78       1.0  0.08986999999999998  0.9070599999999999  0.27518  1.0000
  O   O79       1.0  0.3706099999999999  0.57782  0.27215  1.0000
  O   O80       1.0  0.37172999999999995  0.57771  0.34993999999999986  1.0000
