data_image0
_chemical_formula_structural       Ag12H96C80N96
_chemical_formula_sum              "Ag12 H96 C80 N96"
_cell_length_a       11.03521
_cell_length_b       6.90345
_cell_length_c       41.06121000000001
_cell_angle_alpha    89.97953
_cell_angle_beta     90.00728
_cell_angle_gamma    90.01937

_symmetry_space_group_name_H-M    'P 1'
_symmetry_Int_Tables_number       1

loop_
  _symmetry_equiv_pos_as_xyz
  'x,y,z'

loop_
  _atom_site_type_symbol
  _atom_site_label
  _atom_site_symmetry_multiplicity
  _atom_site_fract_x
  _atom_site_fract_y
  _atom_site_fract_z
  _atom_site_occupancy
  Ag  Ag1       1.0  0.35339  0.54186  0.72318  1.0000
  Ag  Ag2       1.0  0.35676  0.9065  0.54021  1.0000
  Ag  Ag3       1.0  0.35714  0.36252  0.3744499999999999  1.0000
  Ag  Ag4       1.0  0.85796  0.13912  0.62529  1.0000
  Ag  Ag5       1.0  0.85068  0.96003  0.27675999999999995  1.0000
  Ag  Ag6       1.0  0.8572999999999998  0.59253  0.45940999999999993  1.0000
  Ag  Ag7       1.0  0.14276  0.63847  0.87461  1.0000
  Ag  Ag8       1.0  0.14652  0.45726000000000006  0.22309  1.0000
  Ag  Ag9       1.0  0.14229  0.09509  0.03997  1.0000
  Ag  Ag10      1.0  0.64809  0.04  0.77666  1.0000
  Ag  Ag11      1.0  0.64408  0.40829  0.95928  1.0000
  Ag  Ag12      1.0  0.6424  0.8593500000000002  0.12549999999999997  1.0000
  H   H1        1.0  0.61344  0.61108  0.58496  1.0000
  H   H2        1.0  0.76127  0.50978  0.59283  1.0000
  H   H3        1.0  0.646  0.12886  0.68422  1.0000
  H   H4        1.0  0.43255  0.49225000000000013  0.6258499999999999  1.0000
  H   H5        1.0  0.66682  0.8695600000000001  0.55925  1.0000
  H   H6        1.0  0.43723  0.3532200000000001  0.56848  1.0000
  H   H7        1.0  0.05852  0.84077  0.6609499999999999  1.0000
  H   H8        1.0  0.17754  0.85043  0.6911199999999998  1.0000
  H   H9        1.0  0.19545  0.16983  0.70832  1.0000
  H   H10       1.0  0.00643  0.48517  0.63702  1.0000
  H   H11       1.0  0.4889999999999999  0.94078  0.61816  1.0000
  H   H12       1.0  0.15373  0.6709  0.60113  1.0000
  H   H13       1.0  0.41425  0.03138  0.26109  1.0000
  H   H14       1.0  0.36007  0.10595  0.30072  1.0000
  H   H15       1.0  0.04475  0.9891  0.20763999999999996  1.0000
  H   H16       1.0  0.11395999999999999  0.9360100000000002  0.30855999999999995  1.0000
  H   H17       1.0  0.39581  0.35741  0.2902699999999999  1.0000
  H   H18       1.0  0.30921  0.85712  0.34417999999999993  1.0000
  H   H19       1.0  0.58937  0.15222  0.50245  1.0000
  H   H20       1.0  0.74045  0.22335  0.49085999999999996  1.0000
  H   H21       1.0  0.68079  0.3441200000000001  0.38046  1.0000
  H   H22       1.0  0.41749  0.22298  0.45156  1.0000
  H   H23       1.0  0.63247  0.8997300000000003  0.48567  1.0000
  H   H24       1.0  0.4277599999999999  0.41231  0.5126399999999999  1.0000
  H   H25       1.0  0.91665  0.4719800000000001  0.7386399999999999  1.0000
  H   H26       1.0  0.86287  0.39687  0.6990099999999999  1.0000
  H   H27       1.0  0.5476  0.50984  0.79211  1.0000
  H   H28       1.0  0.61622  0.5684500000000001  0.6912399999999997  1.0000
  H   H29       1.0  0.89834  0.1455  0.7094899999999997  1.0000
  H   H30       1.0  0.80878  0.64621  0.65578  1.0000
  H   H31       1.0  0.08871  0.3457500000000001  0.4971999999999999  1.0000
  H   H32       1.0  0.23985  0.27501  0.50884  1.0000
  H   H33       1.0  0.1817  0.15644  0.61924  1.0000
  H   H34       1.0  0.91703  0.27224  0.5482299999999999  1.0000
  H   H35       1.0  0.1318  0.59852  0.51428  1.0000
  H   H36       1.0  0.92704  0.0851  0.48703  1.0000
  H   H37       1.0  0.11427  0.8882800000000001  0.41457  1.0000
  H   H38       1.0  0.26178  0.99032  0.40652999999999995  1.0000
  H   H39       1.0  0.14264  0.37516  0.3159  1.0000
  H   H40       1.0  0.9323499999999998  0.00652  0.37420999999999993  1.0000
  H   H41       1.0  0.16887  0.6295500000000003  0.44047  1.0000
  H   H42       1.0  0.93808  0.14686000000000005  0.43132999999999994  1.0000
  H   H43       1.0  0.55793  0.6580600000000002  0.33913999999999994  1.0000
  H   H44       1.0  0.67628  0.6503300000000002  0.30877999999999994  1.0000
  H   H45       1.0  0.69095  0.33135  0.29181  1.0000
  H   H46       1.0  0.50392  0.01281  0.36313  1.0000
  H   H47       1.0  0.98885  0.55763  0.3812999999999999  1.0000
  H   H48       1.0  0.65471  0.82926  0.3988999999999999  1.0000
  H   H49       1.0  0.0848  0.97033  0.76099  1.0000
  H   H50       1.0  0.13837  0.8950500000000002  0.80063  1.0000
  H   H51       1.0  0.45473  0.0097  0.70783  1.0000
  H   H52       1.0  0.38459999999999994  0.0677  0.80861  1.0000
  H   H53       1.0  0.10164  0.64372  0.7903599999999998  1.0000
  H   H54       1.0  0.19147  0.14422  0.8439899999999999  1.0000
  H   H55       1.0  0.91042  0.8483200000000001  0.00249  1.0000
  H   H56       1.0  0.75945  0.7763  0.9908299999999998  1.0000
  H   H57       1.0  0.8195499999999999  0.6543300000000002  0.8805499999999999  1.0000
  H   H58       1.0  0.08251  0.77765  0.9516299999999999  1.0000
  H   H59       1.0  0.86905  0.10068000000000003  0.98566  1.0000
  H   H60       1.0  0.07301  0.58936  0.012409999999999997  1.0000
  H   H61       1.0  0.8871099999999998  0.38897  0.08466999999999998  1.0000
  H   H62       1.0  0.7391999999999999  0.4894900000000001  0.09265  1.0000
  H   H63       1.0  0.8562499999999998  0.8699700000000002  0.18404  1.0000
  H   H64       1.0  0.0679  0.50537  0.12545  1.0000
  H   H65       1.0  0.83101  0.1304  0.05915  1.0000
  H   H66       1.0  0.06279  0.6491300000000001  0.06817  1.0000
  H   H67       1.0  0.44260999999999995  0.15954  0.16074999999999998  1.0000
  H   H68       1.0  0.3237  0.14842  0.19091  1.0000
  H   H69       1.0  0.3045  0.82913  0.20831999999999998  1.0000
  H   H70       1.0  0.49437  0.51532  0.13706999999999997  1.0000
  H   H71       1.0  0.01241  0.05733  0.11796  1.0000
  H   H72       1.0  0.34706  0.32906  0.10092  1.0000
  H   H73       1.0  0.38673  0.11225000000000003  0.9146999999999998  1.0000
  H   H74       1.0  0.23891  0.01077  0.9068399999999999  1.0000
  H   H75       1.0  0.3541  0.62796  0.81579  1.0000
  H   H76       1.0  0.56776  0.99226  0.87396  1.0000
  H   H77       1.0  0.33309  0.37076000000000003  0.9404899999999999  1.0000
  H   H78       1.0  0.56301  0.85423  0.9311299999999999  1.0000
  H   H79       1.0  0.9420699999999999  0.33975  0.8388899999999999  1.0000
  H   H80       1.0  0.82349  0.34878000000000003  0.80859  1.0000
  H   H81       1.0  0.80717  0.6681600000000001  0.79151  1.0000
  H   H82       1.0  0.9941999999999999  0.98484  0.8630399999999999  1.0000
  H   H83       1.0  0.51101  0.44017000000000006  0.8812899999999999  1.0000
  H   H84       1.0  0.84622  0.17134000000000002  0.8987499999999999  1.0000
  H   H85       1.0  0.58277  0.52886  0.23853999999999997  1.0000
  H   H86       1.0  0.63686  0.6029500000000002  0.19889999999999997  1.0000
  H   H87       1.0  0.95197  0.49010000000000004  0.29205  1.0000
  H   H88       1.0  0.88297  0.43035  0.19121999999999995  1.0000
  H   H89       1.0  0.60133  0.85417  0.20987  1.0000
  H   H90       1.0  0.69064  0.35266  0.15585  1.0000
  H   H91       1.0  0.41208999999999996  0.65488  0.99727  1.0000
  H   H92       1.0  0.26067  0.72455  0.008759999999999999  1.0000
  H   H93       1.0  0.31815  0.84075  0.11933999999999999  1.0000
  H   H94       1.0  0.58325  0.72975  0.048269999999999987  1.0000
  H   H95       1.0  0.36708  0.40182  0.01419  1.0000
  H   H96       1.0  0.57275  0.9164600000000002  0.9868999999999998  1.0000
  C   C1        1.0  0.66357  0.48363000000000006  0.5938  1.0000
  C   C2        1.0  0.61845  0.23749000000000003  0.66666  1.0000
  C   C3        1.0  0.50763  0.41512  0.6366799999999999  1.0000
  C   C4        1.0  0.63576  0.01708  0.563  1.0000
  C   C5        1.0  0.51668  0.26227  0.56723  1.0000
  C   C6        1.0  0.14391  0.7768400000000002  0.66928  1.0000
  C   C7        1.0  0.15827  0.28734  0.69392  1.0000
  C   C8        1.0  0.06273  0.44396  0.65742  1.0000
  C   C9        1.0  0.40008  0.87799  0.62184  1.0000
  C   C10       1.0  0.23034999999999997  0.74301  0.61225  1.0000
  C   C11       1.0  0.3491  0.00144  0.28059999999999996  1.0000
  C   C12       1.0  0.08838  0.9919  0.23125999999999997  1.0000
  C   C13       1.0  0.1214  0.9731300000000003  0.28308  1.0000
  C   C14       1.0  0.38091  0.50752  0.29705  1.0000
  C   C15       1.0  0.33769  0.7566500000000003  0.3254299999999999  1.0000
  C   C16       1.0  0.64367  0.25144  0.48743999999999993  1.0000
  C   C17       1.0  0.63969  0.30619  0.40348999999999996  1.0000
  C   C18       1.0  0.50309  0.24347000000000005  0.43916  1.0000
  C   C19       1.0  0.60576  0.7524400000000002  0.49138  1.0000
  C   C20       1.0  0.4994199999999999  0.50835  0.50499  1.0000
  C   C21       1.0  0.8515199999999999  0.5014300000000002  0.7190999999999999  1.0000
  C   C22       1.0  0.59104  0.50838  0.76849  1.0000
  C   C23       1.0  0.62385  0.53019  0.71667  1.0000
  C   C24       1.0  0.8828399999999998  0.99546  0.7027499999999999  1.0000
  C   C25       1.0  0.83846  0.7465600000000002  0.6744199999999999  1.0000
  C   C26       1.0  0.14304  0.24661000000000005  0.51222  1.0000
  C   C27       1.0  0.14025  0.19323  0.59621  1.0000
  C   C28       1.0  0.0029299999999999994  0.2533  0.5605799999999999  1.0000
  C   C29       1.0  0.10510999999999998  0.7456100000000002  0.50849  1.0000
  C   C30       1.0  0.99882  0.98927  0.49471999999999994  1.0000
  C   C31       1.0  0.16404  0.0161  0.4057299999999999  1.0000
  C   C32       1.0  0.11601999999999998  0.26509  0.33333999999999997  1.0000
  C   C33       1.0  0.006779999999999999  0.08488000000000002  0.36329999999999996  1.0000
  C   C34       1.0  0.13722  0.48235  0.4367  1.0000
  C   C35       1.0  0.01767  0.23754000000000006  0.4324799999999999  1.0000
  C   C36       1.0  0.64285  0.7232600000000002  0.33071  1.0000
  C   C37       1.0  0.65425  0.21311  0.30613999999999997  1.0000
  C   C38       1.0  0.55993  0.05487000000000001  0.34269  1.0000
  C   C39       1.0  0.89994  0.62063  0.37776999999999994  1.0000
  C   C40       1.0  0.7308499999999999  0.75677  0.38762999999999986  1.0000
  C   C41       1.0  0.14957  9.000000000000036e-05  0.7805899999999999  1.0000
  C   C42       1.0  0.41076999999999997  0.00801  0.73142  1.0000
  C   C43       1.0  0.37726999999999994  0.02934  0.7831999999999999  1.0000
  C   C44       1.0  0.11706  0.49366  0.7971099999999999  1.0000
  C   C45       1.0  0.16167  0.24462  0.82538  1.0000
  C   C46       1.0  0.85634  0.74873  0.9874799999999999  1.0000
  C   C47       1.0  0.8604099999999999  0.69294  0.9035699999999999  1.0000
  C   C48       1.0  0.99695  0.7567200000000001  0.9392299999999999  1.0000
  C   C49       1.0  0.89543  0.24805  0.9913499999999998  1.0000
  C   C50       1.0  0.0014  0.49278000000000005  0.00486  1.0000
  C   C51       1.0  0.83686  0.516  0.09358  1.0000
  C   C52       1.0  0.8833299999999998  0.7612800000000002  0.16642  1.0000
  C   C53       1.0  0.99324  0.58316  0.13633  1.0000
  C   C54       1.0  0.86289  0.9832900000000002  0.0629  1.0000
  C   C55       1.0  0.98296  0.7392000000000002  0.06702  1.0000
  C   C56       1.0  0.35715  0.22293  0.16913999999999996  1.0000
  C   C57       1.0  0.34198  0.7117900000000003  0.19396999999999995  1.0000
  C   C58       1.0  0.43777999999999995  0.55602  0.15744999999999998  1.0000
  C   C59       1.0  0.10120999999999998  0.12056  0.12164999999999998  1.0000
  C   C60       1.0  0.27067  0.25643  0.11206  1.0000
  C   C61       1.0  0.3366  0.98468  0.9058899999999998  1.0000
  C   C62       1.0  0.38176  0.73716  0.8332299999999999  1.0000
  C   C63       1.0  0.49265  0.91505  0.8631399999999999  1.0000
  C   C64       1.0  0.36429  0.51814  0.9367099999999999  1.0000
  C   C65       1.0  0.48347999999999997  0.76335  0.93242  1.0000
  C   C66       1.0  0.8567  0.27579  0.83055  1.0000
  C   C67       1.0  0.84372  0.7859500000000001  0.8059899999999999  1.0000
  C   C68       1.0  0.9382  0.9432700000000003  0.84262  1.0000
  C   C69       1.0  0.60009  0.37786000000000003  0.8777299999999999  1.0000
  C   C70       1.0  0.7697  0.24314000000000005  0.8875299999999999  1.0000
  C   C71       1.0  0.64779  0.49855  0.21904  1.0000
  C   C72       1.0  0.90837  0.49118  0.26839  1.0000
  C   C73       1.0  0.87545  0.46933  0.21659999999999996  1.0000
  C   C74       1.0  0.6165  0.00422  0.20299  1.0000
  C   C75       1.0  0.6611  0.25271  0.17454999999999998  1.0000
  C   C76       1.0  0.35733  0.7537600000000002  0.01221  1.0000
  C   C77       1.0  0.3598  0.8053600000000001  0.09627999999999999  1.0000
  C   C78       1.0  0.49731  0.74765  0.06061999999999999  1.0000
  C   C79       1.0  0.39411  0.25486  0.0084  1.0000
  C   C80       1.0  0.50092  0.011850000000000001  0.99466  1.0000
  N   N1        1.0  0.62823  0.45009  0.62779  1.0000
  N   N2        1.0  0.70049  0.32194  0.6465699999999999  1.0000
  N   N3        1.0  0.50197  0.29041000000000006  0.66166  1.0000
  N   N4        1.0  0.6347399999999999  0.32323  0.57248  1.0000
  N   N5        1.0  0.71168  0.1585  0.5723799999999999  1.0000
  N   N6        1.0  0.51861  0.07198  0.55909  1.0000
  N   N7        1.0  0.12173999999999999  0.57527  0.67684  1.0000
  N   N8        1.0  0.18844  0.4729300000000001  0.6998599999999999  1.0000
  N   N9        1.0  0.08232  0.2634  0.66854  1.0000
  N   N10       1.0  0.23488  0.7998900000000001  0.64395  1.0000
  N   N11       1.0  0.34413  0.88541  0.65054  1.0000
  N   N12       1.0  0.3348  0.7896800000000002  0.5975799999999999  1.0000
  N   N13       1.0  0.22725999999999996  0.01748  0.26737  1.0000
  N   N14       1.0  0.20662999999999998  0.02856  0.23404  1.0000
  N   N15       1.0  0.03267  0.95671  0.26032  1.0000
  N   N16       1.0  0.37246  0.8133900000000002  0.29481  1.0000
  N   N17       1.0  0.39564  0.6510100000000002  0.27564999999999995  1.0000
  N   N18       1.0  0.34784  0.56291  0.32767999999999997  1.0000
  N   N19       1.0  0.61581  0.21990000000000004  0.45296  1.0000
  N   N20       1.0  0.70443  0.26683  0.43006  1.0000
  N   N21       1.0  0.51655  0.29461  0.40781999999999996  1.0000
  N   N22       1.0  0.61555  0.44465  0.4982499999999999  1.0000
  N   N23       1.0  0.68331  0.6043200000000002  0.48726999999999987  1.0000
  N   N24       1.0  0.49417999999999995  0.70257  0.5023799999999999  1.0000
  N   N25       1.0  0.72973  0.4846800000000001  0.73229  1.0000
  N   N26       1.0  0.70925  0.47180000000000005  0.76559  1.0000
  N   N27       1.0  0.53526  0.54542  0.7394999999999998  1.0000
  N   N28       1.0  0.87452  0.6895500000000002  0.70492  1.0000
  N   N29       1.0  0.89832  0.85181  0.72409  1.0000
  N   N30       1.0  0.84853  0.94041  0.67221  1.0000
  N   N31       1.0  0.11534999999999998  0.27817  0.54671  1.0000
  N   N32       1.0  0.20454  0.23297  0.56957  1.0000
  N   N33       1.0  0.01703  0.20299  0.59195  1.0000
  N   N34       1.0  0.11492  0.05322000000000001  0.50153  1.0000
  N   N35       1.0  0.18252999999999997  0.8938000000000001  0.51267  1.0000
  N   N36       1.0  0.9936999999999999  0.7951000000000001  0.49737  1.0000
  N   N37       1.0  0.12774  0.05020000000000001  0.37183999999999995  1.0000
  N   N38       1.0  0.19898999999999997  0.18016000000000004  0.35309  1.0000
  N   N39       1.0  0.9998899999999998  0.21079000000000003  0.3385199999999999  1.0000
  N   N40       1.0  0.13559  0.17609  0.42718  1.0000
  N   N41       1.0  0.21274  0.34061  0.42723999999999995  1.0000
  N   N42       1.0  0.02  0.42779  0.44066  1.0000
  N   N43       1.0  0.61971  0.92464  0.3232499999999999  1.0000
  N   N44       1.0  0.68564  0.028110000000000007  0.30019  1.0000
  N   N45       1.0  0.57819  0.23571  0.33153  1.0000
  N   N46       1.0  0.73457  0.70052  0.35588999999999993  1.0000
  N   N47       1.0  0.8434  0.61414  0.34914  1.0000
  N   N48       1.0  0.8354099999999999  0.7092  0.40214  1.0000
  N   N49       1.0  0.27153  0.98459  0.7674699999999999  1.0000
  N   N50       1.0  0.2925  0.9716700000000003  0.73419  1.0000
  N   N51       1.0  0.46615  0.04466  0.7604599999999998  1.0000
  N   N52       1.0  0.12583  0.18779  0.7948599999999999  1.0000
  N   N53       1.0  0.10167  0.35019  0.77575  1.0000
  N   N54       1.0  0.15139  0.43836  0.8276499999999998  1.0000
  N   N55       1.0  0.88418  0.7808  0.9529799999999998  1.0000
  N   N56       1.0  0.79553  0.73298  0.9300999999999999  1.0000
  N   N57       1.0  0.9835  0.7047100000000001  0.90792  1.0000
  N   N58       1.0  0.88493  0.55567  0.9982299999999998  1.0000
  N   N59       1.0  0.81745  0.39555000000000007  0.9872699999999998  1.0000
  N   N60       1.0  0.00696  0.29851  0.0022799999999999995  1.0000
  N   N61       1.0  0.87255  0.54896  0.12754  1.0000
  N   N62       1.0  0.80085  0.67737  0.14638  1.0000
  N   N63       1.0  0.9996  0.70761  0.1613  1.0000
  N   N64       1.0  0.86521  0.6769800000000002  0.07232  1.0000
  N   N65       1.0  0.78769  0.8408900000000002  0.07229999999999999  1.0000
  N   N66       1.0  0.98024  0.92957  0.05891  1.0000
  N   N67       1.0  0.37881  0.42437  0.17682  1.0000
  N   N68       1.0  0.3119  0.52613  0.19984999999999997  1.0000
  N   N69       1.0  0.41796999999999995  0.7363600000000001  0.16862  1.0000
  N   N70       1.0  0.26623  0.19982  0.14378  1.0000
  N   N71       1.0  0.15713  0.11376  0.15037  1.0000
  N   N72       1.0  0.16633  0.20914  0.09739  1.0000
  N   N73       1.0  0.37199  0.9509000000000002  0.87191  1.0000
  N   N74       1.0  0.29966  0.82224  0.8532099999999999  1.0000
  N   N75       1.0  0.49826999999999994  0.78981  0.8382399999999999  1.0000
  N   N76       1.0  0.36539  0.8243700000000003  0.9272399999999998  1.0000
  N   N77       1.0  0.28836  0.65965  0.92736  1.0000
  N   N78       1.0  0.48149  0.57301  0.9405699999999998  1.0000
  N   N79       1.0  0.8787999999999999  0.07403000000000001  0.8231799999999999  1.0000
  N   N80       1.0  0.81289  0.9713100000000001  0.80008  1.0000
  N   N81       1.0  0.91946  0.76257  0.83143  1.0000
  N   N82       1.0  0.76548  0.29939  0.8557799999999999  1.0000
  N   N83       1.0  0.6563099999999998  0.38468  0.8490599999999999  1.0000
  N   N84       1.0  0.66511  0.28989  0.90209  1.0000
  N   N85       1.0  0.76956  0.51437  0.23221999999999995  1.0000
  N   N86       1.0  0.7901199999999999  0.5273  0.26552  1.0000
  N   N87       1.0  0.96414  0.45429  0.23941  1.0000
  N   N88       1.0  0.62409  0.3104700000000001  0.20491  1.0000
  N   N89       1.0  0.60002  0.14858  0.22415  1.0000
  N   N90       1.0  0.65155  0.05877000000000002  0.17248  1.0000
  N   N91       1.0  0.38499  0.72299  0.0467  1.0000
  N   N92       1.0  0.29571  0.76647  0.06958  1.0000
  N   N93       1.0  0.48309  0.79645  0.09204  1.0000
  N   N94       1.0  0.38496  0.9472800000000001  0.0014099999999999998  1.0000
  N   N95       1.0  0.31693999999999994  0.10625000000000001  0.01249  1.0000
  N   N96       1.0  0.50574  0.20597  0.99735  1.0000
