data_image0
_chemical_formula_structural       Al16H112C168N8O64
_chemical_formula_sum              "Al16 H112 C168 N8 O64"
_cell_length_a       16.93832
_cell_length_b       16.59189
_cell_length_c       32.98933
_cell_angle_alpha    90.0
_cell_angle_beta     90.0
_cell_angle_gamma    89.92540000000001

_space_group_name_H-M_alt    "P 1"
_space_group_IT_number       1

loop_
  _space_group_symop_operation_xyz
  'x, y, z'

loop_
  _atom_site_type_symbol
  _atom_site_label
  _atom_site_symmetry_multiplicity
  _atom_site_fract_x
  _atom_site_fract_y
  _atom_site_fract_z
  _atom_site_occupancy
  Al  Al1       1.0  0.37008  0.62842  0.0969  1.0000
  Al  Al2       1.0  0.62992  0.37158  0.0969  1.0000
  Al  Al3       1.0  0.13000999999999993  0.12845  0.40288  1.0000
  Al  Al4       1.0  0.86999  0.87155  0.40288  1.0000
  Al  Al5       1.0  0.62992  0.37158  0.9031  1.0000
  Al  Al6       1.0  0.37008  0.62842  0.9031  1.0000
  Al  Al7       1.0  0.86999  0.87155  0.59712  1.0000
  Al  Al8       1.0  0.13000999999999993  0.12845  0.59712  1.0000
  Al  Al9       1.0  0.34647  0.71062  0.0  1.0000
  Al  Al10      1.0  0.65353  0.28938  0.0  1.0000
  Al  Al11      1.0  0.15357  0.21066  0.5  1.0000
  Al  Al12      1.0  0.84643  0.78935  0.5  1.0000
  Al  Al13      1.0  0.0  0.0  0.3708  1.0000
  Al  Al14      1.0  0.5  0.5  0.12951  1.0000
  Al  Al15      1.0  0.0  0.0  0.6292  1.0000
  Al  Al16      1.0  0.5  0.5  0.8704899999999998  1.0000
  H   H1        1.0  0.4196299999999999  0.59745  0.03206  1.0000
  H   H2        1.0  0.29142  0.77835  0.15787  1.0000
  H   H3        1.0  0.29841  0.9260100000000001  0.05012  1.0000
  H   H4        1.0  0.29323  0.90111  0.20045  1.0000
  H   H5        1.0  0.29812  0.04888  0.09283  1.0000
  H   H6        1.0  0.35133  0.11795000000000001  0.24214  1.0000
  H   H7        1.0  0.15349  0.99269  0.18972  1.0000
  H   H8        1.0  0.25159  0.20743  0.17931  1.0000
  H   H9        1.0  0.44071  0.05047  0.14144  1.0000
  H   H10       1.0  0.2836  0.11839  0.30927  1.0000
  H   H11       1.0  0.08532999999999998  0.99428  0.25686  1.0000
  H   H12       1.0  0.33035  0.32682  0.15823  1.0000
  H   H13       1.0  0.52094  0.16959  0.12205999999999999  1.0000
  H   H14       1.0  0.10993999999999997  0.98353  0.41314  1.0000
  H   H15       1.0  0.58037  0.40256  0.03206  1.0000
  H   H16       1.0  0.70858  0.22165  0.15787  1.0000
  H   H17       1.0  0.70159  0.074  0.05012  1.0000
  H   H18       1.0  0.70677  0.0989  0.20045  1.0000
  H   H19       1.0  0.7018799999999997  0.95112  0.09283  1.0000
  H   H20       1.0  0.6486699999999997  0.8820500000000001  0.24214  1.0000
  H   H21       1.0  0.84651  0.00732  0.18972  1.0000
  H   H22       1.0  0.74841  0.79257  0.17931  1.0000
  H   H23       1.0  0.55929  0.94953  0.14144  1.0000
  H   H24       1.0  0.7164  0.88162  0.30927  1.0000
  H   H25       1.0  0.91467  0.00572  0.25686  1.0000
  H   H26       1.0  0.66965  0.6731900000000001  0.15823  1.0000
  H   H27       1.0  0.47905999999999993  0.83042  0.12205999999999999  1.0000
  H   H28       1.0  0.89006  0.01647  0.41314  1.0000
  H   H29       1.0  0.08051  0.09765  0.46775  1.0000
  H   H30       1.0  0.20857  0.27805  0.34189  1.0000
  H   H31       1.0  0.20166  0.42528  0.44979  1.0000
  H   H32       1.0  0.20701  0.40103  0.29941  1.0000
  H   H33       1.0  0.20213  0.54844  0.40722  1.0000
  H   H34       1.0  0.14847  0.6178  0.25804  1.0000
  H   H35       1.0  0.34662  0.49228  0.31026  1.0000
  H   H36       1.0  0.24848  0.70714  0.32067  1.0000
  H   H37       1.0  0.05949999999999999  0.55045  0.35844  1.0000
  H   H38       1.0  0.21619  0.61877  0.19088  1.0000
  H   H39       1.0  0.41478  0.49427  0.24307  1.0000
  H   H40       1.0  0.16955  0.82665  0.34178  1.0000
  H   H41       1.0  0.9790499999999999  0.66972  0.37778  1.0000
  H   H42       1.0  0.3903  0.48365  0.08651  1.0000
  H   H43       1.0  0.91949  0.90235  0.46775  1.0000
  H   H44       1.0  0.79143  0.72195  0.34189  1.0000
  H   H45       1.0  0.7983499999999999  0.57472  0.44979  1.0000
  H   H46       1.0  0.793  0.59898  0.29941  1.0000
  H   H47       1.0  0.79787  0.45156  0.40722  1.0000
  H   H48       1.0  0.8515299999999998  0.3822  0.25804  1.0000
  H   H49       1.0  0.65338  0.50772  0.31026  1.0000
  H   H50       1.0  0.75152  0.29286  0.32067  1.0000
  H   H51       1.0  0.9405  0.44955  0.35844  1.0000
  H   H52       1.0  0.7838099999999998  0.38123  0.19088  1.0000
  H   H53       1.0  0.58522  0.50574  0.24307  1.0000
  H   H54       1.0  0.83045  0.17335  0.34178  1.0000
  H   H55       1.0  0.020949999999999996  0.33028  0.37778  1.0000
  H   H56       1.0  0.6097  0.51636  0.08651  1.0000
  H   H57       1.0  0.58037  0.40256  0.96794  1.0000
  H   H58       1.0  0.70858  0.22165  0.84213  1.0000
  H   H59       1.0  0.70159  0.074  0.94988  1.0000
  H   H60       1.0  0.70677  0.0989  0.79955  1.0000
  H   H61       1.0  0.7018799999999997  0.95112  0.90717  1.0000
  H   H62       1.0  0.6486699999999997  0.8820500000000001  0.7578599999999999  1.0000
  H   H63       1.0  0.84651  0.00732  0.81028  1.0000
  H   H64       1.0  0.74841  0.79257  0.82069  1.0000
  H   H65       1.0  0.55929  0.94953  0.85856  1.0000
  H   H66       1.0  0.7164  0.88162  0.69073  1.0000
  H   H67       1.0  0.91467  0.00572  0.74314  1.0000
  H   H68       1.0  0.66965  0.6731900000000001  0.84177  1.0000
  H   H69       1.0  0.47905999999999993  0.83042  0.87794  1.0000
  H   H70       1.0  0.89006  0.01647  0.58686  1.0000
  H   H71       1.0  0.4196299999999999  0.59745  0.96794  1.0000
  H   H72       1.0  0.29142  0.77835  0.84213  1.0000
  H   H73       1.0  0.29841  0.9260100000000001  0.94988  1.0000
  H   H74       1.0  0.29323  0.90111  0.79955  1.0000
  H   H75       1.0  0.29812  0.04888  0.90717  1.0000
  H   H76       1.0  0.35133  0.11795000000000001  0.7578599999999999  1.0000
  H   H77       1.0  0.15349  0.99269  0.81028  1.0000
  H   H78       1.0  0.25159  0.20743  0.82069  1.0000
  H   H79       1.0  0.44071  0.05047  0.85856  1.0000
  H   H80       1.0  0.2836  0.11839  0.69073  1.0000
  H   H81       1.0  0.08532999999999998  0.99428  0.74314  1.0000
  H   H82       1.0  0.33035  0.32682  0.84177  1.0000
  H   H83       1.0  0.52094  0.16959  0.87794  1.0000
  H   H84       1.0  0.10993999999999997  0.98353  0.58686  1.0000
  H   H85       1.0  0.91949  0.90235  0.53225  1.0000
  H   H86       1.0  0.79143  0.72195  0.65811  1.0000
  H   H87       1.0  0.7983499999999999  0.57472  0.55021  1.0000
  H   H88       1.0  0.793  0.59898  0.70058  1.0000
  H   H89       1.0  0.79787  0.45156  0.59278  1.0000
  H   H90       1.0  0.8515299999999998  0.3822  0.74195  1.0000
  H   H91       1.0  0.65338  0.50772  0.68974  1.0000
  H   H92       1.0  0.75152  0.29286  0.67933  1.0000
  H   H93       1.0  0.9405  0.44955  0.64156  1.0000
  H   H94       1.0  0.7838099999999998  0.38123  0.80912  1.0000
  H   H95       1.0  0.58522  0.50574  0.75692  1.0000
  H   H96       1.0  0.83045  0.17335  0.65822  1.0000
  H   H97       1.0  0.020949999999999996  0.33028  0.62222  1.0000
  H   H98       1.0  0.6097  0.51636  0.91349  1.0000
  H   H99       1.0  0.08051  0.09765  0.53225  1.0000
  H   H100      1.0  0.20857  0.27805  0.65811  1.0000
  H   H101      1.0  0.20166  0.42528  0.55021  1.0000
  H   H102      1.0  0.20701  0.40103  0.70058  1.0000
  H   H103      1.0  0.20213  0.54844  0.59278  1.0000
  H   H104      1.0  0.14847  0.6178  0.74195  1.0000
  H   H105      1.0  0.34662  0.49228  0.68974  1.0000
  H   H106      1.0  0.24848  0.70714  0.67933  1.0000
  H   H107      1.0  0.05949999999999999  0.55045  0.64156  1.0000
  H   H108      1.0  0.21619  0.61877  0.80912  1.0000
  H   H109      1.0  0.41478  0.49427  0.75692  1.0000
  H   H110      1.0  0.16955  0.82665  0.65822  1.0000
  H   H111      1.0  0.9790499999999999  0.66972  0.62222  1.0000
  H   H112      1.0  0.3903  0.48365  0.91349  1.0000
  C   C1        1.0  0.29805  0.77161  0.07672  1.0000
  C   C2        1.0  0.29497  0.84297  0.10082  1.0000
  C   C3        1.0  0.29229  0.83763  0.14385  1.0000
  C   C4        1.0  0.2974799999999999  0.92104  0.08297  1.0000
  C   C5        1.0  0.29324  0.9062300000000001  0.1676  1.0000
  C   C6        1.0  0.29706  0.98957  0.10681  1.0000
  C   C7        1.0  0.29515  0.98357  0.1496  1.0000
  C   C8        1.0  0.25675  0.05514  0.21168  1.0000
  C   C9        1.0  0.34112  0.12127999999999999  0.16179  1.0000
  C   C10       1.0  0.29314  0.09122  0.24558000000000002  1.0000
  C   C11       1.0  0.1815  0.01989  0.21602  1.0000
  C   C12       1.0  0.31032  0.19992  0.16653  1.0000
  C   C13       1.0  0.41708  0.11103  0.14496  1.0000
  C   C14       1.0  0.25545  0.09148  0.28291  1.0000
  C   C15       1.0  0.14377  0.02051  0.25334  1.0000
  C   C16       1.0  0.35425  0.26634  0.15482  1.0000
  C   C17       1.0  0.4614699999999999  0.17735  0.13385  1.0000
  C   C18       1.0  0.18019999999999994  0.05607000000000001  0.28743  1.0000
  C   C19       1.0  0.43087  0.25647  0.13833  1.0000
  C   C20       1.0  0.14015  0.05729  0.32664  1.0000
  C   C21       1.0  0.4783299999999999  0.32487  0.1265  1.0000
  C   C22       1.0  0.70195  0.22839  0.07672  1.0000
  C   C23       1.0  0.7050299999999998  0.15704  0.10082  1.0000
  C   C24       1.0  0.70771  0.16238  0.14385  1.0000
  C   C25       1.0  0.70252  0.07896  0.08297  1.0000
  C   C26       1.0  0.70676  0.09378  0.1676  1.0000
  C   C27       1.0  0.7029399999999998  0.01043  0.10681  1.0000
  C   C28       1.0  0.7048499999999998  0.01644  0.1496  1.0000
  C   C29       1.0  0.74325  0.9448700000000002  0.21168  1.0000
  C   C30       1.0  0.65888  0.87873  0.16179  1.0000
  C   C31       1.0  0.70686  0.90878  0.24558000000000002  1.0000
  C   C32       1.0  0.8185  0.9801100000000001  0.21602  1.0000
  C   C33       1.0  0.68968  0.8000800000000001  0.16653  1.0000
  C   C34       1.0  0.58292  0.8889700000000003  0.14496  1.0000
  C   C35       1.0  0.74455  0.90852  0.28291  1.0000
  C   C36       1.0  0.85623  0.9794900000000001  0.25334  1.0000
  C   C37       1.0  0.64575  0.73366  0.15482  1.0000
  C   C38       1.0  0.53853  0.82266  0.13385  1.0000
  C   C39       1.0  0.8198  0.9439300000000003  0.28743  1.0000
  C   C40       1.0  0.56913  0.74353  0.13833  1.0000
  C   C41       1.0  0.85985  0.94272  0.32664  1.0000
  C   C42       1.0  0.52167  0.67513  0.1265  1.0000
  C   C43       1.0  0.20198999999999995  0.27124  0.42306  1.0000
  C   C44       1.0  0.20507  0.34258  0.39899  1.0000
  C   C45       1.0  0.20775999999999994  0.33731  0.35595  1.0000
  C   C46       1.0  0.20261  0.42056  0.41693  1.0000
  C   C47       1.0  0.2069  0.4060100000000001  0.33227  1.0000
  C   C48       1.0  0.20309  0.48916999999999994  0.39317  1.0000
  C   C49       1.0  0.20499999999999993  0.48327  0.35038  1.0000
  C   C50       1.0  0.24333999999999997  0.55495  0.2883699999999999  1.0000
  C   C51       1.0  0.15906  0.62113  0.33825  1.0000
  C   C52       1.0  0.20674999999999993  0.59117  0.25454  1.0000
  C   C53       1.0  0.31863  0.51966  0.28398  1.0000
  C   C54       1.0  0.18981  0.69971  0.33351  1.0000
  C   C55       1.0  0.08306  0.611  0.35501  1.0000
  C   C56       1.0  0.24437  0.59169  0.2172  1.0000
  C   C57       1.0  0.35628999999999994  0.52051  0.24666  1.0000
  C   C58       1.0  0.14586  0.7661700000000002  0.34526  1.0000
  C   C59       1.0  0.0386  0.67737  0.3661  1.0000
  C   C60       1.0  0.3197099999999999  0.55631  0.21264  1.0000
  C   C61       1.0  0.06924999999999998  0.75641  0.36171  1.0000
  C   C62       1.0  0.35991  0.5576200000000001  0.1735  1.0000
  C   C63       1.0  0.02167  0.82486  0.37349  1.0000
  C   C64       1.0  0.79801  0.72876  0.42306  1.0000
  C   C65       1.0  0.79494  0.65742  0.39899  1.0000
  C   C66       1.0  0.79224  0.6627  0.35595  1.0000
  C   C67       1.0  0.79739  0.57945  0.41693  1.0000
  C   C68       1.0  0.7930999999999999  0.594  0.33227  1.0000
  C   C69       1.0  0.7969099999999998  0.5108300000000001  0.39317  1.0000
  C   C70       1.0  0.7949999999999998  0.51673  0.35038  1.0000
  C   C71       1.0  0.7566599999999998  0.44505  0.2883699999999999  1.0000
  C   C72       1.0  0.84095  0.37887  0.33825  1.0000
  C   C73       1.0  0.7932499999999998  0.40884  0.25454  1.0000
  C   C74       1.0  0.68137  0.48034  0.28398  1.0000
  C   C75       1.0  0.81019  0.3003  0.33351  1.0000
  C   C76       1.0  0.91694  0.38901  0.35501  1.0000
  C   C77       1.0  0.7556299999999998  0.40831  0.2172  1.0000
  C   C78       1.0  0.64371  0.47949  0.24666  1.0000
  C   C79       1.0  0.8541399999999998  0.23383  0.34526  1.0000
  C   C80       1.0  0.9613999999999999  0.32263  0.3661  1.0000
  C   C81       1.0  0.68029  0.44369000000000003  0.21264  1.0000
  C   C82       1.0  0.93075  0.2436  0.36171  1.0000
  C   C83       1.0  0.64009  0.44239  0.1735  1.0000
  C   C84       1.0  0.97833  0.17514  0.37349  1.0000
  C   C85       1.0  0.70195  0.22839  0.92328  1.0000
  C   C86       1.0  0.7050299999999998  0.15704  0.89918  1.0000
  C   C87       1.0  0.70771  0.16238  0.85615  1.0000
  C   C88       1.0  0.70252  0.07896  0.91702  1.0000
  C   C89       1.0  0.70676  0.09378  0.8324  1.0000
  C   C90       1.0  0.7029399999999998  0.01043  0.89319  1.0000
  C   C91       1.0  0.7048499999999998  0.01644  0.8504  1.0000
  C   C92       1.0  0.74325  0.9448700000000002  0.78832  1.0000
  C   C93       1.0  0.65888  0.87873  0.83821  1.0000
  C   C94       1.0  0.70686  0.90878  0.75442  1.0000
  C   C95       1.0  0.8185  0.9801100000000001  0.78398  1.0000
  C   C96       1.0  0.68968  0.8000800000000001  0.83347  1.0000
  C   C97       1.0  0.58292  0.8889700000000003  0.85504  1.0000
  C   C98       1.0  0.74455  0.90852  0.71709  1.0000
  C   C99       1.0  0.85623  0.9794900000000001  0.74666  1.0000
  C   C100      1.0  0.64575  0.73366  0.84518  1.0000
  C   C101      1.0  0.53853  0.82266  0.86615  1.0000
  C   C102      1.0  0.8198  0.9439300000000003  0.71257  1.0000
  C   C103      1.0  0.56913  0.74353  0.86166  1.0000
  C   C104      1.0  0.85985  0.94272  0.67336  1.0000
  C   C105      1.0  0.52167  0.67513  0.8735  1.0000
  C   C106      1.0  0.29805  0.77161  0.92328  1.0000
  C   C107      1.0  0.29497  0.84297  0.89918  1.0000
  C   C108      1.0  0.29229  0.83763  0.85615  1.0000
  C   C109      1.0  0.2974799999999999  0.92104  0.91702  1.0000
  C   C110      1.0  0.29324  0.9062300000000001  0.8324  1.0000
  C   C111      1.0  0.29706  0.98957  0.89319  1.0000
  C   C112      1.0  0.29515  0.98357  0.8504  1.0000
  C   C113      1.0  0.25675  0.05514  0.78832  1.0000
  C   C114      1.0  0.34112  0.12127999999999999  0.83821  1.0000
  C   C115      1.0  0.29314  0.09122  0.75442  1.0000
  C   C116      1.0  0.1815  0.01989  0.78398  1.0000
  C   C117      1.0  0.31032  0.19992  0.83347  1.0000
  C   C118      1.0  0.41708  0.11103  0.85504  1.0000
  C   C119      1.0  0.25545  0.09148  0.71709  1.0000
  C   C120      1.0  0.14377  0.02051  0.74666  1.0000
  C   C121      1.0  0.35425  0.26634  0.84518  1.0000
  C   C122      1.0  0.4614699999999999  0.17735  0.86615  1.0000
  C   C123      1.0  0.18019999999999994  0.05607000000000001  0.71257  1.0000
  C   C124      1.0  0.43087  0.25647  0.86166  1.0000
  C   C125      1.0  0.14015  0.05729  0.67336  1.0000
  C   C126      1.0  0.4783299999999999  0.32487  0.8735  1.0000
  C   C127      1.0  0.79801  0.72876  0.57694  1.0000
  C   C128      1.0  0.79494  0.65742  0.60101  1.0000
  C   C129      1.0  0.79224  0.6627  0.64405  1.0000
  C   C130      1.0  0.79739  0.57945  0.58307  1.0000
  C   C131      1.0  0.7930999999999999  0.594  0.66773  1.0000
  C   C132      1.0  0.7969099999999998  0.5108300000000001  0.60682  1.0000
  C   C133      1.0  0.7949999999999998  0.51673  0.64962  1.0000
  C   C134      1.0  0.7566599999999998  0.44505  0.71163  1.0000
  C   C135      1.0  0.84095  0.37887  0.66175  1.0000
  C   C136      1.0  0.7932499999999998  0.40884  0.74545  1.0000
  C   C137      1.0  0.68137  0.48034  0.7160199999999999  1.0000
  C   C138      1.0  0.81019  0.3003  0.66649  1.0000
  C   C139      1.0  0.91694  0.38901  0.64499  1.0000
  C   C140      1.0  0.7556299999999998  0.40831  0.78279  1.0000
  C   C141      1.0  0.64371  0.47949  0.75334  1.0000
  C   C142      1.0  0.8541399999999998  0.23383  0.6547399999999998  1.0000
  C   C143      1.0  0.9613999999999999  0.32263  0.6339  1.0000
  C   C144      1.0  0.68029  0.44369000000000003  0.7873599999999997  1.0000
  C   C145      1.0  0.93075  0.2436  0.63829  1.0000
  C   C146      1.0  0.64009  0.44239  0.8265  1.0000
  C   C147      1.0  0.97833  0.17514  0.62651  1.0000
  C   C148      1.0  0.20198999999999995  0.27124  0.57694  1.0000
  C   C149      1.0  0.20507  0.34258  0.60101  1.0000
  C   C150      1.0  0.20775999999999994  0.33731  0.64405  1.0000
  C   C151      1.0  0.20261  0.42056  0.58307  1.0000
  C   C152      1.0  0.2069  0.4060100000000001  0.66773  1.0000
  C   C153      1.0  0.20309  0.48916999999999994  0.60682  1.0000
  C   C154      1.0  0.20499999999999993  0.48327  0.64962  1.0000
  C   C155      1.0  0.24333999999999997  0.55495  0.71163  1.0000
  C   C156      1.0  0.15906  0.62113  0.66175  1.0000
  C   C157      1.0  0.20674999999999993  0.59117  0.74545  1.0000
  C   C158      1.0  0.31863  0.51966  0.7160199999999999  1.0000
  C   C159      1.0  0.18981  0.69971  0.66649  1.0000
  C   C160      1.0  0.08306  0.611  0.64499  1.0000
  C   C161      1.0  0.24437  0.59169  0.78279  1.0000
  C   C162      1.0  0.35628999999999994  0.52051  0.75334  1.0000
  C   C163      1.0  0.14586  0.7661700000000002  0.6547399999999998  1.0000
  C   C164      1.0  0.0386  0.67737  0.6339  1.0000
  C   C165      1.0  0.3197099999999999  0.55631  0.7873599999999997  1.0000
  C   C166      1.0  0.06924999999999998  0.75641  0.63829  1.0000
  C   C167      1.0  0.35991  0.5576200000000001  0.8265  1.0000
  C   C168      1.0  0.02167  0.82486  0.62651  1.0000
  N   N1        1.0  0.29624  0.05364  0.17386  1.0000
  N   N2        1.0  0.70376  0.94637  0.17386  1.0000
  N   N3        1.0  0.20399999999999993  0.55344  0.32621  1.0000
  N   N4        1.0  0.796  0.44657  0.32621  1.0000
  N   N5        1.0  0.70376  0.94637  0.8261399999999998  1.0000
  N   N6        1.0  0.29624  0.05364  0.8261399999999998  1.0000
  N   N7        1.0  0.796  0.44657  0.67379  1.0000
  N   N8        1.0  0.20399999999999993  0.55344  0.67379  1.0000
  O   O1        1.0  0.38476  0.64203  0.03901  1.0000
  O   O2        1.0  0.28985  0.70016  0.09344  1.0000
  O   O3        1.0  0.32169  0.58712  0.14259  1.0000
  O   O4        1.0  0.44913999999999993  0.69005  0.11503  1.0000
  O   O5        1.0  0.42407  0.53111  0.08754999999999998  1.0000
  O   O6        1.0  0.3093799999999999  0.77808  0.03721  1.0000
  O   O7        1.0  0.06892  0.03128  0.32891  1.0000
  O   O8        1.0  0.44936  0.39718  0.12725  1.0000
  O   O9        1.0  0.61524  0.35797  0.03901  1.0000
  O   O10       1.0  0.71015  0.29984  0.09344  1.0000
  O   O11       1.0  0.67831  0.41289  0.14259  1.0000
  O   O12       1.0  0.55087  0.30996  0.11503  1.0000
  O   O13       1.0  0.57593  0.46889  0.08754999999999998  1.0000
  O   O14       1.0  0.69062  0.22192  0.03721  1.0000
  O   O15       1.0  0.93108  0.96872  0.32891  1.0000
  O   O16       1.0  0.55064  0.60282  0.12725  1.0000
  O   O17       1.0  0.11511  0.14234  0.46076  1.0000
  O   O18       1.0  0.21018  0.19991  0.40616  1.0000
  O   O19       1.0  0.17859  0.08692  0.35742  1.0000
  O   O20       1.0  0.051349999999999986  0.18997000000000003  0.38405  1.0000
  O   O21       1.0  0.07626  0.031160000000000004  0.41219  1.0000
  O   O22       1.0  0.19071  0.27777  0.4626099999999999  1.0000
  O   O23       1.0  0.43124  0.53151  0.17153  1.0000
  O   O24       1.0  0.05079  0.89702  0.37355  1.0000
  O   O25       1.0  0.88489  0.85767  0.46076  1.0000
  O   O26       1.0  0.78982  0.8000900000000002  0.40616  1.0000
  O   O27       1.0  0.8214099999999998  0.91308  0.35742  1.0000
  O   O28       1.0  0.9486499999999999  0.81003  0.38405  1.0000
  O   O29       1.0  0.92374  0.96884  0.41219  1.0000
  O   O30       1.0  0.80929  0.72224  0.4626099999999999  1.0000
  O   O31       1.0  0.56876  0.46849  0.17153  1.0000
  O   O32       1.0  0.9492099999999999  0.10298  0.37355  1.0000
  O   O33       1.0  0.61524  0.35797  0.96099  1.0000
  O   O34       1.0  0.71015  0.29984  0.90656  1.0000
  O   O35       1.0  0.67831  0.41289  0.85741  1.0000
  O   O36       1.0  0.55087  0.30996  0.88497  1.0000
  O   O37       1.0  0.57593  0.46889  0.91245  1.0000
  O   O38       1.0  0.69062  0.22192  0.96279  1.0000
  O   O39       1.0  0.93108  0.96872  0.67109  1.0000
  O   O40       1.0  0.55064  0.60282  0.87274  1.0000
  O   O41       1.0  0.38476  0.64203  0.96099  1.0000
  O   O42       1.0  0.28985  0.70016  0.90656  1.0000
  O   O43       1.0  0.32169  0.58712  0.85741  1.0000
  O   O44       1.0  0.44913999999999993  0.69005  0.88497  1.0000
  O   O45       1.0  0.42407  0.53111  0.91245  1.0000
  O   O46       1.0  0.3093799999999999  0.77808  0.96279  1.0000
  O   O47       1.0  0.06892  0.03128  0.67109  1.0000
  O   O48       1.0  0.44936  0.39718  0.87274  1.0000
  O   O49       1.0  0.88489  0.85767  0.53924  1.0000
  O   O50       1.0  0.78982  0.8000900000000002  0.59384  1.0000
  O   O51       1.0  0.8214099999999998  0.91308  0.64258  1.0000
  O   O52       1.0  0.9486499999999999  0.81003  0.61595  1.0000
  O   O53       1.0  0.92374  0.96884  0.58781  1.0000
  O   O54       1.0  0.80929  0.72224  0.53739  1.0000
  O   O55       1.0  0.56876  0.46849  0.82846  1.0000
  O   O56       1.0  0.9492099999999999  0.10298  0.62645  1.0000
  O   O57       1.0  0.11511  0.14234  0.53924  1.0000
  O   O58       1.0  0.21018  0.19991  0.59384  1.0000
  O   O59       1.0  0.17859  0.08692  0.64258  1.0000
  O   O60       1.0  0.051349999999999986  0.18997000000000003  0.61595  1.0000
  O   O61       1.0  0.07626  0.031160000000000004  0.58781  1.0000
  O   O62       1.0  0.19071  0.27777  0.53739  1.0000
  O   O63       1.0  0.43124  0.53151  0.82846  1.0000
  O   O64       1.0  0.05079  0.89702  0.62645  1.0000
