data_image0
_chemical_formula_structural       Ni24H108C72S24O96
_chemical_formula_sum              "Ni24 H108 C72 S24 O96"
_cell_length_a       18.33483
_cell_length_b       18.33466
_cell_length_c       18.33477
_cell_angle_alpha    94.89704
_cell_angle_beta     94.89598
_cell_angle_gamma    94.89692

_space_group_name_H-M_alt    "P 1"
_space_group_IT_number       1

loop_
  _space_group_symop_operation_xyz
  'x, y, z'

loop_
  _atom_site_type_symbol
  _atom_site_label
  _atom_site_symmetry_multiplicity
  _atom_site_fract_x
  _atom_site_fract_y
  _atom_site_fract_z
  _atom_site_occupancy
  Ni  Ni1       1.0  0.5835299999999999  0.25615999999999994  0.77536  1.0000
  Ni  Ni2       1.0  0.72076  0.41881  0.20588  1.0000
  Ni  Ni3       1.0  0.45841  0.36843999999999993  0.75865  1.0000
  Ni  Ni4       1.0  0.70647  0.18591  0.70743  1.0000
  Ni  Ni5       1.0  0.25615  0.77536  0.5835400000000001  1.0000
  Ni  Ni6       1.0  0.41881  0.20586999999999994  0.72075  1.0000
  Ni  Ni7       1.0  0.36844  0.7586599999999999  0.45843000000000006  1.0000
  Ni  Ni8       1.0  0.1859  0.70743  0.70648  1.0000
  Ni  Ni9       1.0  0.77536  0.58353  0.25616000000000005  1.0000
  Ni  Ni10      1.0  0.20588000000000006  0.72076  0.41882  1.0000
  Ni  Ni11      1.0  0.75865  0.45842  0.36844  1.0000
  Ni  Ni12      1.0  0.70743  0.70648  0.18591  1.0000
  Ni  Ni13      1.0  0.41645999999999994  0.74384  0.22464  1.0000
  Ni  Ni14      1.0  0.27924  0.58119  0.7941200000000002  1.0000
  Ni  Ni15      1.0  0.54158  0.63155  0.24135  1.0000
  Ni  Ni16      1.0  0.29352  0.81408  0.29257  1.0000
  Ni  Ni17      1.0  0.74384  0.22462999999999997  0.4164600000000001  1.0000
  Ni  Ni18      1.0  0.58118  0.7941299999999999  0.27924  1.0000
  Ni  Ni19      1.0  0.63155  0.24133999999999997  0.54157  1.0000
  Ni  Ni20      1.0  0.81409  0.29256  0.29352  1.0000
  Ni  Ni21      1.0  0.22463  0.41646000000000005  0.74384  1.0000
  Ni  Ni22      1.0  0.7941100000000001  0.27924  0.58118  1.0000
  Ni  Ni23      1.0  0.24135  0.54158  0.6315500000000001  1.0000
  Ni  Ni24      1.0  0.29256000000000004  0.29352  0.8140900000000001  1.0000
  H   H1        1.0  0.6970600000000001  0.28009  0.9974100000000001  1.0000
  H   H2        1.0  0.88551  0.19978999999999997  0.10789000000000001  1.0000
  H   H3        1.0  0.90021  0.11645  0.99535  1.0000
  H   H4        1.0  0.80927  0.11476999999999998  0.88461  1.0000
  H   H5        1.0  0.51601  0.28931999999999997  0.65634  1.0000
  H   H6        1.0  0.84427  0.42697999999999997  0.27528  1.0000
  H   H7        1.0  0.52926  0.03867000000000001  0.7548400000000001  1.0000
  H   H8        1.0  0.49151000000000006  0.99301  0.82822  1.0000
  H   H9        1.0  0.43321  0.04338  0.76896  1.0000
  H   H10       1.0  0.4531299999999999  0.16221  0.95837  1.0000
  H   H11       1.0  0.3901  0.11235999999999999  0.88667  1.0000
  H   H12       1.0  0.44858000000000003  0.06368000000000001  0.9462500000000001  1.0000
  H   H13       1.0  0.6122800000000003  0.50646  0.84749  1.0000
  H   H14       1.0  0.5276900000000001  0.49181  0.8903600000000002  1.0000
  H   H15       1.0  0.61263  0.51834  0.94721  1.0000
  H   H16       1.0  0.5629700000000001  0.31203999999999993  0.98064  1.0000
  H   H17       1.0  0.59079  0.40141  0.02737  1.0000
  H   H18       1.0  0.5026700000000001  0.38541999999999993  0.9719700000000001  1.0000
  H   H19       1.0  0.28009  0.9974099999999999  0.69707  1.0000
  H   H20       1.0  0.19979  0.10789000000000001  0.8855100000000001  1.0000
  H   H21       1.0  0.11645  0.99535  0.9002199999999999  1.0000
  H   H22       1.0  0.11477  0.8846  0.80927  1.0000
  H   H23       1.0  0.28932  0.65634  0.51602  1.0000
  H   H24       1.0  0.42698000000000014  0.27528  0.84428  1.0000
  H   H25       1.0  0.038669999999999996  0.75484  0.52926  1.0000
  H   H26       1.0  0.99302  0.8282199999999997  0.49152000000000007  1.0000
  H   H27       1.0  0.04337999999999999  0.7689599999999999  0.43321  1.0000
  H   H28       1.0  0.16221  0.95837  0.45314  1.0000
  H   H29       1.0  0.11236  0.8866699999999998  0.3901  1.0000
  H   H30       1.0  0.06368  0.9462399999999999  0.44859  1.0000
  H   H31       1.0  0.5064600000000002  0.84749  0.6122900000000002  1.0000
  H   H32       1.0  0.49181  0.8903600000000002  0.5277  1.0000
  H   H33       1.0  0.51834  0.94721  0.61263  1.0000
  H   H34       1.0  0.31203  0.98063  0.5629700000000001  1.0000
  H   H35       1.0  0.40141  0.027360000000000006  0.59079  1.0000
  H   H36       1.0  0.38541000000000003  0.9719599999999999  0.50267  1.0000
  H   H37       1.0  0.9974100000000001  0.6970599999999999  0.2801  1.0000
  H   H38       1.0  0.10789  0.88551  0.19980000000000003  1.0000
  H   H39       1.0  0.99535  0.9002199999999999  0.11646  1.0000
  H   H40       1.0  0.8845999999999999  0.80927  0.11478  1.0000
  H   H41       1.0  0.65634  0.51601  0.28932  1.0000
  H   H42       1.0  0.27528  0.84428  0.42700000000000005  1.0000
  H   H43       1.0  0.75484  0.52926  0.038680000000000006  1.0000
  H   H44       1.0  0.82822  0.49150999999999995  0.99301  1.0000
  H   H45       1.0  0.7689600000000001  0.4332  0.04338  1.0000
  H   H46       1.0  0.95837  0.45313000000000003  0.16221  1.0000
  H   H47       1.0  0.8866700000000001  0.39009  0.11235000000000002  1.0000
  H   H48       1.0  0.94624  0.44858999999999993  0.06368  1.0000
  H   H49       1.0  0.84749  0.61228  0.50646  1.0000
  H   H50       1.0  0.89035  0.5277  0.4918100000000001  1.0000
  H   H51       1.0  0.9472100000000001  0.61264  0.51834  1.0000
  H   H52       1.0  0.9806300000000001  0.56297  0.31204  1.0000
  H   H53       1.0  0.02736  0.59079  0.40141  1.0000
  H   H54       1.0  0.97196  0.50267  0.38542000000000004  1.0000
  H   H55       1.0  0.30293  0.71991  0.00259  1.0000
  H   H56       1.0  0.11448000000000001  0.8002000000000001  0.89211  1.0000
  H   H57       1.0  0.09977999999999998  0.8835499999999998  0.00465  1.0000
  H   H58       1.0  0.19072  0.8852299999999999  0.11539  1.0000
  H   H59       1.0  0.4839800000000001  0.71068  0.34366  1.0000
  H   H60       1.0  0.15572  0.57301  0.72472  1.0000
  H   H61       1.0  0.47074000000000005  0.96132  0.24516  1.0000
  H   H62       1.0  0.50848  0.00699  0.17178  1.0000
  H   H63       1.0  0.56679  0.9566199999999999  0.23104  1.0000
  H   H64       1.0  0.54687  0.83779  0.041630000000000014  1.0000
  H   H65       1.0  0.6098999999999999  0.8876399999999999  0.11333000000000001  1.0000
  H   H66       1.0  0.55141  0.9363099999999999  0.05375  1.0000
  H   H67       1.0  0.38771  0.49354  0.15251  1.0000
  H   H68       1.0  0.4723  0.5081899999999999  0.10964  1.0000
  H   H69       1.0  0.38736  0.48165  0.05279  1.0000
  H   H70       1.0  0.43703  0.6879599999999999  0.01936  1.0000
  H   H71       1.0  0.4092000000000001  0.5985899999999998  0.97263  1.0000
  H   H72       1.0  0.49732000000000004  0.61458  0.02803  1.0000
  H   H73       1.0  0.7199  0.0025899999999999955  0.30293  1.0000
  H   H74       1.0  0.8002  0.8921099999999998  0.11448000000000001  1.0000
  H   H75       1.0  0.8835400000000001  0.004649999999999998  0.09978  1.0000
  H   H76       1.0  0.88522  0.11539  0.19073000000000004  1.0000
  H   H77       1.0  0.71068  0.34365  0.48398  1.0000
  H   H78       1.0  0.57301  0.72472  0.15572  1.0000
  H   H79       1.0  0.96132  0.24516  0.47074000000000005  1.0000
  H   H80       1.0  0.0069800000000000036  0.17178  0.50848  1.0000
  H   H81       1.0  0.95662  0.23104000000000002  0.56679  1.0000
  H   H82       1.0  0.8377900000000001  0.041630000000000014  0.5468600000000001  1.0000
  H   H83       1.0  0.88764  0.11332999999999999  0.6099  1.0000
  H   H84       1.0  0.9363100000000001  0.05376  0.55141  1.0000
  H   H85       1.0  0.49354  0.15251000000000003  0.38771  1.0000
  H   H86       1.0  0.50819  0.10964  0.4723  1.0000
  H   H87       1.0  0.48166000000000003  0.05279  0.38736  1.0000
  H   H88       1.0  0.68796  0.019369999999999995  0.43703000000000003  1.0000
  H   H89       1.0  0.59859  0.9726300000000001  0.40921  1.0000
  H   H90       1.0  0.61458  0.028040000000000006  0.49732000000000004  1.0000
  H   H91       1.0  0.0025900000000000202  0.30293  0.7199  1.0000
  H   H92       1.0  0.89211  0.11447999999999998  0.8002000000000002  1.0000
  H   H93       1.0  0.004649999999999994  0.09978  0.88354  1.0000
  H   H94       1.0  0.11539  0.19073  0.88522  1.0000
  H   H95       1.0  0.3436500000000001  0.4839800000000001  0.71068  1.0000
  H   H96       1.0  0.72471  0.15571  0.5730000000000001  1.0000
  H   H97       1.0  0.24515000000000003  0.47073999999999994  0.96132  1.0000
  H   H98       1.0  0.17177  0.50848  0.00698  1.0000
  H   H99       1.0  0.23103  0.56679  0.9566200000000001  1.0000
  H   H100      1.0  0.04163000000000004  0.5468700000000001  0.8377900000000001  1.0000
  H   H101      1.0  0.11333  0.6099  0.88764  1.0000
  H   H102      1.0  0.05375000000000002  0.55141  0.9363200000000002  1.0000
  H   H103      1.0  0.15251  0.38771  0.49354  1.0000
  H   H104      1.0  0.10964  0.4723  0.50819  1.0000
  H   H105      1.0  0.05279  0.38736  0.48166  1.0000
  H   H106      1.0  0.01936000000000002  0.43703000000000003  0.6879600000000002  1.0000
  H   H107      1.0  0.97263  0.4092  0.59859  1.0000
  H   H108      1.0  0.02802999999999999  0.49731999999999993  0.61458  1.0000
  C   C1        1.0  0.69757  0.19615  0.8657  1.0000
  C   C2        1.0  0.7833800000000001  0.29252  0.12834  1.0000
  C   C3        1.0  0.7476900000000001  0.19622  0.9344800000000001  1.0000
  C   C4        1.0  0.7408800000000001  0.24375000000000005  0.9970800000000001  1.0000
  C   C5        1.0  0.7906000000000001  0.24438  0.0595  1.0000
  C   C6        1.0  0.8477700000000002  0.19805  0.05865  1.0000
  C   C7        1.0  0.85523  0.15146  0.9961100000000002  1.0000
  C   C8        1.0  0.80506  0.15023  0.93435  1.0000
  C   C9        1.0  0.48869000000000007  0.04024999999999999  0.79543  1.0000
  C   C10       1.0  0.44389000000000006  0.11378000000000002  0.9180800000000001  1.0000
  C   C11       1.0  0.5872  0.48795  0.8957300000000001  1.0000
  C   C12       1.0  0.55975  0.37127  0.9782400000000001  1.0000
  C   C13       1.0  0.19615000000000002  0.8657  0.69758  1.0000
  C   C14       1.0  0.29252  0.12834  0.78337  1.0000
  C   C15       1.0  0.19622  0.9344799999999999  0.74769  1.0000
  C   C16       1.0  0.24375  0.9970799999999999  0.74088  1.0000
  C   C17       1.0  0.24438  0.0595  0.7906  1.0000
  C   C18       1.0  0.19805999999999999  0.05865  0.84777  1.0000
  C   C19       1.0  0.15146  0.99611  0.85523  1.0000
  C   C20       1.0  0.15022999999999997  0.9343499999999999  0.8050700000000002  1.0000
  C   C21       1.0  0.040260000000000004  0.79543  0.4887  1.0000
  C   C22       1.0  0.11378  0.91808  0.44389  1.0000
  C   C23       1.0  0.48795  0.8957299999999999  0.5872  1.0000
  C   C24       1.0  0.37127  0.97823  0.55975  1.0000
  C   C25       1.0  0.8657000000000002  0.69758  0.19615000000000005  1.0000
  C   C26       1.0  0.12834  0.78337  0.2925200000000001  1.0000
  C   C27       1.0  0.9344800000000001  0.74769  0.19622  1.0000
  C   C28       1.0  0.9970800000000001  0.74088  0.24375  1.0000
  C   C29       1.0  0.059500000000000004  0.7906  0.24438  1.0000
  C   C30       1.0  0.05865000000000001  0.84777  0.19806  1.0000
  C   C31       1.0  0.9961100000000002  0.85523  0.15147  1.0000
  C   C32       1.0  0.93435  0.80507  0.15023  1.0000
  C   C33       1.0  0.79543  0.48869  0.04026  1.0000
  C   C34       1.0  0.91808  0.44389  0.11377999999999999  1.0000
  C   C35       1.0  0.8957299999999996  0.5872  0.48795  1.0000
  C   C36       1.0  0.9782300000000002  0.55975  0.37127  1.0000
  C   C37       1.0  0.30242  0.80385  0.1343  1.0000
  C   C38       1.0  0.21662  0.70748  0.87166  1.0000
  C   C39       1.0  0.2523  0.80378  0.06552  1.0000
  C   C40       1.0  0.2591200000000001  0.7562499999999999  0.00292  1.0000
  C   C41       1.0  0.20939000000000005  0.75562  0.9405000000000001  1.0000
  C   C42       1.0  0.15222  0.8019399999999999  0.94135  1.0000
  C   C43       1.0  0.14477000000000004  0.84854  0.00389  1.0000
  C   C44       1.0  0.19493  0.84977  0.06565  1.0000
  C   C45       1.0  0.5113  0.9597399999999999  0.20456000000000002  1.0000
  C   C46       1.0  0.5561  0.88622  0.08192  1.0000
  C   C47       1.0  0.41280000000000006  0.51205  0.10427  1.0000
  C   C48       1.0  0.44025  0.62872  0.02176  1.0000
  C   C49       1.0  0.80385  0.13429  0.30242  1.0000
  C   C50       1.0  0.70747  0.87166  0.21663  1.0000
  C   C51       1.0  0.8037700000000002  0.06551  0.2523  1.0000
  C   C52       1.0  0.75624  0.0029199999999999977  0.25911  1.0000
  C   C53       1.0  0.75562  0.9404900000000002  0.2094  1.0000
  C   C54       1.0  0.8019400000000001  0.94134  0.15223  1.0000
  C   C55       1.0  0.84853  0.003879999999999999  0.14476  1.0000
  C   C56       1.0  0.84977  0.06565  0.19493  1.0000
  C   C57       1.0  0.95974  0.20457  0.5113000000000001  1.0000
  C   C58       1.0  0.88622  0.08192  0.5561  1.0000
  C   C59       1.0  0.5120500000000001  0.10427  0.4128  1.0000
  C   C60       1.0  0.62873  0.021770000000000008  0.44025000000000003  1.0000
  C   C61       1.0  0.13429  0.30241999999999997  0.8038500000000002  1.0000
  C   C62       1.0  0.8716499999999999  0.21662  0.70748  1.0000
  C   C63       1.0  0.06551  0.2523  0.80377  1.0000
  C   C64       1.0  0.0029200000000000085  0.25912  0.7562400000000001  1.0000
  C   C65       1.0  0.9404900000000002  0.20939999999999998  0.75562  1.0000
  C   C66       1.0  0.94134  0.15223  0.8019400000000001  1.0000
  C   C67       1.0  0.0038800000000000136  0.14476000000000003  0.8485300000000001  1.0000
  C   C68       1.0  0.06564  0.19493  0.84977  1.0000
  C   C69       1.0  0.20456  0.5112999999999999  0.95974  1.0000
  C   C70       1.0  0.08192  0.55611  0.88622  1.0000
  C   C71       1.0  0.10427  0.41279  0.51205  1.0000
  C   C72       1.0  0.02175999999999999  0.4402499999999999  0.62873  1.0000
  S   S1        1.0  0.68118  0.35323  0.67776  1.0000
  S   S2        1.0  0.5394700000000001  0.13277  0.63231  1.0000
  S   S3        1.0  0.51603  0.12164000000000001  0.8571500000000001  1.0000
  S   S4        1.0  0.60478  0.39367  0.89864  1.0000
  S   S5        1.0  0.35322  0.67776  0.6811800000000001  1.0000
  S   S6        1.0  0.1328  0.63232  0.53947  1.0000
  S   S7        1.0  0.12164000000000001  0.8571499999999999  0.51603  1.0000
  S   S8        1.0  0.3936700000000001  0.8986299999999999  0.60478  1.0000
  S   S9        1.0  0.67776  0.6811799999999999  0.35322  1.0000
  S   S10       1.0  0.63233  0.53947  0.13279000000000002  1.0000
  S   S11       1.0  0.85715  0.51602  0.12165  1.0000
  S   S12       1.0  0.89863  0.60478  0.3936700000000001  1.0000
  S   S13       1.0  0.31882  0.6467699999999998  0.32224  1.0000
  S   S14       1.0  0.46052  0.86723  0.3676900000000001  1.0000
  S   S15       1.0  0.48397000000000007  0.87835  0.14284  1.0000
  S   S16       1.0  0.39522  0.60633  0.10136  1.0000
  S   S17       1.0  0.64678  0.32223  0.31882  1.0000
  S   S18       1.0  0.8672000000000002  0.36768  0.46053  1.0000
  S   S19       1.0  0.87835  0.14284  0.48397000000000007  1.0000
  S   S20       1.0  0.6063300000000001  0.10136  0.39522  1.0000
  S   S21       1.0  0.3222400000000001  0.31882  0.64678  1.0000
  S   S22       1.0  0.36766  0.46052999999999994  0.86721  1.0000
  S   S23       1.0  0.14284000000000002  0.48397  0.87835  1.0000
  S   S24       1.0  0.10136000000000003  0.39522  0.60633  1.0000
  O   O1        1.0  0.70909  0.1528  0.81067  1.0000
  O   O2        1.0  0.64706  0.24011999999999997  0.86603  1.0000
  O   O3        1.0  0.74176  0.34455  0.1239  1.0000
  O   O4        1.0  0.82189  0.27699999999999997  0.18536  1.0000
  O   O5        1.0  0.50193  0.28406  0.7060900000000002  1.0000
  O   O6        1.0  0.8004500000000002  0.39843  0.28751000000000004  1.0000
  O   O7        1.0  0.7564500000000002  0.35685  0.65114  1.0000
  O   O8        1.0  0.62208  0.32771  0.61518  1.0000
  O   O9        1.0  0.67988  0.2917600000000001  0.73348  1.0000
  O   O10       1.0  0.66527  0.42149000000000003  0.7170500000000001  1.0000
  O   O11       1.0  0.59246  0.15996  0.70192  1.0000
  O   O12       1.0  0.54197  0.18975  0.5773  1.0000
  O   O13       1.0  0.56121  0.06167999999999999  0.60253  1.0000
  O   O14       1.0  0.4626  0.12477000000000002  0.6552400000000002  1.0000
  O   O15       1.0  0.49668999999999996  0.18890000000000004  0.8149800000000003  1.0000
  O   O16       1.0  0.5531299999999999  0.35226  0.83224  1.0000
  O   O17       1.0  0.1528  0.81067  0.70909  1.0000
  O   O18       1.0  0.24010999999999993  0.86604  0.64706  1.0000
  O   O19       1.0  0.3445600000000001  0.1239  0.7417600000000001  1.0000
  O   O20       1.0  0.27699  0.18536  0.8218900000000001  1.0000
  O   O21       1.0  0.28406  0.7061  0.50194  1.0000
  O   O22       1.0  0.39844  0.28751  0.80045  1.0000
  O   O23       1.0  0.35683999999999994  0.6511399999999999  0.7564500000000001  1.0000
  O   O24       1.0  0.3277  0.61519  0.62208  1.0000
  O   O25       1.0  0.29175  0.73349  0.67988  1.0000
  O   O26       1.0  0.4214800000000001  0.7170599999999999  0.6652800000000001  1.0000
  O   O27       1.0  0.15997  0.70192  0.59247  1.0000
  O   O28       1.0  0.18975000000000003  0.57728  0.54199  1.0000
  O   O29       1.0  0.061680000000000006  0.60258  0.56118  1.0000
  O   O30       1.0  0.12487  0.6552299999999999  0.46260000000000007  1.0000
  O   O31       1.0  0.1889  0.81499  0.49670000000000003  1.0000
  O   O32       1.0  0.3522600000000001  0.83223  0.5531300000000002  1.0000
  O   O33       1.0  0.81068  0.7090899999999999  0.1528  1.0000
  O   O34       1.0  0.8660400000000003  0.64706  0.24012  1.0000
  O   O35       1.0  0.1239  0.74177  0.34456  1.0000
  O   O36       1.0  0.18535999999999997  0.82189  0.277  1.0000
  O   O37       1.0  0.7060900000000001  0.50193  0.28406  1.0000
  O   O38       1.0  0.28751  0.80045  0.39845  1.0000
  O   O39       1.0  0.6511400000000002  0.75644  0.35685000000000006  1.0000
  O   O40       1.0  0.61519  0.62207  0.3277  1.0000
  O   O41       1.0  0.73349  0.67988  0.2917600000000001  1.0000
  O   O42       1.0  0.71705  0.66527  0.4214800000000001  1.0000
  O   O43       1.0  0.7019300000000003  0.59247  0.15998  1.0000
  O   O44       1.0  0.5772800000000001  0.5419899999999999  0.18973  1.0000
  O   O45       1.0  0.60261  0.56119  0.06167  1.0000
  O   O46       1.0  0.65524  0.46259  0.12486  1.0000
  O   O47       1.0  0.81499  0.4966900000000001  0.1889  1.0000
  O   O48       1.0  0.8322400000000002  0.55313  0.35226  1.0000
  O   O49       1.0  0.29090000000000005  0.8472  0.18932  1.0000
  O   O50       1.0  0.35293  0.75988  0.13396  1.0000
  O   O51       1.0  0.25823  0.65544  0.8761  1.0000
  O   O52       1.0  0.17810000000000004  0.723  0.81464  1.0000
  O   O53       1.0  0.49807000000000007  0.71594  0.29391  1.0000
  O   O54       1.0  0.19955000000000006  0.60156  0.7124900000000001  1.0000
  O   O55       1.0  0.24355000000000002  0.64315  0.34886  1.0000
  O   O56       1.0  0.37791  0.67229  0.38481000000000004  1.0000
  O   O57       1.0  0.32012  0.70824  0.26652  1.0000
  O   O58       1.0  0.33472  0.57851  0.2829500000000001  1.0000
  O   O59       1.0  0.40753000000000006  0.84004  0.29808  1.0000
  O   O60       1.0  0.45802  0.81025  0.4227  1.0000
  O   O61       1.0  0.43878000000000006  0.9383199999999999  0.39746  1.0000
  O   O62       1.0  0.53739  0.87523  0.34476  1.0000
  O   O63       1.0  0.5033  0.8111  0.18501000000000004  1.0000
  O   O64       1.0  0.44687000000000004  0.64773  0.16776  1.0000
  O   O65       1.0  0.8472  0.18932  0.29091  1.0000
  O   O66       1.0  0.7598800000000001  0.13396  0.35294  1.0000
  O   O67       1.0  0.65544  0.8761000000000001  0.25824  1.0000
  O   O68       1.0  0.723  0.81464  0.17811  1.0000
  O   O69       1.0  0.71593  0.29389999999999994  0.49806  1.0000
  O   O70       1.0  0.60156  0.71249  0.19955  1.0000
  O   O71       1.0  0.6431500000000002  0.34885  0.24355000000000002  1.0000
  O   O72       1.0  0.67229  0.3848  0.37791000000000013  1.0000
  O   O73       1.0  0.70824  0.2665  0.32011  1.0000
  O   O74       1.0  0.57851  0.28294  0.33472  1.0000
  O   O75       1.0  0.84002  0.29808  0.40753  1.0000
  O   O76       1.0  0.81025  0.42272  0.45801  1.0000
  O   O77       1.0  0.9383100000000001  0.39741  0.43881  1.0000
  O   O78       1.0  0.8751300000000001  0.34476  0.5374  1.0000
  O   O79       1.0  0.81109  0.18501000000000004  0.5033000000000001  1.0000
  O   O80       1.0  0.64773  0.16776  0.44686999999999993  1.0000
  O   O81       1.0  0.18932  0.29091000000000006  0.8472000000000002  1.0000
  O   O82       1.0  0.13396000000000002  0.35294  0.7598800000000002  1.0000
  O   O83       1.0  0.87609  0.25823000000000007  0.6554400000000002  1.0000
  O   O84       1.0  0.8146300000000002  0.17811  0.723  1.0000
  O   O85       1.0  0.29390000000000005  0.49806  0.7159300000000001  1.0000
  O   O86       1.0  0.71249  0.19954000000000002  0.6015500000000001  1.0000
  O   O87       1.0  0.34886  0.24356  0.64315  1.0000
  O   O88       1.0  0.38480000000000014  0.37792  0.6723  1.0000
  O   O89       1.0  0.26651000000000014  0.32012  0.70824  1.0000
  O   O90       1.0  0.28294000000000014  0.3347300000000001  0.57851  1.0000
  O   O91       1.0  0.29807  0.40753  0.8400200000000001  1.0000
  O   O92       1.0  0.42271  0.45801  0.81027  1.0000
  O   O93       1.0  0.39738  0.4388  0.93833  1.0000
  O   O94       1.0  0.34476  0.5374  0.87514  1.0000
  O   O95       1.0  0.18501  0.50331  0.8111  1.0000
  O   O96       1.0  0.16776  0.44687  0.64773  1.0000
