data_image0
_chemical_formula_structural       Ag16H128C88S8N40O24
_chemical_formula_sum              "Ag16 H128 C88 S8 N40 O24"
_cell_length_a       11.64372
_cell_length_b       11.938170000000001
_cell_length_c       30.13783
_cell_angle_alpha    89.29224
_cell_angle_beta     90.59899
_cell_angle_gamma    90.35955999999999

_space_group_name_H-M_alt    "P 1"
_space_group_IT_number       1

loop_
  _space_group_symop_operation_xyz
  'x, y, z'

loop_
  _atom_site_type_symbol
  _atom_site_label
  _atom_site_symmetry_multiplicity
  _atom_site_fract_x
  _atom_site_fract_y
  _atom_site_fract_z
  _atom_site_occupancy
  Ag  Ag1       1.0  0.6598  0.63859  0.75076  1.0000
  Ag  Ag2       1.0  0.85832  0.42209  0.92682  1.0000
  Ag  Ag3       1.0  0.36077999999999993  0.83411  0.27771000000000007  1.0000
  Ag  Ag4       1.0  0.14141999999999996  0.08229999999999997  0.42442  1.0000
  Ag  Ag5       1.0  0.16387  0.3680599999999999  0.75824  1.0000
  Ag  Ag6       1.0  0.36152  0.57644  0.57459  1.0000
  Ag  Ag7       1.0  0.85235  0.15268  0.23452  1.0000
  Ag  Ag8       1.0  0.63983  0.92057  0.07388  1.0000
  Ag  Ag9       1.0  0.34019  0.3614  0.24924  1.0000
  Ag  Ag10      1.0  0.14168  0.5779  0.07318  1.0000
  Ag  Ag11      1.0  0.63921  0.16588  0.72229  1.0000
  Ag  Ag12      1.0  0.85857  0.9176899999999999  0.57558  1.0000
  Ag  Ag13      1.0  0.83612  0.63193  0.24176000000000006  1.0000
  Ag  Ag14      1.0  0.63847  0.4235599999999999  0.42542000000000013  1.0000
  Ag  Ag15      1.0  0.14764  0.84731  0.7654900000000002  1.0000
  Ag  Ag16      1.0  0.36016999999999993  0.07942  0.92613  1.0000
  H   H1        1.0  0.68848  0.09755  0.003160000000000001  1.0000
  H   H2        1.0  0.38316999999999996  0.28462  0.9675100000000002  1.0000
  H   H3        1.0  0.28485  0.18853999999999999  0.031230000000000008  1.0000
  H   H4        1.0  0.39364  0.05323  0.07881  1.0000
  H   H5        1.0  0.51552  0.52683  0.6636300000000003  1.0000
  H   H6        1.0  0.51606  0.67647  0.6580400000000001  1.0000
  H   H7        1.0  0.3967199999999999  0.7205699999999999  0.7690500000000002  1.0000
  H   H8        1.0  0.44779  0.7866099999999998  0.7193500000000003  1.0000
  H   H9        1.0  0.3998799999999999  0.516  0.7746600000000001  1.0000
  H   H10       1.0  0.45010999999999995  0.437  0.7286300000000001  1.0000
  H   H11       1.0  0.33812  0.77655  0.65176  1.0000
  H   H12       1.0  0.20487  0.70294  0.65094  1.0000
  H   H13       1.0  0.21747999999999998  0.61909  0.7674200000000002  1.0000
  H   H14       1.0  0.13824000000000003  0.6091899999999999  0.7168400000000003  1.0000
  H   H15       1.0  0.33728  0.42563999999999996  0.6616000000000001  1.0000
  H   H16       1.0  0.20418  0.49957  0.65706  1.0000
  H   H17       1.0  0.3041499999999999  0.39736  0.5049  1.0000
  H   H18       1.0  0.6136  0.21701  0.47274000000000005  1.0000
  H   H19       1.0  0.71103  0.31759  0.5355200000000002  1.0000
  H   H20       1.0  0.6003599999999999  0.4523099999999999  0.58025  1.0000
  H   H21       1.0  0.48547  0.97012  0.16273000000000004  1.0000
  H   H22       1.0  0.48201999999999995  0.8210299999999999  0.15889000000000006  1.0000
  H   H23       1.0  0.6011  0.7750799999999998  0.26967  1.0000
  H   H24       1.0  0.55357  0.71171  0.21943  1.0000
  H   H25       1.0  0.60368  0.98072  0.2736500000000001  1.0000
  H   H26       1.0  0.55199  0.05938  0.22678  1.0000
  H   H27       1.0  0.66592  0.7195699999999999  0.15321  1.0000
  H   H28       1.0  0.7968299999999999  0.7969499999999999  0.1525  1.0000
  H   H29       1.0  0.7813199999999999  0.88331  0.26868  1.0000
  H   H30       1.0  0.86447  0.89112  0.21911000000000005  1.0000
  H   H31       1.0  0.6617  0.0703  0.15976  1.0000
  H   H32       1.0  0.7949799999999999  0.9986399999999999  0.15622  1.0000
  H   H33       1.0  0.1984  0.9009899999999998  0.4925400000000001  1.0000
  H   H34       1.0  0.8937699999999998  0.71289  0.52743  1.0000
  H   H35       1.0  0.7905099999999999  0.8141599999999999  0.46472  1.0000
  H   H36       1.0  0.89708  0.95915  0.4207200000000001  1.0000
  H   H37       1.0  0.021260000000000005  0.4772999999999999  0.8381100000000002  1.0000
  H   H38       1.0  0.02099000000000001  0.328  0.8445400000000002  1.0000
  H   H39       1.0  0.89851  0.27888  0.73279  1.0000
  H   H40       1.0  0.9493499999999998  0.21537  0.7835100000000003  1.0000
  H   H41       1.0  0.9026499999999998  0.48597  0.72666  1.0000
  H   H42       1.0  0.9563799999999998  0.56503  0.7729000000000003  1.0000
  H   H43       1.0  0.84029  0.22689  0.8497  1.0000
  H   H44       1.0  0.70865  0.30156  0.84877  1.0000
  H   H45       1.0  0.7209599999999999  0.38289999999999996  0.7329400000000003  1.0000
  H   H46       1.0  0.64268  0.39293  0.78301  1.0000
  H   H47       1.0  0.84521  0.57766  0.83938  1.0000
  H   H48       1.0  0.7114  0.50449  0.84323  1.0000
  H   H49       1.0  0.80454  0.59796  0.99589  1.0000
  H   H50       1.0  0.11296999999999997  0.77709  0.03434  1.0000
  H   H51       1.0  0.21153  0.6856899999999998  0.96948  1.0000
  H   H52       1.0  0.09977999999999998  0.55746  0.92034  1.0000
  H   H53       1.0  0.98447  0.029599999999999998  0.33738  1.0000
  H   H54       1.0  0.9822699999999998  0.17834  0.3414100000000001  1.0000
  H   H55       1.0  0.10269999999999999  0.22303  0.23051  1.0000
  H   H56       1.0  0.05564999999999999  0.28859  0.27988  1.0000
  H   H57       1.0  0.1029  0.018349999999999998  0.22731000000000007  1.0000
  H   H58       1.0  0.05121  0.93968  0.27405  1.0000
  H   H59       1.0  0.16609  0.28103  0.3470400000000001  1.0000
  H   H60       1.0  0.29656  0.20446  0.34901  1.0000
  H   H61       1.0  0.28397  0.11662  0.23346  1.0000
  H   H62       1.0  0.36369999999999997  0.10945999999999997  0.2845000000000001  1.0000
  H   H63       1.0  0.16073  0.92961  0.34136  1.0000
  H   H64       1.0  0.29377  0.002229999999999999  0.3458800000000001  1.0000
  H   H65       1.0  0.31151  0.9024399999999999  0.99684  1.0000
  H   H66       1.0  0.61682  0.71537  0.0325  1.0000
  H   H67       1.0  0.71515  0.81145  0.96878  1.0000
  H   H68       1.0  0.60635  0.94676  0.9212000000000002  1.0000
  H   H69       1.0  0.48446999999999996  0.47315999999999997  0.33638  1.0000
  H   H70       1.0  0.48393  0.32352  0.34196  1.0000
  H   H71       1.0  0.60327  0.27942  0.23096  1.0000
  H   H72       1.0  0.55221  0.21338  0.2806500000000001  1.0000
  H   H73       1.0  0.60012  0.4839899999999999  0.22535  1.0000
  H   H74       1.0  0.54989  0.5629999999999998  0.27137  1.0000
  H   H75       1.0  0.66188  0.22344  0.3482400000000001  1.0000
  H   H76       1.0  0.79512  0.29705  0.34906000000000004  1.0000
  H   H77       1.0  0.7825099999999998  0.38089999999999996  0.23258  1.0000
  H   H78       1.0  0.8617499999999998  0.3908  0.28316000000000013  1.0000
  H   H79       1.0  0.66271  0.5743499999999999  0.3384  1.0000
  H   H80       1.0  0.7958099999999999  0.50042  0.34295  1.0000
  H   H81       1.0  0.69584  0.6026299999999999  0.4951000000000001  1.0000
  H   H82       1.0  0.38639  0.7829799999999999  0.52727  1.0000
  H   H83       1.0  0.28896  0.6823999999999999  0.4644800000000001  1.0000
  H   H84       1.0  0.39962999999999993  0.5476799999999998  0.41975  1.0000
  H   H85       1.0  0.51452  0.029869999999999997  0.83727  1.0000
  H   H86       1.0  0.51797  0.17896  0.84112  1.0000
  H   H87       1.0  0.39889  0.22491  0.73034  1.0000
  H   H88       1.0  0.4464199999999999  0.2882799999999999  0.78057  1.0000
  H   H89       1.0  0.39630999999999994  0.01927  0.72636  1.0000
  H   H90       1.0  0.4480099999999999  0.94061  0.77323  1.0000
  H   H91       1.0  0.33407  0.28042  0.84679  1.0000
  H   H92       1.0  0.20315999999999998  0.20304  0.8475100000000002  1.0000
  H   H93       1.0  0.21867  0.11668  0.73132  1.0000
  H   H94       1.0  0.13552  0.10887  0.7808900000000002  1.0000
  H   H95       1.0  0.33829  0.92969  0.84024  1.0000
  H   H96       1.0  0.20501000000000003  0.0013499999999999899  0.8437800000000002  1.0000
  H   H97       1.0  0.8015999999999999  0.099  0.50746  1.0000
  H   H98       1.0  0.10622999999999999  0.2871  0.47257  1.0000
  H   H99       1.0  0.20947999999999997  0.18583  0.5352800000000002  1.0000
  H   H100      1.0  0.10291  0.04084  0.57929  1.0000
  H   H101      1.0  0.9787399999999999  0.52269  0.16189  1.0000
  H   H102      1.0  0.979  0.67199  0.15546  1.0000
  H   H103      1.0  0.10148  0.72111  0.26722  1.0000
  H   H104      1.0  0.05064  0.7846199999999998  0.21649000000000004  1.0000
  H   H105      1.0  0.09734  0.51403  0.27335  1.0000
  H   H106      1.0  0.04361  0.43496  0.22711  1.0000
  H   H107      1.0  0.1597  0.7730999999999999  0.15030000000000004  1.0000
  H   H108      1.0  0.29134  0.69843  0.15124  1.0000
  H   H109      1.0  0.27903  0.61709  0.26707  1.0000
  H   H110      1.0  0.3573099999999999  0.60706  0.21700000000000005  1.0000
  H   H111      1.0  0.15477999999999997  0.42233  0.16062  1.0000
  H   H112      1.0  0.28859  0.4955  0.15678000000000003  1.0000
  H   H113      1.0  0.19545  0.40203  0.00412  1.0000
  H   H114      1.0  0.88702  0.2229  0.9656600000000002  1.0000
  H   H115      1.0  0.78847  0.3143  0.03053000000000001  1.0000
  H   H116      1.0  0.9002099999999998  0.4425299999999999  0.07967  1.0000
  H   H117      1.0  0.01552  0.9703899999999999  0.66262  1.0000
  H   H118      1.0  0.01772  0.8216499999999998  0.6586  1.0000
  H   H119      1.0  0.8973  0.7769599999999999  0.76949  1.0000
  H   H120      1.0  0.9443399999999998  0.7114  0.72012  1.0000
  H   H121      1.0  0.8971  0.98165  0.7727  1.0000
  H   H122      1.0  0.94878  0.06031  0.72595  1.0000
  H   H123      1.0  0.8339  0.7189699999999999  0.6529600000000002  1.0000
  H   H124      1.0  0.70343  0.7955299999999998  0.65099  1.0000
  H   H125      1.0  0.71602  0.88337  0.7665400000000002  1.0000
  H   H126      1.0  0.63629  0.89053  0.71551  1.0000
  H   H127      1.0  0.83926  0.07038  0.65865  1.0000
  H   H128      1.0  0.70622  0.9977599999999999  0.6541200000000003  1.0000
  C   C1        1.0  0.59929  0.12194  0.008670000000000004  1.0000
  C   C2        1.0  0.5451999999999999  0.19775  0.9804700000000002  1.0000
  C   C3        1.0  0.42855  0.22383  0.98813  1.0000
  C   C4        1.0  0.37473  0.17174  0.024560000000000005  1.0000
  C   C5        1.0  0.43435999999999997  0.09517  0.05068000000000002  1.0000
  C   C6        1.0  0.47014999999999996  0.60391  0.6719800000000002  1.0000
  C   C7        1.0  0.40121999999999997  0.7137199999999999  0.7327500000000002  1.0000
  C   C8        1.0  0.40338  0.51243  0.73833  1.0000
  C   C9        1.0  0.29152  0.70411  0.6654300000000002  1.0000
  C   C10       1.0  0.22509999999999997  0.6122  0.73123  1.0000
  C   C11       1.0  0.29154  0.50176  0.6708600000000002  1.0000
  C   C12       1.0  0.3941  0.3762  0.5103400000000001  1.0000
  C   C13       1.0  0.4496899999999999  0.30100999999999994  0.48313  1.0000
  C   C14       1.0  0.56694  0.27824  0.4918900000000001  1.0000
  C   C15       1.0  0.62034  0.33185999999999993  0.52809  1.0000
  C   C16       1.0  0.55893  0.40589  0.55347  1.0000
  C   C17       1.0  0.52981  0.89254  0.17219  1.0000
  C   C18       1.0  0.59963  0.78379  0.23331  1.0000
  C   C19       1.0  0.59924  0.9840499999999999  0.23718000000000006  1.0000
  C   C20       1.0  0.71015  0.7935399999999999  0.16630000000000006  1.0000
  C   C21       1.0  0.7769299999999999  0.88778  0.23230000000000006  1.0000
  C   C22       1.0  0.70805  0.99432  0.16981  1.0000
  C   C23       1.0  0.10905999999999999  0.87775  0.48704  1.0000
  C   C24       1.0  0.05471  0.79938  0.51443  1.0000
  C   C25       1.0  0.9382399999999999  0.77405  0.50647  1.0000
  C   C26       1.0  0.8811599999999999  0.8300299999999998  0.47158  1.0000
  C   C27       1.0  0.94024  0.9101699999999999  0.44661  1.0000
  C   C28       1.0  0.9752499999999998  0.3996  0.82997  1.0000
  C   C29       1.0  0.9038599999999998  0.2875  0.7690400000000002  1.0000
  C   C30       1.0  0.9080400000000001  0.4898  0.76296  1.0000
  C   C31       1.0  0.79542  0.2992  0.83529  1.0000
  C   C32       1.0  0.7294099999999999  0.38982999999999995  0.76919  1.0000
  C   C33       1.0  0.79855  0.50124  0.82998  1.0000
  C   C34       1.0  0.89366  0.62309  0.9899700000000002  1.0000
  C   C35       1.0  0.94828  0.6978  0.0181  1.0000
  C   C36       1.0  0.06658  0.7211299999999998  0.012020000000000003  1.0000
  C   C37       1.0  0.12008000000000002  0.67191  0.9752800000000003  1.0000
  C   C38       1.0  0.0591  0.59973  0.9482800000000001  1.0000
  C   C39       1.0  0.029360000000000004  0.10740999999999999  0.3281100000000001  1.0000
  C   C40       1.0  0.10069  0.21576999999999996  0.26689  1.0000
  C   C41       1.0  0.09861999999999999  0.01521  0.2637  1.0000
  C   C42       1.0  0.21023  0.20753  0.3343500000000001  1.0000
  C   C43       1.0  0.27703  0.11224  0.26978  1.0000
  C   C44       1.0  0.20702  0.006129999999999999  0.33148  1.0000
  C   C45       1.0  0.40070999999999996  0.8780499999999999  0.9913300000000003  1.0000
  C   C46       1.0  0.45479  0.80224  0.019530000000000006  1.0000
  C   C47       1.0  0.5714399999999998  0.7761599999999999  0.01187  1.0000
  C   C48       1.0  0.62526  0.8282499999999999  0.9754400000000002  1.0000
  C   C49       1.0  0.56564  0.9048199999999997  0.9493200000000003  1.0000
  C   C50       1.0  0.52984  0.39608999999999994  0.3280200000000001  1.0000
  C   C51       1.0  0.59878  0.28627  0.2672600000000001  1.0000
  C   C52       1.0  0.59662  0.48757  0.26167  1.0000
  C   C53       1.0  0.70848  0.29588  0.33458  1.0000
  C   C54       1.0  0.7748899999999999  0.38779  0.26877  1.0000
  C   C55       1.0  0.70846  0.49822999999999995  0.32914  1.0000
  C   C56       1.0  0.6059  0.62379  0.48966  1.0000
  C   C57       1.0  0.5503  0.6989799999999998  0.5168700000000002  1.0000
  C   C58       1.0  0.43305  0.72176  0.50811  1.0000
  C   C59       1.0  0.37965  0.6681299999999998  0.4719100000000001  1.0000
  C   C60       1.0  0.44106  0.5941  0.44653  1.0000
  C   C61       1.0  0.4701799999999999  0.10745000000000003  0.82782  1.0000
  C   C62       1.0  0.40037  0.21619999999999998  0.76669  1.0000
  C   C63       1.0  0.40074999999999994  0.01594  0.76282  1.0000
  C   C64       1.0  0.28984  0.20644999999999997  0.8337000000000001  1.0000
  C   C65       1.0  0.22307  0.11221  0.7677000000000003  1.0000
  C   C66       1.0  0.2919399999999999  0.005669999999999989  0.8301900000000002  1.0000
  C   C67       1.0  0.89094  0.12223999999999999  0.51297  1.0000
  C   C68       1.0  0.9452799999999999  0.20061  0.48558  1.0000
  C   C69       1.0  0.06174999999999999  0.22594  0.49353000000000014  1.0000
  C   C70       1.0  0.11883  0.16995999999999994  0.52842  1.0000
  C   C71       1.0  0.05975  0.08982  0.55339  1.0000
  C   C72       1.0  0.02475  0.60039  0.17004  1.0000
  C   C73       1.0  0.09613  0.71249  0.23097000000000006  1.0000
  C   C74       1.0  0.09195  0.51019  0.23704000000000006  1.0000
  C   C75       1.0  0.20457  0.70079  0.16471000000000005  1.0000
  C   C76       1.0  0.27058  0.61016  0.23081000000000004  1.0000
  C   C77       1.0  0.20144  0.49875  0.17003  1.0000
  C   C78       1.0  0.10632999999999998  0.3769  0.010030000000000004  1.0000
  C   C79       1.0  0.051719999999999995  0.30219  0.98191  1.0000
  C   C80       1.0  0.93341  0.27886  0.9879800000000002  1.0000
  C   C81       1.0  0.8799099999999999  0.32808  0.024720000000000006  1.0000
  C   C82       1.0  0.9408999999999998  0.40026  0.05172  1.0000
  C   C83       1.0  0.97063  0.89258  0.67189  1.0000
  C   C84       1.0  0.8992999999999999  0.7842199999999998  0.7331100000000003  1.0000
  C   C85       1.0  0.90137  0.98478  0.7363  1.0000
  C   C86       1.0  0.78976  0.7924599999999998  0.66566  1.0000
  C   C87       1.0  0.72296  0.88775  0.73022  1.0000
  C   C88       1.0  0.79298  0.99386  0.6685300000000002  1.0000
  S   S1        1.0  0.6219  0.25959  0.93446  1.0000
  S   S2        1.0  0.3704  0.23766999999999994  0.4376  1.0000
  S   S3        1.0  0.13013  0.74443  0.56234  1.0000
  S   S4        1.0  0.8716499999999998  0.7561199999999999  0.06403  1.0000
  S   S5        1.0  0.3781  0.7404  0.06554  1.0000
  S   S6        1.0  0.62959  0.76232  0.5624  1.0000
  S   S7        1.0  0.86986  0.25557  0.43766  1.0000
  S   S8        1.0  0.12833999999999995  0.24386999999999998  0.93598  1.0000
  N   N1        1.0  0.54663  0.06964  0.04304  1.0000
  N   N2        1.0  0.46588  0.61166  0.72114  1.0000
  N   N3        1.0  0.35298999999999997  0.60034  0.65218  1.0000
  N   N4        1.0  0.28497  0.50687  0.72  1.0000
  N   N5        1.0  0.28528  0.71087  0.71396  1.0000
  N   N6        1.0  0.44608  0.42845999999999995  0.54498  1.0000
  N   N7        1.0  0.53755  0.88541  0.22060000000000005  1.0000
  N   N8        1.0  0.64663  0.8953099999999998  0.15196  1.0000
  N   N9        1.0  0.7161499999999998  0.98957  0.21874  1.0000
  N   N10       1.0  0.71857  0.7853599999999998  0.21573000000000006  1.0000
  N   N11       1.0  0.05329999999999999  0.93318  0.4538000000000001  1.0000
  N   N12       1.0  0.97102  0.39064999999999994  0.78053  1.0000
  N   N13       1.0  0.8587199999999999  0.40291999999999994  0.84894  1.0000
  N   N14       1.0  0.79105  0.49514  0.7809500000000003  1.0000
  N   N15       1.0  0.78879  0.29158  0.78699  1.0000
  N   N16       1.0  0.94645  0.57309  0.95554  1.0000
  N   N17       1.0  0.03588  0.11439  0.27939  1.0000
  N   N18       1.0  0.14614  0.10542999999999998  0.3485600000000001  1.0000
  N   N19       1.0  0.21454  0.011049999999999997  0.2829000000000001  1.0000
  N   N20       1.0  0.21859  0.21461999999999995  0.28527  1.0000
  N   N21       1.0  0.45335999999999993  0.93036  0.9569600000000003  1.0000
  N   N22       1.0  0.53411  0.38833  0.2788700000000001  1.0000
  N   N23       1.0  0.647  0.39965  0.34782  1.0000
  N   N24       1.0  0.7150199999999999  0.4931199999999999  0.2800100000000001  1.0000
  N   N25       1.0  0.7147099999999998  0.28912  0.28604  1.0000
  N   N26       1.0  0.55391  0.57153  0.45502  1.0000
  N   N27       1.0  0.4624399999999999  0.11458  0.77941  1.0000
  N   N28       1.0  0.35336  0.10467999999999998  0.8480500000000002  1.0000
  N   N29       1.0  0.28385  0.01042  0.78127  1.0000
  N   N30       1.0  0.28142  0.21463  0.7842800000000002  1.0000
  N   N31       1.0  0.94669  0.06680999999999998  0.5462000000000002  1.0000
  N   N32       1.0  0.02898  0.60934  0.21947  1.0000
  N   N33       1.0  0.14127  0.59707  0.15107  1.0000
  N   N34       1.0  0.20895  0.5048499999999999  0.21905  1.0000
  N   N35       1.0  0.21120999999999998  0.7084099999999999  0.21301  1.0000
  N   N36       1.0  0.05353999999999998  0.42689999999999995  0.04446000000000001  1.0000
  N   N37       1.0  0.96411  0.8855999999999998  0.72061  1.0000
  N   N38       1.0  0.85385  0.89456  0.6514400000000002  1.0000
  N   N39       1.0  0.78545  0.9889399999999999  0.71711  1.0000
  N   N40       1.0  0.7813999999999999  0.78537  0.7147400000000003  1.0000
  O   O1        1.0  0.71195  0.17884999999999998  0.92203  1.0000
  O   O2        1.0  0.53345  0.27852999999999994  0.8997300000000003  1.0000
  O   O3        1.0  0.67161  0.36496  0.95285  1.0000
  O   O4        1.0  0.28733  0.32345  0.4227400000000001  1.0000
  O   O5        1.0  0.45457  0.20867999999999998  0.40373  1.0000
  O   O6        1.0  0.31518  0.13684999999999997  0.45901  1.0000
  O   O7        1.0  0.22048999999999996  0.8269899999999999  0.5730300000000003  1.0000
  O   O8        1.0  0.04357  0.73383  0.5973700000000001  1.0000
  O   O9        1.0  0.17561  0.63483  0.54693  1.0000
  O   O10       1.0  0.782  0.67239  0.07457  1.0000
  O   O11       1.0  0.9580099999999998  0.77427  0.09894000000000001  1.0000
  O   O12       1.0  0.82126  0.86374  0.04654  1.0000
  O   O13       1.0  0.28804  0.8211399999999999  0.07798000000000002  1.0000
  O   O14       1.0  0.46654  0.72146  0.10028000000000002  1.0000
  O   O15       1.0  0.32839  0.63502  0.04715000000000001  1.0000
  O   O16       1.0  0.71266  0.6765499999999999  0.57726  1.0000
  O   O17       1.0  0.54542  0.79131  0.59627  1.0000
  O   O18       1.0  0.68481  0.8631399999999999  0.5410000000000003  1.0000
  O   O19       1.0  0.77951  0.173  0.42698  1.0000
  O   O20       1.0  0.9564199999999999  0.26616  0.4026400000000001  1.0000
  O   O21       1.0  0.82438  0.36516  0.4530700000000001  1.0000
  O   O22       1.0  0.21798999999999996  0.3276  0.92543  1.0000
  O   O23       1.0  0.04198  0.22572  0.9010600000000002  1.0000
  O   O24       1.0  0.17874  0.13626  0.9534600000000002  1.0000
