data_image0
_chemical_formula_structural       Sn12H108C78O30
_chemical_formula_sum              "Sn12 H108 C78 O30"
_cell_length_a       9.37966
_cell_length_b       19.11695
_cell_length_c       19.11922
_cell_angle_alpha    117.41359
_cell_angle_beta     99.40439
_cell_angle_gamma    99.49859

_space_group_name_H-M_alt    "P 1"
_space_group_IT_number       1

loop_
  _space_group_symop_operation_xyz
  'x, y, z'

loop_
  _atom_site_type_symbol
  _atom_site_label
  _atom_site_symmetry_multiplicity
  _atom_site_fract_x
  _atom_site_fract_y
  _atom_site_fract_z
  _atom_site_occupancy
  Sn  Sn1       1.0  0.32489  0.93768  0.44234  1.0000
  Sn  Sn2       1.0  0.23815  0.66686  0.66524  1.0000
  Sn  Sn3       1.0  0.38737  0.5046  0.06222  1.0000
  Sn  Sn4       1.0  0.56882  0.9981899999999999  0.333  1.0000
  Sn  Sn5       1.0  0.88341  0.55788  0.49541  1.0000
  Sn  Sn6       1.0  0.57065  0.33446  0.00147  1.0000
  Sn  Sn7       1.0  0.6751100000000001  0.06231999999999996  0.55766  1.0000
  Sn  Sn8       1.0  0.7618500000000001  0.33314  0.33476  1.0000
  Sn  Sn9       1.0  0.6126299999999999  0.49540999999999996  0.93778  1.0000
  Sn  Sn10      1.0  0.43118  0.001809999999999997  0.667  1.0000
  Sn  Sn11      1.0  0.11658999999999999  0.44211999999999996  0.5046  1.0000
  Sn  Sn12      1.0  0.42935  0.66554  0.9985299999999999  1.0000
  H   H1        1.0  0.10149000000000004  0.9158  0.69452  1.0000
  H   H2        1.0  0.9653300000000001  0.85863  0.71602  1.0000
  H   H3        1.0  0.7367599999999999  0.77675  0.62526  1.0000
  H   H4        1.0  0.54706  0.72264  0.49453  1.0000
  H   H5        1.0  0.6194599999999999  0.7356899999999998  0.37969  1.0000
  H   H6        1.0  0.88471  0.8102199999999999  0.40362999999999993  1.0000
  H   H7        1.0  0.46958000000000005  0.64859  0.5964  1.0000
  H   H8        1.0  0.5243899999999998  0.7472499999999996  0.6887699999999998  1.0000
  H   H9        1.0  0.40224999999999994  0.7323699999999999  0.59809  1.0000
  H   H10       1.0  0.07591999999999999  0.72386  0.77287  1.0000
  H   H11       1.0  0.24731999999999996  0.7143199999999998  0.82192  1.0000
  H   H12       1.0  0.09205000000000008  0.6248  0.75516  1.0000
  H   H13       1.0  0.41866000000000003  0.8064700000000001  0.35375  1.0000
  H   H14       1.0  0.3780399999999999  0.8038399999999999  0.44164  1.0000
  H   H15       1.0  0.22807999999999992  0.7720999999999999  0.3523799999999999  1.0000
  H   H16       1.0  0.10221000000000001  0.008110000000000037  0.43463  1.0000
  H   H17       1.0  0.26798  0.06616  0.42997  1.0000
  H   H18       1.0  0.15649999999999992  0.97232  0.3405  1.0000
  H   H19       1.0  0.18334000000000003  0.77837  0.08369  1.0000
  H   H20       1.0  0.10562000000000009  0.85745  0.14117  1.0000
  H   H21       1.0  0.95846  0.84816  0.22272  1.0000
  H   H22       1.0  0.8245600000000001  0.77216  0.27782  1.0000
  H   H23       1.0  0.8836100000000001  0.6443199999999999  0.26479  1.0000
  H   H24       1.0  0.0727  0.5931399999999999  0.18958  1.0000
  H   H25       1.0  0.81887  0.94853  0.35216  1.0000
  H   H26       1.0  0.7751899999999999  0.94177  0.25339  1.0000
  H   H27       1.0  0.66814  0.8657499999999999  0.26819  1.0000
  H   H28       1.0  0.34987  0.049209999999999976  0.27622  1.0000
  H   H29       1.0  0.53135  0.10771999999999989  0.2858799999999999  1.0000
  H   H30       1.0  0.46564000000000005  0.13055  0.37521  1.0000
  H   H31       1.0  0.61238  0.54766  0.19379  1.0000
  H   H32       1.0  0.5740099999999999  0.63813  0.19629  1.0000
  H   H33       1.0  0.45524000000000003  0.58006  0.22732  1.0000
  H   H34       1.0  0.09371999999999993  0.42619  0.99199  1.0000
  H   H35       1.0  0.20094999999999993  0.3634999999999999  0.93374  1.0000
  H   H36       1.0  0.18432999999999997  0.36792999999999987  0.02756  1.0000
  H   H37       1.0  0.40399000000000007  0.30521  0.22102  1.0000
  H   H38       1.0  0.24582000000000004  0.28385  0.14278  1.0000
  H   H39       1.0  0.10956000000000002  0.37502  0.15166  1.0000
  H   H40       1.0  0.05197000000000002  0.50587  0.22819  1.0000
  H   H41       1.0  0.23964999999999984  0.6206799999999997  0.35606  1.0000
  H   H42       1.0  0.48012  0.59666  0.4067199999999999  1.0000
  H   H43       1.0  0.87037  0.40419  0.05235  1.0000
  H   H44       1.0  0.8335100000000002  0.31185  0.05861  1.0000
  H   H45       1.0  0.80201  0.40248  0.13466  1.0000
  H   H46       1.0  0.30034  0.22656  0.94998  1.0000
  H   H47       1.0  0.4236300000000002  0.17790000000000006  0.8918  1.0000
  H   H48       1.0  0.3350099999999999  0.2442300000000001  0.86876  1.0000
  H   H49       1.0  0.06560999999999995  0.64624  0.4524799999999999  1.0000
  H   H50       1.0  0.9367300000000001  0.5582  0.36187  1.0000
  H   H51       1.0  0.8763700000000001  0.64742  0.41964  1.0000
  H   H52       1.0  0.6688599999999999  0.5658599999999998  0.5739099999999998  1.0000
  H   H53       1.0  0.83929  0.57048  0.6363299999999997  1.0000
  H   H54       1.0  0.8178099999999999  0.66005  0.63235  1.0000
  H   H55       1.0  0.89851  0.08421  0.30549  1.0000
  H   H56       1.0  0.03466999999999999  0.14137  0.28399  1.0000
  H   H57       1.0  0.26324000000000003  0.22325  0.37474  1.0000
  H   H58       1.0  0.45294  0.27735999999999994  0.50547  1.0000
  H   H59       1.0  0.38054  0.26431  0.62032  1.0000
  H   H60       1.0  0.11528999999999996  0.18977999999999992  0.59638  1.0000
  H   H61       1.0  0.53042  0.3514099999999999  0.4036099999999999  1.0000
  H   H62       1.0  0.47561  0.25275  0.31124  1.0000
  H   H63       1.0  0.59775  0.26763  0.40191  1.0000
  H   H64       1.0  0.92408  0.27614  0.22714  1.0000
  H   H65       1.0  0.75268  0.28568  0.17808  1.0000
  H   H66       1.0  0.90795  0.37519999999999987  0.24485  1.0000
  H   H67       1.0  0.58134  0.19352999999999998  0.64625  1.0000
  H   H68       1.0  0.62197  0.19616  0.55836  1.0000
  H   H69       1.0  0.7719200000000003  0.22789999999999996  0.64762  1.0000
  H   H70       1.0  0.89779  0.9918899999999999  0.56537  1.0000
  H   H71       1.0  0.73202  0.93384  0.57003  1.0000
  H   H72       1.0  0.8435000000000001  0.02767999999999997  0.6595  1.0000
  H   H73       1.0  0.81666  0.22162999999999988  0.91631  1.0000
  H   H74       1.0  0.89438  0.1425499999999999  0.85883  1.0000
  H   H75       1.0  0.04154000000000001  0.15184000000000003  0.77728  1.0000
  H   H76       1.0  0.17544  0.22784  0.72218  1.0000
  H   H77       1.0  0.11639000000000006  0.35568999999999995  0.73522  1.0000
  H   H78       1.0  0.9273  0.40686  0.81043  1.0000
  H   H79       1.0  0.18112999999999996  0.05147  0.64784  1.0000
  H   H80       1.0  0.22481000000000007  0.05822999999999997  0.74662  1.0000
  H   H81       1.0  0.33186  0.13425000000000004  0.73181  1.0000
  H   H82       1.0  0.65013  0.95079  0.72378  1.0000
  H   H83       1.0  0.46865000000000007  0.89228  0.71412  1.0000
  H   H84       1.0  0.5343600000000001  0.8694499999999998  0.6248  1.0000
  H   H85       1.0  0.38762  0.45233999999999996  0.80621  1.0000
  H   H86       1.0  0.4259899999999999  0.36187  0.80371  1.0000
  H   H87       1.0  0.54477  0.41994  0.77268  1.0000
  H   H88       1.0  0.9062900000000002  0.57381  0.00802  1.0000
  H   H89       1.0  0.79905  0.6364999999999998  0.06626  1.0000
  H   H90       1.0  0.8156700000000001  0.6320700000000001  0.97244  1.0000
  H   H91       1.0  0.59601  0.69479  0.77898  1.0000
  H   H92       1.0  0.75418  0.71615  0.85722  1.0000
  H   H93       1.0  0.8904400000000001  0.62498  0.84834  1.0000
  H   H94       1.0  0.9480400000000001  0.49413  0.77181  1.0000
  H   H95       1.0  0.76035  0.37931999999999994  0.64394  1.0000
  H   H96       1.0  0.51988  0.40334  0.59329  1.0000
  H   H97       1.0  0.12963000000000002  0.59581  0.94765  1.0000
  H   H98       1.0  0.1664899999999999  0.6881499999999998  0.9413899999999997  1.0000
  H   H99       1.0  0.19798999999999992  0.59752  0.86534  1.0000
  H   H100      1.0  0.69966  0.77344  0.05002  1.0000
  H   H101      1.0  0.57637  0.8221  0.1082  1.0000
  H   H102      1.0  0.66499  0.75577  0.13125  1.0000
  H   H103      1.0  0.93439  0.35375999999999996  0.54752  1.0000
  H   H104      1.0  0.06327000000000002  0.4418  0.63814  1.0000
  H   H105      1.0  0.12362999999999995  0.3525799999999999  0.5803599999999999  1.0000
  H   H106      1.0  0.33114  0.43413999999999997  0.42609  1.0000
  H   H107      1.0  0.16071000000000002  0.42951999999999996  0.36367  1.0000
  H   H108      1.0  0.18218999999999996  0.33995  0.36765  1.0000
  C   C1        1.0  0.13209000000000004  0.8011800000000001  0.6748  1.0000
  C   C2        1.0  0.02915000000000001  0.85421  0.67126  1.0000
  C   C3        1.0  0.9203  0.82155  0.58891  1.0000
  C   C4        1.0  0.77028  0.78234  0.57576  1.0000
  C   C5        1.0  0.6624999999999999  0.7516899999999999  0.5016799999999998  1.0000
  C   C6        1.0  0.70247  0.7596999999999999  0.43786  1.0000
  C   C7        1.0  0.84985  0.80027  0.45053  1.0000
  C   C8        1.0  0.9594300000000001  0.8308  0.52474  1.0000
  C   C9        1.0  0.11339999999999999  0.87536  0.53249  1.0000
  C   C10       1.0  0.43467  0.70299  0.63328  1.0000
  C   C11       1.0  0.15188999999999986  0.6850899999999998  0.7671799999999998  1.0000
  C   C12       1.0  0.3389699999999999  0.8139899999999999  0.39075999999999994  1.0000
  C   C13       1.0  0.19631000000000007  0.004660000000000013  0.40731  1.0000
  C   C14       1.0  0.32921  0.87303  0.19888  1.0000
  C   C15       1.0  0.1731199999999999  0.8167499999999998  0.14529  1.0000
  C   C16       1.0  0.09682000000000004  0.7670000000000001  0.17782  1.0000
  C   C17       1.0  0.9866200000000002  0.7932  0.21731  1.0000
  C   C18       1.0  0.9102900000000002  0.75002  0.24839  1.0000
  C   C19       1.0  0.94206  0.6781399999999997  0.24028999999999995  1.0000
  C   C20       1.0  0.04827  0.6500599999999999  0.1994  1.0000
  C   C21       1.0  0.12711  0.69375  0.16879999999999995  1.0000
  C   C22       1.0  0.23698000000000002  0.65738  0.12452000000000002  1.0000
  C   C23       1.0  0.7296100000000001  0.93046  0.2975  1.0000
  C   C24       1.0  0.46492000000000006  0.08214999999999995  0.3149599999999999  1.0000
  C   C25       1.0  0.5250300000000001  0.5769299999999999  0.18595999999999993  1.0000
  C   C26       1.0  0.19137999999999997  0.4024400000000001  0.9952799999999999  1.0000
  C   C27       1.0  0.45404  0.3246299999999999  0.12583  1.0000
  C   C28       1.0  0.3550400000000001  0.32845  0.18276  1.0000
  C   C29       1.0  0.32979  0.4111  0.23267999999999997  1.0000
  C   C30       1.0  0.19323  0.42443999999999993  0.20667  1.0000
  C   C31       1.0  0.15997999999999996  0.4985999999999999  0.25015  1.0000
  C   C32       1.0  0.26399  0.5623499999999999  0.32204  1.0000
  C   C33       1.0  0.39847  0.54955  0.34987  1.0000
  C   C34       1.0  0.43362  0.47526  0.30619  1.0000
  C   C35       1.0  0.58009  0.4675599999999999  0.34288  1.0000
  C   C36       1.0  0.79906  0.36723  0.07003  1.0000
  C   C37       1.0  0.3825  0.23241999999999996  0.91716  1.0000
  C   C38       1.0  0.9488200000000001  0.6091  0.423  1.0000
  C   C39       1.0  0.79039  0.59321  0.59767  1.0000
  C   C40       1.0  0.8679099999999996  0.1988199999999999  0.3251999999999999  1.0000
  C   C41       1.0  0.97085  0.14579  0.32875  1.0000
  C   C42       1.0  0.0797  0.17844999999999997  0.4111  1.0000
  C   C43       1.0  0.22972  0.21766  0.42424  1.0000
  C   C44       1.0  0.3375099999999999  0.24830999999999998  0.49832000000000004  1.0000
  C   C45       1.0  0.29752999999999996  0.24029999999999999  0.56215  1.0000
  C   C46       1.0  0.15014999999999998  0.19972999999999996  0.54947  1.0000
  C   C47       1.0  0.04056999999999999  0.16919999999999996  0.47527  1.0000
  C   C48       1.0  0.8865999999999998  0.12463999999999997  0.46751  1.0000
  C   C49       1.0  0.56533  0.29701  0.36673  1.0000
  C   C50       1.0  0.84811  0.31491  0.23283  1.0000
  C   C51       1.0  0.66103  0.18600999999999993  0.60924  1.0000
  C   C52       1.0  0.80369  0.9953399999999999  0.59269  1.0000
  C   C53       1.0  0.67079  0.12697999999999998  0.80113  1.0000
  C   C54       1.0  0.82688  0.18325  0.85471  1.0000
  C   C55       1.0  0.9031800000000003  0.23300000000000004  0.82219  1.0000
  C   C56       1.0  0.01337999999999998  0.20679999999999996  0.7827  1.0000
  C   C57       1.0  0.08971  0.24997999999999995  0.75161  1.0000
  C   C58       1.0  0.05794  0.32186  0.75971  1.0000
  C   C59       1.0  0.95173  0.3499399999999999  0.8006  1.0000
  C   C60       1.0  0.87289  0.3062500000000001  0.8312  1.0000
  C   C61       1.0  0.76302  0.34262  0.87549  1.0000
  C   C62       1.0  0.27039  0.06954  0.7025  1.0000
  C   C63       1.0  0.53508  0.9178499999999999  0.68505  1.0000
  C   C64       1.0  0.47497  0.42307  0.81404  1.0000
  C   C65       1.0  0.80862  0.59756  0.0047199999999999985  1.0000
  C   C66       1.0  0.54596  0.6753699999999999  0.87418  1.0000
  C   C67       1.0  0.6449600000000001  0.6715499999999999  0.8172399999999997  1.0000
  C   C68       1.0  0.6702100000000001  0.5889  0.76733  1.0000
  C   C69       1.0  0.8067700000000002  0.57556  0.79333  1.0000
  C   C70       1.0  0.84002  0.5014  0.74985  1.0000
  C   C71       1.0  0.73601  0.43765  0.67796  1.0000
  C   C72       1.0  0.6015300000000002  0.45045  0.65013  1.0000
  C   C73       1.0  0.5663799999999999  0.5247399999999999  0.69382  1.0000
  C   C74       1.0  0.4199100000000001  0.53244  0.65713  1.0000
  C   C75       1.0  0.2009399999999999  0.63277  0.9299699999999997  1.0000
  C   C76       1.0  0.6174999999999999  0.7675799999999999  0.08284  1.0000
  C   C77       1.0  0.05117999999999988  0.3908999999999999  0.5769999999999997  1.0000
  C   C78       1.0  0.20961000000000002  0.40679  0.40234  1.0000
  O   O1        1.0  0.08560999999999991  0.7232699999999999  0.6191699999999998  1.0000
  O   O2        1.0  0.24973000000000004  0.8306899999999999  0.73164  1.0000
  O   O3        1.0  0.22599  0.88139  0.58432  1.0000
  O   O4        1.0  0.12095999999999998  0.90593  0.48549  1.0000
  O   O5        1.0  0.4572800000000001  0.004000000000000009  0.56282  1.0000
  O   O6        1.0  0.35828999999999994  0.89596  0.2768299999999999  1.0000
  O   O7        1.0  0.41963  0.89983  0.16998999999999995  1.0000
  O   O8        1.0  0.34266  0.70361  0.11826  1.0000
  O   O9        1.0  0.21468999999999994  0.5798599999999999  0.09433  1.0000
  O   O10       1.0  0.45393000000000006  0.5592  0.99644  1.0000
  O   O11       1.0  0.46414000000000005  0.38055999999999995  0.10405999999999997  1.0000
  O   O12       1.0  0.51381  0.2675  0.0979  1.0000
  O   O13       1.0  0.64071  0.41587999999999997  0.2967  1.0000
  O   O14       1.0  0.63498  0.51422  0.4205499999999999  1.0000
  O   O15       1.0  0.8932400000000001  0.43716  0.44139  1.0000
  O   O16       1.0  0.9144  0.2767299999999999  0.38083  1.0000
  O   O17       1.0  0.7502700000000001  0.16930999999999996  0.26837  1.0000
  O   O18       1.0  0.7740099999999999  0.11861  0.41569  1.0000
  O   O19       1.0  0.8790400000000002  0.09407  0.51452  1.0000
  O   O20       1.0  0.54272  0.9959999999999999  0.43719  1.0000
  O   O21       1.0  0.6417100000000001  0.10404000000000001  0.72318  1.0000
  O   O22       1.0  0.58037  0.10016999999999997  0.83001  1.0000
  O   O23       1.0  0.65734  0.29639  0.88174  1.0000
  O   O24       1.0  0.78531  0.4201399999999999  0.9056699999999998  1.0000
  O   O25       1.0  0.54607  0.4408  0.00356  1.0000
  O   O26       1.0  0.53586  0.61944  0.89594  1.0000
  O   O27       1.0  0.4861900000000001  0.7325000000000002  0.90211  1.0000
  O   O28       1.0  0.35928999999999994  0.5841199999999999  0.7032999999999998  1.0000
  O   O29       1.0  0.36502000000000007  0.48577999999999993  0.57945  1.0000
  O   O30       1.0  0.10676000000000002  0.56284  0.55861  1.0000
